MODEL 1
REMARK VINA RESULT:      -7.5      0.000      0.000
REMARK  Name = 
REMARK  3 active torsions:
REMARK  status: ('A' for Active; 'I' for Inactive)
REMARK    1  A    between atoms: C_1  and  O_2
REMARK    2  A    between atoms: O_2  and  C_3
REMARK    3  A    between atoms: C_7  and  C_8
REMARK                            x       y       z     vdW  Elec       q    Type
REMARK                         _______ _______ _______ _____ _____    ______ ____
ROOT
ATOM      1  C   UNL     1       4.393   5.209  17.448  0.00  0.00    +0.000 C 
ATOM      2  C   UNL     1       4.596   3.833  16.760  0.00  0.00    +0.000 C 
ATOM      3  O   UNL     1       5.075   3.717  15.629  0.00  0.00    +0.000 OA
ATOM      4  N   UNL     1       4.218   2.703  17.456  0.00  0.00    +0.000 N 
ATOM      5  C   UNL     1       3.466   2.680  18.611  0.00  0.00    +0.000 C 
ATOM      6  O   UNL     1       2.890   1.659  18.973  0.00  0.00    +0.000 OA
ATOM      7  C   UNL     1       3.487   3.983  19.400  0.00  0.00    +0.000 C 
ATOM      8  C   UNL     1       2.312   4.195  20.344  0.00  0.00    +0.000 C 
ATOM      9  C   UNL     1       2.017   5.698  20.265  0.00  0.00    +0.000 C 
ATOM     10  C   UNL     1       3.036   6.271  19.281  0.00  0.00    +0.000 C 
ATOM     11  N   UNL     1       3.352   5.106  18.479  0.00  0.00    +0.000 NA
ATOM     12  H   UNL     1       4.257   1.841  16.930  0.00  0.00    +0.000 HD
ENDROOT
BRANCH   1  17
ATOM     13  C   UNL     1       7.400   7.613  17.714  0.00  0.00    +0.000 A 
ATOM     14  C   UNL     1       8.166   6.955  18.675  0.00  0.00    +0.000 A 
ATOM     15  C   UNL     1       7.726   5.758  19.233  0.00  0.00    +0.000 A 
ATOM     16  C   UNL     1       6.515   5.202  18.816  0.00  0.00    +0.000 A 
ATOM     17  C   UNL     1       5.721   5.844  17.849  0.00  0.00    +0.000 A 
ATOM     18  C   UNL     1       6.172   7.067  17.320  0.00  0.00    +0.000 A 
BRANCH  13  20
ATOM     19  C   UNL     1       8.537   9.651  18.187  0.00  0.00    +0.000 C 
ATOM     20  O   UNL     1       7.956   8.768  17.238  0.00  0.00    +0.000 OA
ENDBRANCH  13  20
ENDBRANCH   1  17
TORSDOF 2
ENDMDL
MODEL 2
REMARK VINA RESULT:      -7.5      2.117      2.939
REMARK  Name = 
REMARK  3 active torsions:
REMARK  status: ('A' for Active; 'I' for Inactive)
REMARK    1  A    between atoms: C_1  and  O_2
REMARK    2  A    between atoms: O_2  and  C_3
REMARK    3  A    between atoms: C_7  and  C_8
REMARK                            x       y       z     vdW  Elec       q    Type
REMARK                         _______ _______ _______ _____ _____    ______ ____
ROOT
ATOM      1  C   UNL     1       3.070   4.344  17.543  0.00  0.00    +0.000 C 
ATOM      2  C   UNL     1       2.702   2.973  18.170  0.00  0.00    +0.000 C 
ATOM      3  O   UNL     1       2.647   1.932  17.511  0.00  0.00    +0.000 OA
ATOM      4  N   UNL     1       2.429   2.935  19.522  0.00  0.00    +0.000 N 
ATOM      5  C   UNL     1       2.223   4.030  20.335  0.00  0.00    +0.000 C 
ATOM      6  O   UNL     1       1.659   3.918  21.419  0.00  0.00    +0.000 OA
ATOM      7  C   UNL     1       2.817   5.328  19.803  0.00  0.00    +0.000 C 
ATOM      8  C   UNL     1       2.194   6.605  20.348  0.00  0.00    +0.000 C 
ATOM      9  C   UNL     1       2.191   7.574  19.161  0.00  0.00    +0.000 C 
ATOM     10  C   UNL     1       2.811   6.806  17.994  0.00  0.00    +0.000 C 
ATOM     11  N   UNL     1       2.540   5.434  18.374  0.00  0.00    +0.000 NA
ATOM     12  H   UNL     1       2.083   2.051  19.866  0.00  0.00    +0.000 HD
ENDROOT
BRANCH   1  17
ATOM     13  C   UNL     1       6.919   4.570  17.684  0.00  0.00    +0.000 A 
ATOM     14  C   UNL     1       7.226   4.498  16.325  0.00  0.00    +0.000 A 
ATOM     15  C   UNL     1       6.216   4.375  15.376  0.00  0.00    +0.000 A 
ATOM     16  C   UNL     1       4.881   4.341  15.785  0.00  0.00    +0.000 A 
ATOM     17  C   UNL     1       4.541   4.412  17.148  0.00  0.00    +0.000 A 
ATOM     18  C   UNL     1       5.581   4.506  18.091  0.00  0.00    +0.000 A 
BRANCH  13  20
ATOM     19  C   UNL     1       7.962   5.737  19.479  0.00  0.00    +0.000 C 
ATOM     20  O   UNL     1       8.004   4.705  18.504  0.00  0.00    +0.000 OA
ENDBRANCH  13  20
ENDBRANCH   1  17
TORSDOF 2
ENDMDL
MODEL 3
REMARK VINA RESULT:      -7.4      2.682      4.487
REMARK  Name = 
REMARK  3 active torsions:
REMARK  status: ('A' for Active; 'I' for Inactive)
REMARK    1  A    between atoms: C_1  and  O_2
REMARK    2  A    between atoms: O_2  and  C_3
REMARK    3  A    between atoms: C_7  and  C_8
REMARK                            x       y       z     vdW  Elec       q    Type
REMARK                         _______ _______ _______ _____ _____    ______ ____
ROOT
ATOM      1  C   UNL     1       3.433   5.165  17.923  0.00  0.00    +0.000 C 
ATOM      2  C   UNL     1       4.934   5.054  18.300  0.00  0.00    +0.000 C 
ATOM      3  O   UNL     1       5.805   5.757  17.783  0.00  0.00    +0.000 OA
ATOM      4  N   UNL     1       5.291   4.123  19.254  0.00  0.00    +0.000 N 
ATOM      5  C   UNL     1       4.483   3.119  19.745  0.00  0.00    +0.000 C 
ATOM      6  O   UNL     1       4.960   2.143  20.316  0.00  0.00    +0.000 OA
ATOM      7  C   UNL     1       2.991   3.376  19.579  0.00  0.00    +0.000 C 
ATOM      8  C   UNL     1       2.107   2.138  19.602  0.00  0.00    +0.000 C 
ATOM      9  C   UNL     1       1.005   2.427  18.576  0.00  0.00    +0.000 C 
ATOM     10  C   UNL     1       1.312   3.814  18.014  0.00  0.00    +0.000 C 
ATOM     11  N   UNL     1       2.740   3.910  18.244  0.00  0.00    +0.000 NA
ATOM     12  H   UNL     1       6.285   4.001  19.385  0.00  0.00    +0.000 HD
ENDROOT
BRANCH   1  17
ATOM     13  C   UNL     1       1.802   7.830  20.187  0.00  0.00    +0.000 A 
ATOM     14  C   UNL     1       1.716   8.900  19.297  0.00  0.00    +0.000 A 
ATOM     15  C   UNL     1       2.177   8.772  17.990  0.00  0.00    +0.000 A 
ATOM     16  C   UNL     1       2.714   7.558  17.560  0.00  0.00    +0.000 A 
ATOM     17  C   UNL     1       2.814   6.462  18.435  0.00  0.00    +0.000 A 
ATOM     18  C   UNL     1       2.368   6.623  19.760  0.00  0.00    +0.000 A 
BRANCH  13  20
ATOM     19  C   UNL     1       0.156   8.926  21.515  0.00  0.00    +0.000 C 
ATOM     20  O   UNL     1       1.299   8.087  21.433  0.00  0.00    +0.000 OA
ENDBRANCH  13  20
ENDBRANCH   1  17
TORSDOF 2
ENDMDL
MODEL 4
REMARK VINA RESULT:      -7.4      2.325      3.192
REMARK  Name = 
REMARK  3 active torsions:
REMARK  status: ('A' for Active; 'I' for Inactive)
REMARK    1  A    between atoms: C_1  and  O_2
REMARK    2  A    between atoms: O_2  and  C_3
REMARK    3  A    between atoms: C_7  and  C_8
REMARK                            x       y       z     vdW  Elec       q    Type
REMARK                         _______ _______ _______ _____ _____    ______ ____
ROOT
ATOM      1  C   UNL     1       3.351   3.811  17.990  0.00  0.00    +0.000 C 
ATOM      2  C   UNL     1       3.277   2.459  18.747  0.00  0.00    +0.000 C 
ATOM      3  O   UNL     1       3.411   1.371  18.183  0.00  0.00    +0.000 OA
ATOM      4  N   UNL     1       3.050   2.494  20.108  0.00  0.00    +0.000 N 
ATOM      5  C   UNL     1       2.653   3.598  20.832  0.00  0.00    +0.000 C 
ATOM      6  O   UNL     1       2.148   3.479  21.944  0.00  0.00    +0.000 OA
ATOM      7  C   UNL     1       2.967   4.932  20.166  0.00  0.00    +0.000 C 
ATOM      8  C   UNL     1       2.118   6.108  20.626  0.00  0.00    +0.000 C 
ATOM      9  C   UNL     1       1.895   6.945  19.361  0.00  0.00    +0.000 C 
ATOM     10  C   UNL     1       2.624   6.208  18.239  0.00  0.00    +0.000 C 
ATOM     11  N   UNL     1       2.638   4.850  18.747  0.00  0.00    +0.000 NA
ATOM     12  H   UNL     1       2.893   1.595  20.541  0.00  0.00    +0.000 HD
ENDROOT
BRANCH   1  17
ATOM     13  C   UNL     1       6.452   4.465  15.790  0.00  0.00    +0.000 A 
ATOM     14  C   UNL     1       7.403   4.749  16.770  0.00  0.00    +0.000 A 
ATOM     15  C   UNL     1       7.056   4.734  18.118  0.00  0.00    +0.000 A 
ATOM     16  C   UNL     1       5.750   4.416  18.494  0.00  0.00    +0.000 A 
ATOM     17  C   UNL     1       4.770   4.126  17.528  0.00  0.00    +0.000 A 
ATOM     18  C   UNL     1       5.136   4.176  16.170  0.00  0.00    +0.000 A 
BRANCH  13  20
ATOM     19  C   UNL     1       6.175   3.826  13.512  0.00  0.00    +0.000 C 
ATOM     20  O   UNL     1       6.931   4.499  14.509  0.00  0.00    +0.000 OA
ENDBRANCH  13  20
ENDBRANCH   1  17
TORSDOF 2
ENDMDL
MODEL 5
REMARK VINA RESULT:      -7.3      2.634      3.984
REMARK  Name = 
REMARK  3 active torsions:
REMARK  status: ('A' for Active; 'I' for Inactive)
REMARK    1  A    between atoms: C_1  and  O_2
REMARK    2  A    between atoms: O_2  and  C_3
REMARK    3  A    between atoms: C_7  and  C_8
REMARK                            x       y       z     vdW  Elec       q    Type
REMARK                         _______ _______ _______ _____ _____    ______ ____
ROOT
ATOM      1  C   UNL     1       3.451   5.040  17.973  0.00  0.00    +0.000 C 
ATOM      2  C   UNL     1       4.951   4.896  18.341  0.00  0.00    +0.000 C 
ATOM      3  O   UNL     1       5.833   5.587  17.827  0.00  0.00    +0.000 OA
ATOM      4  N   UNL     1       5.294   3.951  19.286  0.00  0.00    +0.000 N 
ATOM      5  C   UNL     1       4.470   2.959  19.773  0.00  0.00    +0.000 C 
ATOM      6  O   UNL     1       4.930   1.969  20.334  0.00  0.00    +0.000 OA
ATOM      7  C   UNL     1       2.982   3.246  19.616  0.00  0.00    +0.000 C 
ATOM      8  C   UNL     1       2.075   2.024  19.633  0.00  0.00    +0.000 C 
ATOM      9  C   UNL     1       0.974   2.343  18.615  0.00  0.00    +0.000 C 
ATOM     10  C   UNL     1       1.305   3.728  18.063  0.00  0.00    +0.000 C 
ATOM     11  N   UNL     1       2.735   3.795  18.287  0.00  0.00    +0.000 NA
ATOM     12  H   UNL     1       6.286   3.809  19.412  0.00  0.00    +0.000 HD
ENDROOT
BRANCH   1  17
ATOM     13  C   UNL     1       2.176   8.673  18.225  0.00  0.00    +0.000 A 
ATOM     14  C   UNL     1       1.724   8.691  19.543  0.00  0.00    +0.000 A 
ATOM     15  C   UNL     1       1.824   7.556  20.342  0.00  0.00    +0.000 A 
ATOM     16  C   UNL     1       2.395   6.392  19.825  0.00  0.00    +0.000 A 
ATOM     17  C   UNL     1       2.859   6.343  18.498  0.00  0.00    +0.000 A 
ATOM     18  C   UNL     1       2.722   7.494  17.701  0.00  0.00    +0.000 A 
BRANCH  13  20
ATOM     19  C   UNL     1       1.688  11.002  18.329  0.00  0.00    +0.000 C 
ATOM     20  O   UNL     1       2.033   9.859  17.559  0.00  0.00    +0.000 OA
ENDBRANCH  13  20
ENDBRANCH   1  17
TORSDOF 2
ENDMDL
MODEL 6
REMARK VINA RESULT:      -7.2      2.612      4.239
REMARK  Name = 
REMARK  3 active torsions:
REMARK  status: ('A' for Active; 'I' for Inactive)
REMARK    1  A    between atoms: C_1  and  O_2
REMARK    2  A    between atoms: O_2  and  C_3
REMARK    3  A    between atoms: C_7  and  C_8
REMARK                            x       y       z     vdW  Elec       q    Type
REMARK                         _______ _______ _______ _____ _____    ______ ____
ROOT
ATOM      1  C   UNL     1       4.832   4.010  18.360  0.00  0.00    +0.000 C 
ATOM      2  C   UNL     1       5.096   5.107  19.424  0.00  0.00    +0.000 C 
ATOM      3  O   UNL     1       6.232   5.473  19.736  0.00  0.00    +0.000 OA
ATOM      4  N   UNL     1       4.004   5.687  20.036  0.00  0.00    +0.000 N 
ATOM      5  C   UNL     1       2.705   5.231  19.969  0.00  0.00    +0.000 C 
ATOM      6  O   UNL     1       1.866   5.580  20.794  0.00  0.00    +0.000 OA
ATOM      7  C   UNL     1       2.411   4.346  18.764  0.00  0.00    +0.000 C 
ATOM      8  C   UNL     1       1.214   3.419  18.910  0.00  0.00    +0.000 C 
ATOM      9  C   UNL     1       1.628   2.132  18.186  0.00  0.00    +0.000 C 
ATOM     10  C   UNL     1       3.041   2.384  17.664  0.00  0.00    +0.000 C 
ATOM     11  N   UNL     1       3.511   3.405  18.579  0.00  0.00    +0.000 NA
ATOM     12  H   UNL     1       4.221   6.309  20.802  0.00  0.00    +0.000 HD
ENDROOT
BRANCH   1  17
ATOM     13  C   UNL     1       5.964   4.133  14.673  0.00  0.00    +0.000 A 
ATOM     14  C   UNL     1       5.699   5.468  14.372  0.00  0.00    +0.000 A 
ATOM     15  C   UNL     1       5.164   6.319  15.334  0.00  0.00    +0.000 A 
ATOM     16  C   UNL     1       4.903   5.836  16.618  0.00  0.00    +0.000 A 
ATOM     17  C   UNL     1       5.159   4.494  16.951  0.00  0.00    +0.000 A 
ATOM     18  C   UNL     1       5.674   3.646  15.953  0.00  0.00    +0.000 A 
BRANCH  13  20
ATOM     19  C   UNL     1       5.769   3.365  12.427  0.00  0.00    +0.000 C 
ATOM     20  O   UNL     1       6.504   3.415  13.642  0.00  0.00    +0.000 OA
ENDBRANCH  13  20
ENDBRANCH   1  17
TORSDOF 2
ENDMDL
MODEL 7
REMARK VINA RESULT:      -7.1      2.140      4.862
REMARK  Name = 
REMARK  3 active torsions:
REMARK  status: ('A' for Active; 'I' for Inactive)
REMARK    1  A    between atoms: C_1  and  O_2
REMARK    2  A    between atoms: O_2  and  C_3
REMARK    3  A    between atoms: C_7  and  C_8
REMARK                            x       y       z     vdW  Elec       q    Type
REMARK                         _______ _______ _______ _____ _____    ______ ____
ROOT
ATOM      1  C   UNL     1       4.857   4.155  18.440  0.00  0.00    +0.000 C 
ATOM      2  C   UNL     1       4.346   3.650  17.066  0.00  0.00    +0.000 C 
ATOM      3  O   UNL     1       3.602   2.673  16.948  0.00  0.00    +0.000 OA
ATOM      4  N   UNL     1       4.750   4.334  15.937  0.00  0.00    +0.000 N 
ATOM      5  C   UNL     1       5.749   5.283  15.883  0.00  0.00    +0.000 C 
ATOM      6  O   UNL     1       6.277   5.588  14.819  0.00  0.00    +0.000 OA
ATOM      7  C   UNL     1       6.060   5.944  17.220  0.00  0.00    +0.000 C 
ATOM      8  C   UNL     1       7.442   6.571  17.334  0.00  0.00    +0.000 C 
ATOM      9  C   UNL     1       7.873   6.301  18.780  0.00  0.00    +0.000 C 
ATOM     10  C   UNL     1       6.720   5.532  19.422  0.00  0.00    +0.000 C 
ATOM     11  N   UNL     1       6.095   4.925  18.264  0.00  0.00    +0.000 NA
ATOM     12  H   UNL     1       4.493   3.906  15.060  0.00  0.00    +0.000 HD
ENDROOT
BRANCH   1  17
ATOM     13  C   UNL     1       2.303   6.678  19.858  0.00  0.00    +0.000 A 
ATOM     14  C   UNL     1       1.653   5.878  20.797  0.00  0.00    +0.000 A 
ATOM     15  C   UNL     1       2.024   4.549  20.974  0.00  0.00    +0.000 A 
ATOM     16  C   UNL     1       3.068   4.014  20.216  0.00  0.00    +0.000 A 
ATOM     17  C   UNL     1       3.742   4.795  19.261  0.00  0.00    +0.000 A 
ATOM     18  C   UNL     1       3.330   6.128  19.079  0.00  0.00    +0.000 A 
BRANCH  13  20
ATOM     19  C   UNL     1       1.216   8.489  20.957  0.00  0.00    +0.000 C 
ATOM     20  O   UNL     1       1.850   7.966  19.798  0.00  0.00    +0.000 OA
ENDBRANCH  13  20
ENDBRANCH   1  17
TORSDOF 2
ENDMDL
MODEL 8
REMARK VINA RESULT:      -7.0      1.978      4.639
REMARK  Name = 
REMARK  3 active torsions:
REMARK  status: ('A' for Active; 'I' for Inactive)
REMARK    1  A    between atoms: C_1  and  O_2
REMARK    2  A    between atoms: O_2  and  C_3
REMARK    3  A    between atoms: C_7  and  C_8
REMARK                            x       y       z     vdW  Elec       q    Type
REMARK                         _______ _______ _______ _____ _____    ______ ____
ROOT
ATOM      1  C   UNL     1       4.821   3.844  18.925  0.00  0.00    +0.000 C 
ATOM      2  C   UNL     1       4.352   2.964  17.737  0.00  0.00    +0.000 C 
ATOM      3  O   UNL     1       3.599   1.998  17.879  0.00  0.00    +0.000 OA
ATOM      4  N   UNL     1       4.808   3.289  16.475  0.00  0.00    +0.000 N 
ATOM      5  C   UNL     1       5.822   4.178  16.187  0.00  0.00    +0.000 C 
ATOM      6  O   UNL     1       6.393   4.159  15.102  0.00  0.00    +0.000 OA
ATOM      7  C   UNL     1       6.094   5.197  17.286  0.00  0.00    +0.000 C 
ATOM      8  C   UNL     1       7.481   5.825  17.267  0.00  0.00    +0.000 C 
ATOM      9  C   UNL     1       7.855   5.984  18.745  0.00  0.00    +0.000 C 
ATOM     10  C   UNL     1       6.668   5.439  19.538  0.00  0.00    +0.000 C 
ATOM     11  N   UNL     1       6.077   4.525  18.581  0.00  0.00    +0.000 NA
ATOM     12  H   UNL     1       4.576   2.625  15.750  0.00  0.00    +0.000 HD
ENDROOT
BRANCH   1  17
ATOM     13  C   UNL     1       2.375   6.758  19.570  0.00  0.00    +0.000 A 
ATOM     14  C   UNL     1       1.551   6.187  20.539  0.00  0.00    +0.000 A 
ATOM     15  C   UNL     1       1.773   4.885  20.979  0.00  0.00    +0.000 A 
ATOM     16  C   UNL     1       2.839   4.150  20.459  0.00  0.00    +0.000 A 
ATOM     17  C   UNL     1       3.686   4.699  19.480  0.00  0.00    +0.000 A 
ATOM     18  C   UNL     1       3.426   6.006  19.030  0.00  0.00    +0.000 A 
BRANCH  13  20
ATOM     19  C   UNL     1       2.238   8.440  17.889  0.00  0.00    +0.000 C 
ATOM     20  O   UNL     1       2.056   8.047  19.242  0.00  0.00    +0.000 OA
ENDBRANCH  13  20
ENDBRANCH   1  17
TORSDOF 2
ENDMDL
MODEL 9
REMARK VINA RESULT:      -7.0      2.175      4.457
REMARK  Name = 
REMARK  3 active torsions:
REMARK  status: ('A' for Active; 'I' for Inactive)
REMARK    1  A    between atoms: C_1  and  O_2
REMARK    2  A    between atoms: O_2  and  C_3
REMARK    3  A    between atoms: C_7  and  C_8
REMARK                            x       y       z     vdW  Elec       q    Type
REMARK                         _______ _______ _______ _____ _____    ______ ____
ROOT
ATOM      1  C   UNL     1       4.093   4.510  18.649  0.00  0.00    +0.000 C 
ATOM      2  C   UNL     1       3.473   3.679  17.495  0.00  0.00    +0.000 C 
ATOM      3  O   UNL     1       2.403   3.077  17.608  0.00  0.00    +0.000 OA
ATOM      4  N   UNL     1       4.160   3.623  16.300  0.00  0.00    +0.000 N 
ATOM      5  C   UNL     1       5.457   4.041  16.094  0.00  0.00    +0.000 C 
ATOM      6  O   UNL     1       6.103   3.653  15.126  0.00  0.00    +0.000 OA
ATOM      7  C   UNL     1       5.960   5.055  17.114  0.00  0.00    +0.000 C 
ATOM      8  C   UNL     1       7.472   5.142  17.260  0.00  0.00    +0.000 C 
ATOM      9  C   UNL     1       7.705   5.386  18.756  0.00  0.00    +0.000 C 
ATOM     10  C   UNL     1       6.316   5.424  19.393  0.00  0.00    +0.000 C 
ATOM     11  N   UNL     1       5.543   4.642  18.450  0.00  0.00    +0.000 NA
ATOM     12  H   UNL     1       3.783   2.981  15.617  0.00  0.00    +0.000 HD
ENDROOT
BRANCH   1  17
ATOM     13  C   UNL     1       2.438   7.975  18.265  0.00  0.00    +0.000 A 
ATOM     14  C   UNL     1       1.794   8.085  19.497  0.00  0.00    +0.000 A 
ATOM     15  C   UNL     1       1.886   7.064  20.438  0.00  0.00    +0.000 A 
ATOM     16  C   UNL     1       2.642   5.925  20.154  0.00  0.00    +0.000 A 
ATOM     17  C   UNL     1       3.302   5.785  18.920  0.00  0.00    +0.000 A 
ATOM     18  C   UNL     1       3.172   6.818  17.973  0.00  0.00    +0.000 A 
BRANCH  13  20
ATOM     19  C   UNL     1       1.718  10.231  18.011  0.00  0.00    +0.000 C 
ATOM     20  O   UNL     1       2.279   9.056  17.443  0.00  0.00    +0.000 OA
ENDBRANCH  13  20
ENDBRANCH   1  17
TORSDOF 2
ENDMDL
