MODEL 1
REMARK VINA RESULT:      -8.4      0.000      0.000
REMARK  Name = 
REMARK  6 active torsions:
REMARK  status: ('A' for Active; 'I' for Inactive)
REMARK    1  A    between atoms: C_2  and  C_3
REMARK    2  A    between atoms: C_3  and  O_4
REMARK    3  A    between atoms: O_4  and  C_5
REMARK    4  A    between atoms: C_5  and  C_6
REMARK    5  A    between atoms: C_8  and  C_9
REMARK    6  A    between atoms: N_18  and  C_19
REMARK                            x       y       z     vdW  Elec       q    Type
REMARK                         _______ _______ _______ _____ _____    ______ ____
ROOT
ATOM      1  O   UNL     1       7.300   5.710  16.140  0.00  0.00    +0.000 OA
ENDROOT
BRANCH   1   2
ATOM      2  C   UNL     1       6.914   4.433  16.634  0.00  0.00    +0.000 C 
BRANCH   2   4
ATOM      3  O   UNL     1       4.524   4.414  16.437  0.00  0.00    +0.000 OA
ATOM      4  C   UNL     1       5.491   4.420  17.192  0.00  0.00    +0.000 C 
ATOM      5  N   UNL     1       5.450   4.383  18.575  0.00  0.00    +0.000 N 
ATOM      6  H   UNL     1       6.319   4.565  19.069  0.00  0.00    +0.000 HD
BRANCH   5   7
ATOM      7  C   UNL     1       4.294   4.243  19.372  0.00  0.00    +0.000 A 
ATOM      8  C   UNL     1       3.434   5.298  19.674  0.00  0.00    +0.000 A 
ATOM      9  C   UNL     1       2.330   5.077  20.494  0.00  0.00    +0.000 A 
ATOM     10  F   UNL     1       1.509   6.096  20.778  0.00  0.00    +0.000 F 
ATOM     11  C   UNL     1       2.061   3.818  21.023  0.00  0.00    +0.000 A 
ATOM     12  C   UNL     1       2.895   2.752  20.703  0.00  0.00    +0.000 A 
ATOM     13  C   UNL     1       3.994   2.968  19.872  0.00  0.00    +0.000 A 
ATOM     14  F   UNL     1       4.793   1.933  19.570  0.00  0.00    +0.000 F 
ENDBRANCH   5   7
ENDBRANCH   2   4
ENDBRANCH   1   2
BRANCH   1  15
ATOM     15  C   UNL     1       6.572   6.768  16.791  0.00  0.00    +0.000 C 
BRANCH  15  16
ATOM     16  C   UNL     1       7.479   7.625  17.599  0.00  0.00    +0.000 A 
ATOM     17  C   UNL     1       7.720   9.006  17.436  0.00  0.00    +0.000 A 
ATOM     18  C   UNL     1       8.602   9.330  18.440  0.00  0.00    +0.000 A 
ATOM     19  O   UNL     1       8.868   8.202  19.162  0.00  0.00    +0.000 OA
ATOM     20  N   UNL     1       8.162   7.131  18.639  0.00  0.00    +0.000 NA
BRANCH  18  21
ATOM     21  C   UNL     1       9.268  10.557  18.852  0.00  0.00    +0.000 A 
ATOM     22  C   UNL     1       9.387  11.627  17.948  0.00  0.00    +0.000 A 
ATOM     23  C   UNL     1      10.055  12.797  18.307  0.00  0.00    +0.000 A 
ATOM     24  C   UNL     1      10.606  12.911  19.576  0.00  0.00    +0.000 A 
ATOM     25  F   UNL     1      11.260  14.028  19.914  0.00  0.00    +0.000 F 
ATOM     26  C   UNL     1      10.490  11.877  20.496  0.00  0.00    +0.000 A 
ATOM     27  C   UNL     1       9.820  10.703  20.136  0.00  0.00    +0.000 A 
ENDBRANCH  18  21
ENDBRANCH  15  16
ENDBRANCH   1  15
TORSDOF 6
ENDMDL
MODEL 2
REMARK VINA RESULT:      -8.4      1.241      1.543
REMARK  Name = 
REMARK  6 active torsions:
REMARK  status: ('A' for Active; 'I' for Inactive)
REMARK    1  A    between atoms: C_2  and  C_3
REMARK    2  A    between atoms: C_3  and  O_4
REMARK    3  A    between atoms: O_4  and  C_5
REMARK    4  A    between atoms: C_5  and  C_6
REMARK    5  A    between atoms: C_8  and  C_9
REMARK    6  A    between atoms: N_18  and  C_19
REMARK                            x       y       z     vdW  Elec       q    Type
REMARK                         _______ _______ _______ _____ _____    ______ ____
ROOT
ATOM      1  O   UNL     1       6.776   5.843  15.887  0.00  0.00    +0.000 OA
ENDROOT
BRANCH   1   2
ATOM      2  C   UNL     1       6.457   4.480  16.139  0.00  0.00    +0.000 C 
BRANCH   2   4
ATOM      3  O   UNL     1       6.154   4.150  18.495  0.00  0.00    +0.000 OA
ATOM      4  C   UNL     1       5.617   4.293  17.401  0.00  0.00    +0.000 C 
ATOM      5  N   UNL     1       4.254   4.337  17.159  0.00  0.00    +0.000 N 
ATOM      6  H   UNL     1       3.955   4.288  16.190  0.00  0.00    +0.000 HD
BRANCH   5   7
ATOM      7  C   UNL     1       3.233   4.316  18.132  0.00  0.00    +0.000 A 
ATOM      8  C   UNL     1       3.024   5.343  19.052  0.00  0.00    +0.000 A 
ATOM      9  C   UNL     1       2.008   5.227  20.000  0.00  0.00    +0.000 A 
ATOM     10  F   UNL     1       1.814   6.218  20.878  0.00  0.00    +0.000 F 
ATOM     11  C   UNL     1       1.190   4.102  20.050  0.00  0.00    +0.000 A 
ATOM     12  C   UNL     1       1.370   3.086  19.116  0.00  0.00    +0.000 A 
ATOM     13  C   UNL     1       2.377   3.206  18.160  0.00  0.00    +0.000 A 
ATOM     14  F   UNL     1       2.543   2.220  17.264  0.00  0.00    +0.000 F 
ENDBRANCH   5   7
ENDBRANCH   2   4
ENDBRANCH   1   2
BRANCH   1  15
ATOM     15  C   UNL     1       6.177   6.713  16.866  0.00  0.00    +0.000 C 
BRANCH  15  16
ATOM     16  C   UNL     1       7.213   7.478  17.610  0.00  0.00    +0.000 A 
ATOM     17  C   UNL     1       7.496   8.857  17.506  0.00  0.00    +0.000 A 
ATOM     18  C   UNL     1       8.506   9.077  18.413  0.00  0.00    +0.000 A 
ATOM     19  O   UNL     1       8.805   7.893  19.023  0.00  0.00    +0.000 OA
ATOM     20  N   UNL     1       7.992   6.888  18.524  0.00  0.00    +0.000 NA
BRANCH  18  21
ATOM     21  C   UNL     1       9.273  10.247  18.818  0.00  0.00    +0.000 A 
ATOM     22  C   UNL     1       9.450  10.530  20.183  0.00  0.00    +0.000 A 
ATOM     23  C   UNL     1      10.148  11.666  20.593  0.00  0.00    +0.000 A 
ATOM     24  C   UNL     1      10.678  12.527  19.641  0.00  0.00    +0.000 A 
ATOM     25  F   UNL     1      11.334  13.624  20.036  0.00  0.00    +0.000 F 
ATOM     26  C   UNL     1      10.532  12.263  18.286  0.00  0.00    +0.000 A 
ATOM     27  C   UNL     1       9.833  11.124  17.874  0.00  0.00    +0.000 A 
ENDBRANCH  18  21
ENDBRANCH  15  16
ENDBRANCH   1  15
TORSDOF 6
ENDMDL
MODEL 3
REMARK VINA RESULT:      -8.0      1.631      1.954
REMARK  Name = 
REMARK  6 active torsions:
REMARK  status: ('A' for Active; 'I' for Inactive)
REMARK    1  A    between atoms: C_2  and  C_3
REMARK    2  A    between atoms: C_3  and  O_4
REMARK    3  A    between atoms: O_4  and  C_5
REMARK    4  A    between atoms: C_5  and  C_6
REMARK    5  A    between atoms: C_8  and  C_9
REMARK    6  A    between atoms: N_18  and  C_19
REMARK                            x       y       z     vdW  Elec       q    Type
REMARK                         _______ _______ _______ _____ _____    ______ ____
ROOT
ATOM      1  O   UNL     1       6.733   6.288  15.994  0.00  0.00    +0.000 OA
ENDROOT
BRANCH   1   2
ATOM      2  C   UNL     1       5.466   5.866  15.507  0.00  0.00    +0.000 C 
BRANCH   2   4
ATOM      3  O   UNL     1       5.433   3.548  16.118  0.00  0.00    +0.000 OA
ATOM      4  C   UNL     1       4.917   4.653  16.256  0.00  0.00    +0.000 C 
ATOM      5  N   UNL     1       3.851   4.961  17.083  0.00  0.00    +0.000 N 
ATOM      6  H   UNL     1       3.424   5.875  16.967  0.00  0.00    +0.000 HD
BRANCH   5   7
ATOM      7  C   UNL     1       3.216   4.083  17.987  0.00  0.00    +0.000 A 
ATOM      8  C   UNL     1       1.960   3.519  17.759  0.00  0.00    +0.000 A 
ATOM      9  C   UNL     1       1.393   2.684  18.719  0.00  0.00    +0.000 A 
ATOM     10  F   UNL     1       0.188   2.146  18.491  0.00  0.00    +0.000 F 
ATOM     11  C   UNL     1       2.053   2.395  19.910  0.00  0.00    +0.000 A 
ATOM     12  C   UNL     1       3.319   2.928  20.133  0.00  0.00    +0.000 A 
ATOM     13  C   UNL     1       3.895   3.753  19.168  0.00  0.00    +0.000 A 
ATOM     14  F   UNL     1       5.116   4.262  19.393  0.00  0.00    +0.000 F 
ENDBRANCH   5   7
ENDBRANCH   2   4
ENDBRANCH   1   2
BRANCH   1  15
ATOM     15  C   UNL     1       6.761   6.316  17.433  0.00  0.00    +0.000 C 
BRANCH  15  16
ATOM     16  C   UNL     1       7.609   7.429  17.933  0.00  0.00    +0.000 A 
ATOM     17  C   UNL     1       7.621   8.766  17.478  0.00  0.00    +0.000 A 
ATOM     18  C   UNL     1       8.547   9.399  18.275  0.00  0.00    +0.000 A 
ATOM     19  O   UNL     1       9.055   8.488  19.155  0.00  0.00    +0.000 OA
ATOM     20  N   UNL     1       8.466   7.252  18.946  0.00  0.00    +0.000 NA
BRANCH  18  21
ATOM     21  C   UNL     1       9.061  10.759  18.351  0.00  0.00    +0.000 A 
ATOM     22  C   UNL     1      10.162  11.046  19.177  0.00  0.00    +0.000 A 
ATOM     23  C   UNL     1      10.647  12.348  19.295  0.00  0.00    +0.000 A 
ATOM     24  C   UNL     1      10.039  13.375  18.586  0.00  0.00    +0.000 A 
ATOM     25  F   UNL     1      10.497  14.625  18.712  0.00  0.00    +0.000 F 
ATOM     26  C   UNL     1       8.961  13.118  17.749  0.00  0.00    +0.000 A 
ATOM     27  C   UNL     1       8.474  11.812  17.630  0.00  0.00    +0.000 A 
ENDBRANCH  18  21
ENDBRANCH  15  16
ENDBRANCH   1  15
TORSDOF 6
ENDMDL
MODEL 4
REMARK VINA RESULT:      -7.9      1.774      9.319
REMARK  Name = 
REMARK  6 active torsions:
REMARK  status: ('A' for Active; 'I' for Inactive)
REMARK    1  A    between atoms: C_2  and  C_3
REMARK    2  A    between atoms: C_3  and  O_4
REMARK    3  A    between atoms: O_4  and  C_5
REMARK    4  A    between atoms: C_5  and  C_6
REMARK    5  A    between atoms: C_8  and  C_9
REMARK    6  A    between atoms: N_18  and  C_19
REMARK                            x       y       z     vdW  Elec       q    Type
REMARK                         _______ _______ _______ _____ _____    ______ ____
ROOT
ATOM      1  O   UNL     1       7.717   6.295  17.273  0.00  0.00    +0.000 OA
ENDROOT
BRANCH   1   2
ATOM      2  C   UNL     1       7.255   7.640  17.266  0.00  0.00    +0.000 C 
BRANCH   2   4
ATOM      3  O   UNL     1       8.796   8.131  19.037  0.00  0.00    +0.000 OA
ATOM      4  C   UNL     1       8.131   8.570  18.104  0.00  0.00    +0.000 C 
ATOM      5  N   UNL     1       8.099   9.885  17.670  0.00  0.00    +0.000 N 
ATOM      6  H   UNL     1       7.377  10.133  17.000  0.00  0.00    +0.000 HD
BRANCH   5   7
ATOM      7  C   UNL     1       8.889  10.945  18.162  0.00  0.00    +0.000 A 
ATOM      8  C   UNL     1       9.937  10.771  19.065  0.00  0.00    +0.000 A 
ATOM      9  C   UNL     1      10.647  11.879  19.523  0.00  0.00    +0.000 A 
ATOM     10  F   UNL     1      11.653  11.701  20.389  0.00  0.00    +0.000 F 
ATOM     11  C   UNL     1      10.335  13.166  19.096  0.00  0.00    +0.000 A 
ATOM     12  C   UNL     1       9.311  13.348  18.172  0.00  0.00    +0.000 A 
ATOM     13  C   UNL     1       8.607  12.240  17.703  0.00  0.00    +0.000 A 
ATOM     14  F   UNL     1       7.621  12.426  16.811  0.00  0.00    +0.000 F 
ENDBRANCH   5   7
ENDBRANCH   2   4
ENDBRANCH   1   2
BRANCH   1  15
ATOM     15  C   UNL     1       6.983   5.483  16.338  0.00  0.00    +0.000 C 
BRANCH  15  16
ATOM     16  C   UNL     1       5.711   4.995  16.933  0.00  0.00    +0.000 A 
ATOM     17  C   UNL     1       5.489   4.597  18.269  0.00  0.00    +0.000 A 
ATOM     18  C   UNL     1       4.155   4.265  18.319  0.00  0.00    +0.000 A 
ATOM     19  O   UNL     1       3.614   4.458  17.081  0.00  0.00    +0.000 OA
ATOM     20  N   UNL     1       4.587   4.920  16.209  0.00  0.00    +0.000 NA
BRANCH  18  21
ATOM     21  C   UNL     1       3.269   3.774  19.365  0.00  0.00    +0.000 A 
ATOM     22  C   UNL     1       1.957   4.270  19.461  0.00  0.00    +0.000 A 
ATOM     23  C   UNL     1       1.103   3.842  20.477  0.00  0.00    +0.000 A 
ATOM     24  C   UNL     1       1.552   2.911  21.404  0.00  0.00    +0.000 A 
ATOM     25  F   UNL     1       0.736   2.514  22.388  0.00  0.00    +0.000 F 
ATOM     26  C   UNL     1       2.837   2.392  21.324  0.00  0.00    +0.000 A 
ATOM     27  C   UNL     1       3.693   2.820  20.305  0.00  0.00    +0.000 A 
ENDBRANCH  18  21
ENDBRANCH  15  16
ENDBRANCH   1  15
TORSDOF 6
ENDMDL
MODEL 5
REMARK VINA RESULT:      -7.9      1.159      1.550
REMARK  Name = 
REMARK  6 active torsions:
REMARK  status: ('A' for Active; 'I' for Inactive)
REMARK    1  A    between atoms: C_2  and  C_3
REMARK    2  A    between atoms: C_3  and  O_4
REMARK    3  A    between atoms: O_4  and  C_5
REMARK    4  A    between atoms: C_5  and  C_6
REMARK    5  A    between atoms: C_8  and  C_9
REMARK    6  A    between atoms: N_18  and  C_19
REMARK                            x       y       z     vdW  Elec       q    Type
REMARK                         _______ _______ _______ _____ _____    ______ ____
ROOT
ATOM      1  O   UNL     1       6.772   4.977  16.341  0.00  0.00    +0.000 OA
ENDROOT
BRANCH   1   2
ATOM      2  C   UNL     1       5.987   3.802  16.500  0.00  0.00    +0.000 C 
BRANCH   2   4
ATOM      3  O   UNL     1       3.785   4.674  16.880  0.00  0.00    +0.000 OA
ATOM      4  C   UNL     1       4.730   4.038  17.337  0.00  0.00    +0.000 C 
ATOM      5  N   UNL     1       4.789   3.445  18.586  0.00  0.00    +0.000 N 
ATOM      6  H   UNL     1       5.694   3.100  18.893  0.00  0.00    +0.000 HD
BRANCH   5   7
ATOM      7  C   UNL     1       3.743   3.385  19.532  0.00  0.00    +0.000 A 
ATOM      8  C   UNL     1       2.652   4.253  19.529  0.00  0.00    +0.000 A 
ATOM      9  C   UNL     1       1.677   4.141  20.519  0.00  0.00    +0.000 A 
ATOM     10  F   UNL     1       0.632   4.978  20.508  0.00  0.00    +0.000 F 
ATOM     11  C   UNL     1       1.767   3.177  21.519  0.00  0.00    +0.000 A 
ATOM     12  C   UNL     1       2.836   2.286  21.512  0.00  0.00    +0.000 A 
ATOM     13  C   UNL     1       3.806   2.387  20.515  0.00  0.00    +0.000 A 
ATOM     14  F   UNL     1       4.833   1.524  20.518  0.00  0.00    +0.000 F 
ENDBRANCH   5   7
ENDBRANCH   2   4
ENDBRANCH   1   2
BRANCH   1  15
ATOM     15  C   UNL     1       7.345   5.400  17.592  0.00  0.00    +0.000 C 
BRANCH  15  16
ATOM     16  C   UNL     1       7.523   6.876  17.630  0.00  0.00    +0.000 A 
ATOM     17  C   UNL     1       8.413   7.609  18.445  0.00  0.00    +0.000 A 
ATOM     18  C   UNL     1       8.219   8.921  18.084  0.00  0.00    +0.000 A 
ATOM     19  O   UNL     1       7.267   8.965  17.106  0.00  0.00    +0.000 OA
ATOM     20  N   UNL     1       6.832   7.682  16.816  0.00  0.00    +0.000 NA
BRANCH  18  21
ATOM     21  C   UNL     1       8.788  10.190  18.518  0.00  0.00    +0.000 A 
ATOM     22  C   UNL     1       9.460  10.270  19.750  0.00  0.00    +0.000 A 
ATOM     23  C   UNL     1       9.980  11.483  20.203  0.00  0.00    +0.000 A 
ATOM     24  C   UNL     1       9.834  12.625  19.427  0.00  0.00    +0.000 A 
ATOM     25  F   UNL     1      10.319  13.790  19.871  0.00  0.00    +0.000 F 
ATOM     26  C   UNL     1       9.189  12.572  18.199  0.00  0.00    +0.000 A 
ATOM     27  C   UNL     1       8.668  11.356  17.744  0.00  0.00    +0.000 A 
ENDBRANCH  18  21
ENDBRANCH  15  16
ENDBRANCH   1  15
TORSDOF 6
ENDMDL
MODEL 6
REMARK VINA RESULT:      -7.9      2.224      2.897
REMARK  Name = 
REMARK  6 active torsions:
REMARK  status: ('A' for Active; 'I' for Inactive)
REMARK    1  A    between atoms: C_2  and  C_3
REMARK    2  A    between atoms: C_3  and  O_4
REMARK    3  A    between atoms: O_4  and  C_5
REMARK    4  A    between atoms: C_5  and  C_6
REMARK    5  A    between atoms: C_8  and  C_9
REMARK    6  A    between atoms: N_18  and  C_19
REMARK                            x       y       z     vdW  Elec       q    Type
REMARK                         _______ _______ _______ _____ _____    ______ ____
ROOT
ATOM      1  O   UNL     1       6.061   4.491  18.585  0.00  0.00    +0.000 OA
ENDROOT
BRANCH   1   2
ATOM      2  C   UNL     1       5.001   4.029  17.757  0.00  0.00    +0.000 C 
BRANCH   2   4
ATOM      3  O   UNL     1       2.670   4.484  17.424  0.00  0.00    +0.000 OA
ATOM      4  C   UNL     1       3.737   4.878  17.884  0.00  0.00    +0.000 C 
ATOM      5  N   UNL     1       3.943   6.059  18.577  0.00  0.00    +0.000 N 
ATOM      6  H   UNL     1       4.906   6.333  18.748  0.00  0.00    +0.000 HD
BRANCH   5   7
ATOM      7  C   UNL     1       2.950   6.987  18.958  0.00  0.00    +0.000 A 
ATOM      8  C   UNL     1       2.592   8.092  18.187  0.00  0.00    +0.000 A 
ATOM      9  C   UNL     1       1.620   8.975  18.654  0.00  0.00    +0.000 A 
ATOM     10  F   UNL     1       1.281  10.032  17.906  0.00  0.00    +0.000 F 
ATOM     11  C   UNL     1       0.993   8.779  19.881  0.00  0.00    +0.000 A 
ATOM     12  C   UNL     1       1.321   7.663  20.644  0.00  0.00    +0.000 A 
ATOM     13  C   UNL     1       2.284   6.771  20.173  0.00  0.00    +0.000 A 
ATOM     14  F   UNL     1       2.594   5.698  20.916  0.00  0.00    +0.000 F 
ENDBRANCH   5   7
ENDBRANCH   2   4
ENDBRANCH   1   2
BRANCH   1  15
ATOM     15  C   UNL     1       7.229   4.819  17.810  0.00  0.00    +0.000 C 
BRANCH  15  16
ATOM     16  C   UNL     1       7.437   6.290  17.748  0.00  0.00    +0.000 A 
ATOM     17  C   UNL     1       8.231   7.078  18.607  0.00  0.00    +0.000 A 
ATOM     18  C   UNL     1       8.118   8.357  18.116  0.00  0.00    +0.000 A 
ATOM     19  O   UNL     1       7.301   8.329  17.022  0.00  0.00    +0.000 OA
ATOM     20  N   UNL     1       6.875   7.032  16.786  0.00  0.00    +0.000 NA
BRANCH  18  21
ATOM     21  C   UNL     1       8.657   9.651  18.512  0.00  0.00    +0.000 A 
ATOM     22  C   UNL     1       8.729  10.696  17.575  0.00  0.00    +0.000 A 
ATOM     23  C   UNL     1       9.276  11.931  17.922  0.00  0.00    +0.000 A 
ATOM     24  C   UNL     1       9.753  12.133  19.210  0.00  0.00    +0.000 A 
ATOM     25  F   UNL     1      10.293  13.313  19.536  0.00  0.00    +0.000 F 
ATOM     26  C   UNL     1       9.680  11.124  20.161  0.00  0.00    +0.000 A 
ATOM     27  C   UNL     1       9.131   9.886  19.814  0.00  0.00    +0.000 A 
ENDBRANCH  18  21
ENDBRANCH  15  16
ENDBRANCH   1  15
TORSDOF 6
ENDMDL
MODEL 7
REMARK VINA RESULT:      -7.9      5.270      7.611
REMARK  Name = 
REMARK  6 active torsions:
REMARK  status: ('A' for Active; 'I' for Inactive)
REMARK    1  A    between atoms: C_2  and  C_3
REMARK    2  A    between atoms: C_3  and  O_4
REMARK    3  A    between atoms: O_4  and  C_5
REMARK    4  A    between atoms: C_5  and  C_6
REMARK    5  A    between atoms: C_8  and  C_9
REMARK    6  A    between atoms: N_18  and  C_19
REMARK                            x       y       z     vdW  Elec       q    Type
REMARK                         _______ _______ _______ _____ _____    ______ ____
ROOT
ATOM      1  O   UNL     1       1.334   3.674  19.686  0.00  0.00    +0.000 OA
ENDROOT
BRANCH   1   2
ATOM      2  C   UNL     1       1.436   3.538  18.274  0.00  0.00    +0.000 C 
BRANCH   2   4
ATOM      3  O   UNL     1       3.326   2.140  17.799  0.00  0.00    +0.000 OA
ATOM      4  C   UNL     1       2.867   3.278  17.806  0.00  0.00    +0.000 C 
ATOM      5  N   UNL     1       3.519   4.425  17.386  0.00  0.00    +0.000 N 
ATOM      6  H   UNL     1       3.080   5.315  17.608  0.00  0.00    +0.000 HD
BRANCH   5   7
ATOM      7  C   UNL     1       4.797   4.489  16.791  0.00  0.00    +0.000 A 
ATOM      8  C   UNL     1       5.014   4.369  15.419  0.00  0.00    +0.000 A 
ATOM      9  C   UNL     1       6.314   4.414  14.918  0.00  0.00    +0.000 A 
ATOM     10  F   UNL     1       6.513   4.299  13.599  0.00  0.00    +0.000 F 
ATOM     11  C   UNL     1       7.409   4.578  15.761  0.00  0.00    +0.000 A 
ATOM     12  C   UNL     1       7.201   4.730  17.128  0.00  0.00    +0.000 A 
ATOM     13  C   UNL     1       5.900   4.698  17.630  0.00  0.00    +0.000 A 
ATOM     14  F   UNL     1       5.710   4.844  18.950  0.00  0.00    +0.000 F 
ENDBRANCH   5   7
ENDBRANCH   2   4
ENDBRANCH   1   2
BRANCH   1  15
ATOM     15  C   UNL     1       2.419   4.455  20.219  0.00  0.00    +0.000 C 
BRANCH  15  16
ATOM     16  C   UNL     1       2.071   5.899  20.263  0.00  0.00    +0.000 A 
ATOM     17  C   UNL     1       1.200   6.542  21.170  0.00  0.00    +0.000 A 
ATOM     18  C   UNL     1       1.240   7.870  20.814  0.00  0.00    +0.000 A 
ATOM     19  O   UNL     1       2.089   8.008  19.754  0.00  0.00    +0.000 OA
ATOM     20  N   UNL     1       2.615   6.774  19.408  0.00  0.00    +0.000 NA
BRANCH  18  21
ATOM     21  C   UNL     1       0.590   9.075  21.309  0.00  0.00    +0.000 A 
ATOM     22  C   UNL     1       0.004   9.080  22.587  0.00  0.00    +0.000 A 
ATOM     23  C   UNL     1      -0.657  10.210  23.067  0.00  0.00    +0.000 A 
ATOM     24  C   UNL     1      -0.734  11.348  22.275  0.00  0.00    +0.000 A 
ATOM     25  F   UNL     1      -1.383  12.426  22.730  0.00  0.00    +0.000 F 
ATOM     26  C   UNL     1      -0.150  11.377  21.015  0.00  0.00    +0.000 A 
ATOM     27  C   UNL     1       0.513  10.244  20.534  0.00  0.00    +0.000 A 
ENDBRANCH  18  21
ENDBRANCH  15  16
ENDBRANCH   1  15
TORSDOF 6
ENDMDL
MODEL 8
REMARK VINA RESULT:      -7.8      2.247      9.979
REMARK  Name = 
REMARK  6 active torsions:
REMARK  status: ('A' for Active; 'I' for Inactive)
REMARK    1  A    between atoms: C_2  and  C_3
REMARK    2  A    between atoms: C_3  and  O_4
REMARK    3  A    between atoms: O_4  and  C_5
REMARK    4  A    between atoms: C_5  and  C_6
REMARK    5  A    between atoms: C_8  and  C_9
REMARK    6  A    between atoms: N_18  and  C_19
REMARK                            x       y       z     vdW  Elec       q    Type
REMARK                         _______ _______ _______ _____ _____    ______ ____
ROOT
ATOM      1  O   UNL     1       7.489   8.483  18.249  0.00  0.00    +0.000 OA
ENDROOT
BRANCH   1   2
ATOM      2  C   UNL     1       8.389   9.372  17.600  0.00  0.00    +0.000 C 
BRANCH   2   4
ATOM      3  O   UNL     1       9.239  10.049  19.738  0.00  0.00    +0.000 OA
ATOM      4  C   UNL     1       9.048  10.357  18.565  0.00  0.00    +0.000 C 
ATOM      5  N   UNL     1       9.407  11.550  17.963  0.00  0.00    +0.000 N 
ATOM      6  H   UNL     1       9.035  11.732  17.035  0.00  0.00    +0.000 HD
BRANCH   5   7
ATOM      7  C   UNL     1      10.137  12.600  18.561  0.00  0.00    +0.000 A 
ATOM      8  C   UNL     1       9.551  13.775  19.030  0.00  0.00    +0.000 A 
ATOM      9  C   UNL     1      10.350  14.775  19.581  0.00  0.00    +0.000 A 
ATOM     10  F   UNL     1       9.779  15.899  20.030  0.00  0.00    +0.000 F 
ATOM     11  C   UNL     1      11.731  14.627  19.676  0.00  0.00    +0.000 A 
ATOM     12  C   UNL     1      12.322  13.445  19.239  0.00  0.00    +0.000 A 
ATOM     13  C   UNL     1      11.522  12.439  18.699  0.00  0.00    +0.000 A 
ATOM     14  F   UNL     1      12.102  11.303  18.281  0.00  0.00    +0.000 F 
ENDBRANCH   5   7
ENDBRANCH   2   4
ENDBRANCH   1   2
BRANCH   1  15
ATOM     15  C   UNL     1       7.938   7.118  18.153  0.00  0.00    +0.000 C 
BRANCH  15  16
ATOM     16  C   UNL     1       6.886   6.173  18.610  0.00  0.00    +0.000 A 
ATOM     17  C   UNL     1       5.626   5.944  18.016  0.00  0.00    +0.000 A 
ATOM     18  C   UNL     1       5.045   4.966  18.789  0.00  0.00    +0.000 A 
ATOM     19  O   UNL     1       5.914   4.631  19.787  0.00  0.00    +0.000 OA
ATOM     20  N   UNL     1       7.072   5.384  19.675  0.00  0.00    +0.000 NA
BRANCH  18  21
ATOM     21  C   UNL     1       3.766   4.270  18.758  0.00  0.00    +0.000 A 
ATOM     22  C   UNL     1       3.501   3.251  19.688  0.00  0.00    +0.000 A 
ATOM     23  C   UNL     1       2.298   2.545  19.653  0.00  0.00    +0.000 A 
ATOM     24  C   UNL     1       1.349   2.855  18.689  0.00  0.00    +0.000 A 
ATOM     25  F   UNL     1       0.203   2.166  18.646  0.00  0.00    +0.000 F 
ATOM     26  C   UNL     1       1.577   3.868  17.767  0.00  0.00    +0.000 A 
ATOM     27  C   UNL     1       2.782   4.576  17.803  0.00  0.00    +0.000 A 
ENDBRANCH  18  21
ENDBRANCH  15  16
ENDBRANCH   1  15
TORSDOF 6
ENDMDL
MODEL 9
REMARK VINA RESULT:      -7.8      6.221      9.080
REMARK  Name = 
REMARK  6 active torsions:
REMARK  status: ('A' for Active; 'I' for Inactive)
REMARK    1  A    between atoms: C_2  and  C_3
REMARK    2  A    between atoms: C_3  and  O_4
REMARK    3  A    between atoms: O_4  and  C_5
REMARK    4  A    between atoms: C_5  and  C_6
REMARK    5  A    between atoms: C_8  and  C_9
REMARK    6  A    between atoms: N_18  and  C_19
REMARK                            x       y       z     vdW  Elec       q    Type
REMARK                         _______ _______ _______ _____ _____    ______ ____
ROOT
ATOM      1  O   UNL     1       1.236   9.252  20.241  0.00  0.00    +0.000 OA
ENDROOT
BRANCH   1   2
ATOM      2  C   UNL     1      -0.053   9.819  20.442  0.00  0.00    +0.000 C 
BRANCH   2   4
ATOM      3  O   UNL     1       0.040  11.342  18.592  0.00  0.00    +0.000 OA
ATOM      4  C   UNL     1      -0.609  10.486  19.185  0.00  0.00    +0.000 C 
ATOM      5  N   UNL     1      -1.848   9.995  18.812  0.00  0.00    +0.000 N 
ATOM      6  H   UNL     1      -2.339   9.416  19.487  0.00  0.00    +0.000 HD
BRANCH   5   7
ATOM      7  C   UNL     1      -2.557  10.324  17.637  0.00  0.00    +0.000 A 
ATOM      8  C   UNL     1      -2.204   9.863  16.370  0.00  0.00    +0.000 A 
ATOM      9  C   UNL     1      -2.943  10.261  15.258  0.00  0.00    +0.000 A 
ATOM     10  F   UNL     1      -2.597   9.812  14.045  0.00  0.00    +0.000 F 
ATOM     11  C   UNL     1      -4.035  11.115  15.382  0.00  0.00    +0.000 A 
ATOM     12  C   UNL     1      -4.415  11.556  16.646  0.00  0.00    +0.000 A 
ATOM     13  C   UNL     1      -3.685  11.148  17.762  0.00  0.00    +0.000 A 
ATOM     14  F   UNL     1      -4.059  11.579  18.976  0.00  0.00    +0.000 F 
ENDBRANCH   5   7
ENDBRANCH   2   4
ENDBRANCH   1   2
BRANCH   1  15
ATOM     15  C   UNL     1       1.358   7.977  20.899  0.00  0.00    +0.000 C 
BRANCH  15  16
ATOM     16  C   UNL     1       2.078   6.998  20.043  0.00  0.00    +0.000 A 
ATOM     17  C   UNL     1       2.821   7.268  18.874  0.00  0.00    +0.000 A 
ATOM     18  C   UNL     1       3.308   6.045  18.477  0.00  0.00    +0.000 A 
ATOM     19  O   UNL     1       2.878   5.100  19.363  0.00  0.00    +0.000 OA
ATOM     20  N   UNL     1       2.109   5.695  20.349  0.00  0.00    +0.000 NA
BRANCH  18  21
ATOM     21  C   UNL     1       4.132   5.591  17.364  0.00  0.00    +0.000 A 
ATOM     22  C   UNL     1       4.689   6.528  16.477  0.00  0.00    +0.000 A 
ATOM     23  C   UNL     1       5.449   6.114  15.384  0.00  0.00    +0.000 A 
ATOM     24  C   UNL     1       5.662   4.759  15.169  0.00  0.00    +0.000 A 
ATOM     25  F   UNL     1       6.378   4.363  14.111  0.00  0.00    +0.000 F 
ATOM     26  C   UNL     1       5.138   3.811  16.039  0.00  0.00    +0.000 A 
ATOM     27  C   UNL     1       4.376   4.226  17.136  0.00  0.00    +0.000 A 
ENDBRANCH  18  21
ENDBRANCH  15  16
ENDBRANCH   1  15
TORSDOF 6
ENDMDL
