MODEL 1
REMARK VINA RESULT:      -7.6      0.000      0.000
REMARK  Name = 
REMARK  3 active torsions:
REMARK  status: ('A' for Active; 'I' for Inactive)
REMARK    1  A    between atoms: C_5  and  C_6
REMARK    2  A    between atoms: N_10  and  C_11
REMARK    3  A    between atoms: C_11  and  C_12
REMARK                            x       y       z     vdW  Elec       q    Type
REMARK                         _______ _______ _______ _____ _____    ______ ____
ROOT
ATOM      1  C   UNL     1       3.391   6.933  18.017  0.00  0.00    +0.000 A 
ATOM      2  C   UNL     1       4.682   7.303  17.686  0.00  0.00    +0.000 A 
ATOM      3  N   UNL     1       5.303   6.229  17.066  0.00  0.00    +0.000 N 
ATOM      4  C   UNL     1       4.385   5.290  16.885  0.00  0.00    +0.000 A 
ATOM      5  N   UNL     1       3.286   5.592  17.590  0.00  0.00    +0.000 N 
ATOM      6  S   UNL     1       4.606   3.922  15.837  0.00  0.00    +0.000 S 
ATOM      7  C   UNL     1       6.369   3.677  16.093  0.00  0.00    +0.000 C 
ATOM      8  C   UNL     1       7.221   4.929  16.002  0.00  0.00    +0.000 C 
ATOM      9  C   UNL     1       6.681   6.227  16.590  0.00  0.00    +0.000 C 
ENDROOT
BRANCH   1  14
ATOM     10 BR   UNL     1      -0.566  10.755  20.843  0.00  0.00    +0.000 Br
ATOM     11  C   UNL     1       0.599   9.558  19.962  0.00  0.00    +0.000 A 
ATOM     12  C   UNL     1       1.166   8.497  20.664  0.00  0.00    +0.000 A 
ATOM     13  C   UNL     1       2.044   7.623  20.013  0.00  0.00    +0.000 A 
ATOM     14  C   UNL     1       2.373   7.827  18.665  0.00  0.00    +0.000 A 
ATOM     15  C   UNL     1       1.771   8.875  17.964  0.00  0.00    +0.000 A 
ATOM     16  C   UNL     1       0.888   9.744  18.613  0.00  0.00    +0.000 A 
ENDBRANCH   1  14
BRANCH   5  17
ATOM     17  C   UNL     1       2.142   4.693  17.760  0.00  0.00    +0.000 C 
BRANCH  17  18
ATOM     18  C   UNL     1       2.183   3.985  19.100  0.00  0.00    +0.000 A 
ATOM     19  C   UNL     1       1.104   3.958  20.002  0.00  0.00    +0.000 A 
ATOM     20  C   UNL     1       1.201   3.273  21.216  0.00  0.00    +0.000 A 
ATOM     21  C   UNL     1       2.372   2.601  21.550  0.00  0.00    +0.000 A 
ATOM     22  C   UNL     1       3.454   2.620  20.674  0.00  0.00    +0.000 A 
ATOM     23  C   UNL     1       3.362   3.309  19.462  0.00  0.00    +0.000 A 
ENDBRANCH  17  18
ENDBRANCH   5  17
TORSDOF 3
ENDMDL
MODEL 2
REMARK VINA RESULT:      -7.6      0.056      1.006
REMARK  Name = 
REMARK  3 active torsions:
REMARK  status: ('A' for Active; 'I' for Inactive)
REMARK    1  A    between atoms: C_5  and  C_6
REMARK    2  A    between atoms: N_10  and  C_11
REMARK    3  A    between atoms: C_11  and  C_12
REMARK                            x       y       z     vdW  Elec       q    Type
REMARK                         _______ _______ _______ _____ _____    ______ ____
ROOT
ATOM      1  C   UNL     1       3.379   6.976  18.014  0.00  0.00    +0.000 A 
ATOM      2  C   UNL     1       4.665   7.351  17.672  0.00  0.00    +0.000 A 
ATOM      3  N   UNL     1       5.293   6.274  17.065  0.00  0.00    +0.000 N 
ATOM      4  C   UNL     1       4.382   5.325  16.901  0.00  0.00    +0.000 A 
ATOM      5  N   UNL     1       3.283   5.628  17.607  0.00  0.00    +0.000 N 
ATOM      6  S   UNL     1       4.609   3.943  15.872  0.00  0.00    +0.000 S 
ATOM      7  C   UNL     1       6.375   3.717  16.124  0.00  0.00    +0.000 C 
ATOM      8  C   UNL     1       7.217   4.974  16.012  0.00  0.00    +0.000 C 
ATOM      9  C   UNL     1       6.668   6.276  16.582  0.00  0.00    +0.000 C 
ENDROOT
BRANCH   1  14
ATOM     10 BR   UNL     1      -0.597  10.804  20.804  0.00  0.00    +0.000 Br
ATOM     11  C   UNL     1       0.574   9.605  19.935  0.00  0.00    +0.000 A 
ATOM     12  C   UNL     1       1.145   8.553  20.646  0.00  0.00    +0.000 A 
ATOM     13  C   UNL     1       2.027   7.677  20.003  0.00  0.00    +0.000 A 
ATOM     14  C   UNL     1       2.356   7.871  18.654  0.00  0.00    +0.000 A 
ATOM     15  C   UNL     1       1.750   8.910  17.943  0.00  0.00    +0.000 A 
ATOM     16  C   UNL     1       0.863   9.780  18.584  0.00  0.00    +0.000 A 
ENDBRANCH   1  14
BRANCH   5  17
ATOM     17  C   UNL     1       2.147   4.722  17.795  0.00  0.00    +0.000 C 
BRANCH  17  18
ATOM     18  C   UNL     1       2.252   3.960  19.102  0.00  0.00    +0.000 A 
ATOM     19  C   UNL     1       3.391   3.231  19.492  0.00  0.00    +0.000 A 
ATOM     20  C   UNL     1       3.429   2.563  20.718  0.00  0.00    +0.000 A 
ATOM     21  C   UNL     1       2.337   2.613  21.578  0.00  0.00    +0.000 A 
ATOM     22  C   UNL     1       1.198   3.323  21.209  0.00  0.00    +0.000 A 
ATOM     23  C   UNL     1       1.155   3.988  19.980  0.00  0.00    +0.000 A 
ENDBRANCH  17  18
ENDBRANCH   5  17
TORSDOF 3
ENDMDL
MODEL 3
REMARK VINA RESULT:      -7.4      0.183      1.433
REMARK  Name = 
REMARK  3 active torsions:
REMARK  status: ('A' for Active; 'I' for Inactive)
REMARK    1  A    between atoms: C_5  and  C_6
REMARK    2  A    between atoms: N_10  and  C_11
REMARK    3  A    between atoms: C_11  and  C_12
REMARK                            x       y       z     vdW  Elec       q    Type
REMARK                         _______ _______ _______ _____ _____    ______ ____
ROOT
ATOM      1  C   UNL     1       3.522   6.884  17.944  0.00  0.00    +0.000 A 
ATOM      2  C   UNL     1       4.811   7.207  17.558  0.00  0.00    +0.000 A 
ATOM      3  N   UNL     1       5.369   6.109  16.921  0.00  0.00    +0.000 N 
ATOM      4  C   UNL     1       4.412   5.201  16.785  0.00  0.00    +0.000 A 
ATOM      5  N   UNL     1       3.354   5.545  17.532  0.00  0.00    +0.000 N 
ATOM      6  S   UNL     1       4.542   3.819  15.739  0.00  0.00    +0.000 S 
ATOM      7  C   UNL     1       6.305   3.515  15.925  0.00  0.00    +0.000 C 
ATOM      8  C   UNL     1       7.195   4.737  15.790  0.00  0.00    +0.000 C 
ATOM      9  C   UNL     1       6.724   6.056  16.389  0.00  0.00    +0.000 C 
ENDROOT
BRANCH   1  14
ATOM     10 BR   UNL     1      -0.659  10.602  20.581  0.00  0.00    +0.000 Br
ATOM     11  C   UNL     1       0.658   9.497  19.799  0.00  0.00    +0.000 A 
ATOM     12  C   UNL     1       1.092   9.746  18.499  0.00  0.00    +0.000 A 
ATOM     13  C   UNL     1       2.054   8.914  17.916  0.00  0.00    +0.000 A 
ATOM     14  C   UNL     1       2.563   7.817  18.627  0.00  0.00    +0.000 A 
ATOM     15  C   UNL     1       2.143   7.598  19.941  0.00  0.00    +0.000 A 
ATOM     16  C   UNL     1       1.188   8.434  20.526  0.00  0.00    +0.000 A 
ENDBRANCH   1  14
BRANCH   5  17
ATOM     17  C   UNL     1       2.188   4.687  17.755  0.00  0.00    +0.000 C 
BRANCH  17  18
ATOM     18  C   UNL     1       2.286   3.945  19.074  0.00  0.00    +0.000 A 
ATOM     19  C   UNL     1       3.441   3.268  19.505  0.00  0.00    +0.000 A 
ATOM     20  C   UNL     1       3.471   2.616  20.741  0.00  0.00    +0.000 A 
ATOM     21  C   UNL     1       2.353   2.630  21.569  0.00  0.00    +0.000 A 
ATOM     22  C   UNL     1       1.198   3.289  21.158  0.00  0.00    +0.000 A 
ATOM     23  C   UNL     1       1.163   3.938  19.920  0.00  0.00    +0.000 A 
ENDBRANCH  17  18
ENDBRANCH   5  17
TORSDOF 3
ENDMDL
MODEL 4
REMARK VINA RESULT:      -7.3      0.181      1.023
REMARK  Name = 
REMARK  3 active torsions:
REMARK  status: ('A' for Active; 'I' for Inactive)
REMARK    1  A    between atoms: C_5  and  C_6
REMARK    2  A    between atoms: N_10  and  C_11
REMARK    3  A    between atoms: C_11  and  C_12
REMARK                            x       y       z     vdW  Elec       q    Type
REMARK                         _______ _______ _______ _____ _____    ______ ____
ROOT
ATOM      1  C   UNL     1       3.466   6.869  17.945  0.00  0.00    +0.000 A 
ATOM      2  C   UNL     1       4.756   7.182  17.557  0.00  0.00    +0.000 A 
ATOM      3  N   UNL     1       5.306   6.077  16.924  0.00  0.00    +0.000 N 
ATOM      4  C   UNL     1       4.344   5.174  16.794  0.00  0.00    +0.000 A 
ATOM      5  N   UNL     1       3.290   5.528  17.541  0.00  0.00    +0.000 N 
ATOM      6  S   UNL     1       4.465   3.786  15.756  0.00  0.00    +0.000 S 
ATOM      7  C   UNL     1       6.226   3.473  15.941  0.00  0.00    +0.000 C 
ATOM      8  C   UNL     1       7.124   4.688  15.798  0.00  0.00    +0.000 C 
ATOM      9  C   UNL     1       6.661   6.013  16.391  0.00  0.00    +0.000 C 
ENDROOT
BRANCH   1  14
ATOM     10 BR   UNL     1      -0.690  10.622  20.571  0.00  0.00    +0.000 Br
ATOM     11  C   UNL     1       0.619   9.506  19.792  0.00  0.00    +0.000 A 
ATOM     12  C   UNL     1       1.040   9.737  18.484  0.00  0.00    +0.000 A 
ATOM     13  C   UNL     1       1.996   8.897  17.903  0.00  0.00    +0.000 A 
ATOM     14  C   UNL     1       2.513   7.811  18.624  0.00  0.00    +0.000 A 
ATOM     15  C   UNL     1       2.108   7.611  19.946  0.00  0.00    +0.000 A 
ATOM     16  C   UNL     1       1.158   8.455  20.529  0.00  0.00    +0.000 A 
ENDBRANCH   1  14
BRANCH   5  17
ATOM     17  C   UNL     1       2.118   4.678  17.770  0.00  0.00    +0.000 C 
BRANCH  17  18
ATOM     18  C   UNL     1       2.186   3.988  19.119  0.00  0.00    +0.000 A 
ATOM     19  C   UNL     1       1.127   3.978  20.045  0.00  0.00    +0.000 A 
ATOM     20  C   UNL     1       1.247   3.309  21.265  0.00  0.00    +0.000 A 
ATOM     21  C   UNL     1       2.423   2.635  21.582  0.00  0.00    +0.000 A 
ATOM     22  C   UNL     1       3.485   2.637  20.682  0.00  0.00    +0.000 A 
ATOM     23  C   UNL     1       3.369   3.311  19.463  0.00  0.00    +0.000 A 
ENDBRANCH  17  18
ENDBRANCH   5  17
TORSDOF 3
ENDMDL
MODEL 5
REMARK VINA RESULT:      -7.0      3.307      5.698
REMARK  Name = 
REMARK  3 active torsions:
REMARK  status: ('A' for Active; 'I' for Inactive)
REMARK    1  A    between atoms: C_5  and  C_6
REMARK    2  A    between atoms: N_10  and  C_11
REMARK    3  A    between atoms: C_11  and  C_12
REMARK                            x       y       z     vdW  Elec       q    Type
REMARK                         _______ _______ _______ _____ _____    ______ ____
ROOT
ATOM      1  C   UNL     1       2.801   7.197  18.456  0.00  0.00    +0.000 A 
ATOM      2  C   UNL     1       2.099   8.300  18.005  0.00  0.00    +0.000 A 
ATOM      3  N   UNL     1       1.328   8.790  19.049  0.00  0.00    +0.000 N 
ATOM      4  C   UNL     1       1.658   8.110  20.138  0.00  0.00    +0.000 A 
ATOM      5  N   UNL     1       2.393   7.042  19.798  0.00  0.00    +0.000 N 
ATOM      6  S   UNL     1       1.221   8.603  21.746  0.00  0.00    +0.000 S 
ATOM      7  C   UNL     1      -0.376   9.337  21.370  0.00  0.00    +0.000 C 
ATOM      8  C   UNL     1      -0.397  10.284  20.185  0.00  0.00    +0.000 C 
ATOM      9  C   UNL     1       0.433   9.936  18.956  0.00  0.00    +0.000 C 
ENDROOT
BRANCH   1  14
ATOM     10 BR   UNL     1       6.663   3.975  14.857  0.00  0.00    +0.000 Br
ATOM     11  C   UNL     1       5.512   4.941  16.000  0.00  0.00    +0.000 A 
ATOM     12  C   UNL     1       4.308   4.376  16.413  0.00  0.00    +0.000 A 
ATOM     13  C   UNL     1       3.448   5.101  17.245  0.00  0.00    +0.000 A 
ATOM     14  C   UNL     1       3.784   6.404  17.643  0.00  0.00    +0.000 A 
ATOM     15  C   UNL     1       5.010   6.946  17.249  0.00  0.00    +0.000 A 
ATOM     16  C   UNL     1       5.872   6.217  16.424  0.00  0.00    +0.000 A 
ENDBRANCH   1  14
BRANCH   5  17
ATOM     17  C   UNL     1       2.783   5.979  20.728  0.00  0.00    +0.000 C 
BRANCH  17  18
ATOM     18  C   UNL     1       2.319   4.618  20.246  0.00  0.00    +0.000 A 
ATOM     19  C   UNL     1       0.983   4.319  19.920  0.00  0.00    +0.000 A 
ATOM     20  C   UNL     1       0.624   3.047  19.465  0.00  0.00    +0.000 A 
ATOM     21  C   UNL     1       1.588   2.055  19.323  0.00  0.00    +0.000 A 
ATOM     22  C   UNL     1       2.914   2.328  19.646  0.00  0.00    +0.000 A 
ATOM     23  C   UNL     1       3.276   3.598  20.106  0.00  0.00    +0.000 A 
ENDBRANCH  17  18
ENDBRANCH   5  17
TORSDOF 3
ENDMDL
MODEL 6
REMARK VINA RESULT:      -7.0      1.772      4.537
REMARK  Name = 
REMARK  3 active torsions:
REMARK  status: ('A' for Active; 'I' for Inactive)
REMARK    1  A    between atoms: C_5  and  C_6
REMARK    2  A    between atoms: N_10  and  C_11
REMARK    3  A    between atoms: C_11  and  C_12
REMARK                            x       y       z     vdW  Elec       q    Type
REMARK                         _______ _______ _______ _____ _____    ______ ____
ROOT
ATOM      1  C   UNL     1       2.319   6.065  19.019  0.00  0.00    +0.000 A 
ATOM      2  C   UNL     1       1.346   5.082  19.012  0.00  0.00    +0.000 A 
ATOM      3  N   UNL     1       1.970   3.843  19.022  0.00  0.00    +0.000 N 
ATOM      4  C   UNL     1       3.269   4.055  19.183  0.00  0.00    +0.000 A 
ATOM      5  N   UNL     1       3.539   5.356  19.007  0.00  0.00    +0.000 N 
ATOM      6  S   UNL     1       4.399   2.806  19.610  0.00  0.00    +0.000 S 
ATOM      7  C   UNL     1       3.626   1.441  18.732  0.00  0.00    +0.000 C 
ATOM      8  C   UNL     1       2.128   1.300  18.934  0.00  0.00    +0.000 C 
ATOM      9  C   UNL     1       1.277   2.562  18.999  0.00  0.00    +0.000 C 
ENDROOT
BRANCH   1  14
ATOM     10 BR   UNL     1       0.979  12.103  18.994  0.00  0.00    +0.000 Br
ATOM     11  C   UNL     1       1.437  10.271  19.023  0.00  0.00    +0.000 A 
ATOM     12  C   UNL     1       1.971   9.670  17.886  0.00  0.00    +0.000 A 
ATOM     13  C   UNL     1       2.292   8.308  17.904  0.00  0.00    +0.000 A 
ATOM     14  C   UNL     1       2.055   7.543  19.056  0.00  0.00    +0.000 A 
ATOM     15  C   UNL     1       1.551   8.166  20.201  0.00  0.00    +0.000 A 
ATOM     16  C   UNL     1       1.238   9.528  20.183  0.00  0.00    +0.000 A 
ENDBRANCH   1  14
BRANCH   5  17
ATOM     17  C   UNL     1       4.891   5.916  18.941  0.00  0.00    +0.000 C 
BRANCH  17  18
ATOM     18  C   UNL     1       5.573   5.574  17.631  0.00  0.00    +0.000 A 
ATOM     19  C   UNL     1       6.794   4.881  17.545  0.00  0.00    +0.000 A 
ATOM     20  C   UNL     1       7.363   4.582  16.304  0.00  0.00    +0.000 A 
ATOM     21  C   UNL     1       6.723   4.965  15.129  0.00  0.00    +0.000 A 
ATOM     22  C   UNL     1       5.517   5.657  15.193  0.00  0.00    +0.000 A 
ATOM     23  C   UNL     1       4.949   5.962  16.433  0.00  0.00    +0.000 A 
ENDBRANCH  17  18
ENDBRANCH   5  17
TORSDOF 3
ENDMDL
MODEL 7
REMARK VINA RESULT:      -7.0      1.770      4.470
REMARK  Name = 
REMARK  3 active torsions:
REMARK  status: ('A' for Active; 'I' for Inactive)
REMARK    1  A    between atoms: C_5  and  C_6
REMARK    2  A    between atoms: N_10  and  C_11
REMARK    3  A    between atoms: C_11  and  C_12
REMARK                            x       y       z     vdW  Elec       q    Type
REMARK                         _______ _______ _______ _____ _____    ______ ____
ROOT
ATOM      1  C   UNL     1       2.313   6.055  19.040  0.00  0.00    +0.000 A 
ATOM      2  C   UNL     1       1.339   5.073  19.058  0.00  0.00    +0.000 A 
ATOM      3  N   UNL     1       1.963   3.834  19.065  0.00  0.00    +0.000 N 
ATOM      4  C   UNL     1       3.265   4.045  19.200  0.00  0.00    +0.000 A 
ATOM      5  N   UNL     1       3.532   5.345  19.009  0.00  0.00    +0.000 N 
ATOM      6  S   UNL     1       4.402   2.798  19.614  0.00  0.00    +0.000 S 
ATOM      7  C   UNL     1       3.610   1.428  18.761  0.00  0.00    +0.000 C 
ATOM      8  C   UNL     1       2.117   1.290  18.993  0.00  0.00    +0.000 C 
ATOM      9  C   UNL     1       1.268   2.553  19.064  0.00  0.00    +0.000 C 
ENDROOT
BRANCH   1  14
ATOM     10 BR   UNL     1       0.982  12.095  18.992  0.00  0.00    +0.000 Br
ATOM     11  C   UNL     1       1.438  10.263  19.028  0.00  0.00    +0.000 A 
ATOM     12  C   UNL     1       1.964   9.655  17.891  0.00  0.00    +0.000 A 
ATOM     13  C   UNL     1       2.284   8.293  17.914  0.00  0.00    +0.000 A 
ATOM     14  C   UNL     1       2.052   7.534  19.071  0.00  0.00    +0.000 A 
ATOM     15  C   UNL     1       1.555   8.163  20.215  0.00  0.00    +0.000 A 
ATOM     16  C   UNL     1       1.244   9.526  20.193  0.00  0.00    +0.000 A 
ENDBRANCH   1  14
BRANCH   5  17
ATOM     17  C   UNL     1       4.883   5.903  18.914  0.00  0.00    +0.000 C 
BRANCH  17  18
ATOM     18  C   UNL     1       5.531   5.572  17.583  0.00  0.00    +0.000 A 
ATOM     19  C   UNL     1       4.962   5.889  16.337  0.00  0.00    +0.000 A 
ATOM     20  C   UNL     1       5.619   5.570  15.146  0.00  0.00    +0.000 A 
ATOM     21  C   UNL     1       6.856   4.932  15.177  0.00  0.00    +0.000 A 
ATOM     22  C   UNL     1       7.433   4.604  16.400  0.00  0.00    +0.000 A 
ATOM     23  C   UNL     1       6.776   4.917  17.592  0.00  0.00    +0.000 A 
ENDBRANCH  17  18
ENDBRANCH   5  17
TORSDOF 3
ENDMDL
MODEL 8
REMARK VINA RESULT:      -6.9      3.304      5.784
REMARK  Name = 
REMARK  3 active torsions:
REMARK  status: ('A' for Active; 'I' for Inactive)
REMARK    1  A    between atoms: C_5  and  C_6
REMARK    2  A    between atoms: N_10  and  C_11
REMARK    3  A    between atoms: C_11  and  C_12
REMARK                            x       y       z     vdW  Elec       q    Type
REMARK                         _______ _______ _______ _____ _____    ______ ____
ROOT
ATOM      1  C   UNL     1       2.800   7.202  18.444  0.00  0.00    +0.000 A 
ATOM      2  C   UNL     1       2.087   8.295  17.987  0.00  0.00    +0.000 A 
ATOM      3  N   UNL     1       1.314   8.784  19.030  0.00  0.00    +0.000 N 
ATOM      4  C   UNL     1       1.653   8.114  20.123  0.00  0.00    +0.000 A 
ATOM      5  N   UNL     1       2.397   7.051  19.788  0.00  0.00    +0.000 N 
ATOM      6  S   UNL     1       1.215   8.614  21.729  0.00  0.00    +0.000 S 
ATOM      7  C   UNL     1      -0.390   9.330  21.352  0.00  0.00    +0.000 C 
ATOM      8  C   UNL     1      -0.422  10.270  20.161  0.00  0.00    +0.000 C 
ATOM      9  C   UNL     1       0.408   9.922  18.932  0.00  0.00    +0.000 C 
ENDROOT
BRANCH   1  14
ATOM     10 BR   UNL     1       6.688   4.002  14.853  0.00  0.00    +0.000 Br
ATOM     11  C   UNL     1       5.528   4.960  15.993  0.00  0.00    +0.000 A 
ATOM     12  C   UNL     1       4.315   4.398  16.382  0.00  0.00    +0.000 A 
ATOM     13  C   UNL     1       3.449   5.119  17.212  0.00  0.00    +0.000 A 
ATOM     14  C   UNL     1       3.789   6.413  17.633  0.00  0.00    +0.000 A 
ATOM     15  C   UNL     1       5.024   6.951  17.264  0.00  0.00    +0.000 A 
ATOM     16  C   UNL     1       5.892   6.228  16.441  0.00  0.00    +0.000 A 
ENDBRANCH   1  14
BRANCH   5  17
ATOM     17  C   UNL     1       2.799   5.998  20.723  0.00  0.00    +0.000 C 
BRANCH  17  18
ATOM     18  C   UNL     1       2.395   4.624  20.224  0.00  0.00    +0.000 A 
ATOM     19  C   UNL     1       3.303   3.571  20.012  0.00  0.00    +0.000 A 
ATOM     20  C   UNL     1       2.863   2.323  19.565  0.00  0.00    +0.000 A 
ATOM     21  C   UNL     1       1.510   2.101  19.326  0.00  0.00    +0.000 A 
ATOM     22  C   UNL     1       0.595   3.131  19.523  0.00  0.00    +0.000 A 
ATOM     23  C   UNL     1       1.034   4.383  19.965  0.00  0.00    +0.000 A 
ENDBRANCH  17  18
ENDBRANCH   5  17
TORSDOF 3
ENDMDL
MODEL 9
REMARK VINA RESULT:      -6.9      1.042      1.388
REMARK  Name = 
REMARK  3 active torsions:
REMARK  status: ('A' for Active; 'I' for Inactive)
REMARK    1  A    between atoms: C_5  and  C_6
REMARK    2  A    between atoms: N_10  and  C_11
REMARK    3  A    between atoms: C_11  and  C_12
REMARK                            x       y       z     vdW  Elec       q    Type
REMARK                         _______ _______ _______ _____ _____    ______ ____
ROOT
ATOM      1  C   UNL     1       3.369   7.207  17.924  0.00  0.00    +0.000 A 
ATOM      2  C   UNL     1       3.904   7.389  16.661  0.00  0.00    +0.000 A 
ATOM      3  N   UNL     1       4.800   6.361  16.410  0.00  0.00    +0.000 N 
ATOM      4  C   UNL     1       4.707   5.498  17.412  0.00  0.00    +0.000 A 
ATOM      5  N   UNL     1       4.005   6.046  18.414  0.00  0.00    +0.000 N 
ATOM      6  S   UNL     1       5.367   3.892  17.361  0.00  0.00    +0.000 S 
ATOM      7  C   UNL     1       6.822   4.239  16.364  0.00  0.00    +0.000 C 
ATOM      8  C   UNL     1       6.577   5.068  15.117  0.00  0.00    +0.000 C 
ATOM      9  C   UNL     1       5.582   6.219  15.188  0.00  0.00    +0.000 C 
ENDROOT
BRANCH   1  14
ATOM     10 BR   UNL     1      -0.700  10.956  20.687  0.00  0.00    +0.000 Br
ATOM     11  C   UNL     1       0.500   9.781  19.825  0.00  0.00    +0.000 A 
ATOM     12  C   UNL     1       1.081   8.734  20.538  0.00  0.00    +0.000 A 
ATOM     13  C   UNL     1       1.985   7.876  19.901  0.00  0.00    +0.000 A 
ATOM     14  C   UNL     1       2.325   8.082  18.556  0.00  0.00    +0.000 A 
ATOM     15  C   UNL     1       1.710   9.114  17.844  0.00  0.00    +0.000 A 
ATOM     16  C   UNL     1       0.801   9.967  18.479  0.00  0.00    +0.000 A 
ENDBRANCH   1  14
BRANCH   5  17
ATOM     17  C   UNL     1       3.852   5.443  19.740  0.00  0.00    +0.000 C 
BRANCH  17  18
ATOM     18  C   UNL     1       2.694   4.466  19.779  0.00  0.00    +0.000 A 
ATOM     19  C   UNL     1       1.951   4.089  18.645  0.00  0.00    +0.000 A 
ATOM     20  C   UNL     1       0.904   3.170  18.746  0.00  0.00    +0.000 A 
ATOM     21  C   UNL     1       0.582   2.607  19.976  0.00  0.00    +0.000 A 
ATOM     22  C   UNL     1       1.300   2.970  21.112  0.00  0.00    +0.000 A 
ATOM     23  C   UNL     1       2.344   3.894  21.015  0.00  0.00    +0.000 A 
ENDBRANCH  17  18
ENDBRANCH   5  17
TORSDOF 3
ENDMDL
