MODEL 1
REMARK VINA RESULT:      -6.6      0.000      0.000
REMARK  Name = 
REMARK  10 active torsions:
REMARK  status: ('A' for Active; 'I' for Inactive)
REMARK    1  A    between atoms: C_1  and  C_2
REMARK    2  A    between atoms: C_2  and  O_3
REMARK    3  A    between atoms: O_3  and  C_4
REMARK    4  A    between atoms: C_4  and  C_5
REMARK    5  A    between atoms: C_4  and  O_18
REMARK    6  A    between atoms: C_5  and  N_6
REMARK    7  A    between atoms: C_7  and  C_9
REMARK    8  A    between atoms: C_13  and  N_14
REMARK    9  A    between atoms: O_18  and  C_19
REMARK   10  A    between atoms: C_19  and  C_20
REMARK                            x       y       z     vdW  Elec       q    Type
REMARK                         _______ _______ _______ _____ _____    ______ ____
ROOT
ATOM      1  N   UNL     1       4.625   4.805  16.262  0.00  0.00    +0.000 N 
ATOM      2  C   UNL     1       3.927   5.345  17.313  0.00  0.00    +0.000 C 
ATOM      3  O   UNL     1       3.962   6.537  17.598  0.00  0.00    +0.000 OA
ATOM      4  H   UNL     1       4.534   3.838  15.980  0.00  0.00    +0.000 HD
ENDROOT
BRANCH   2   5
ATOM      5  C   UNL     1       3.086   4.425  18.126  0.00  0.00    +0.000 A 
ATOM      6  C   UNL     1       1.756   4.220  17.724  0.00  0.00    +0.000 A 
ATOM      7  C   UNL     1       0.895   3.429  18.486  0.00  0.00    +0.000 A 
ATOM      8  C   UNL     1       1.351   2.846  19.667  0.00  0.00    +0.000 A 
ATOM      9  C   UNL     1       2.679   3.053  20.072  0.00  0.00    +0.000 A 
ATOM     10  C   UNL     1       3.555   3.838  19.305  0.00  0.00    +0.000 A 
BRANCH   9  11
ATOM     11  N   UNL     1       3.149   2.462  21.331  0.00  0.00    +0.000 N 
ATOM     12  O   UNL     1       4.268   1.929  21.338  0.00  0.00    +0.000 OA
ATOM     13  O   UNL     1       2.398   2.532  22.315  0.00  0.00    +0.000 OA
ENDBRANCH   9  11
ENDBRANCH   2   5
BRANCH   1  14
ATOM     14  C   UNL     1       5.544   5.635  15.488  0.00  0.00    +0.000 C 
BRANCH  14  15
ATOM     15  C   UNL     1       7.010   5.571  15.974  0.00  0.00    +0.000 C 
BRANCH  15  16
ATOM     16  O   UNL     1       7.442   6.807  16.557  0.00  0.00    +0.000 OA
BRANCH  16  18
ATOM     17  C   UNL     1       7.597   5.319  18.426  0.00  0.00    +0.000 C 
ATOM     18  C   UNL     1       7.528   6.765  17.979  0.00  0.00    +0.000 C 
ENDBRANCH  16  18
ENDBRANCH  15  16
BRANCH  15  19
ATOM     19  O   UNL     1       7.838   5.254  14.842  0.00  0.00    +0.000 OA
BRANCH  19  20
ATOM     20  C   UNL     1       7.074   4.788  13.730  0.00  0.00    +0.000 C 
ATOM     21  C   UNL     1       7.744   5.245  12.447  0.00  0.00    +0.000 C 
ENDBRANCH  19  20
ENDBRANCH  15  19
ENDBRANCH  14  15
ENDBRANCH   1  14
TORSDOF 8
ENDMDL
MODEL 2
REMARK VINA RESULT:      -6.5      1.720      1.952
REMARK  Name = 
REMARK  10 active torsions:
REMARK  status: ('A' for Active; 'I' for Inactive)
REMARK    1  A    between atoms: C_1  and  C_2
REMARK    2  A    between atoms: C_2  and  O_3
REMARK    3  A    between atoms: O_3  and  C_4
REMARK    4  A    between atoms: C_4  and  C_5
REMARK    5  A    between atoms: C_4  and  O_18
REMARK    6  A    between atoms: C_5  and  N_6
REMARK    7  A    between atoms: C_7  and  C_9
REMARK    8  A    between atoms: C_13  and  N_14
REMARK    9  A    between atoms: O_18  and  C_19
REMARK   10  A    between atoms: C_19  and  C_20
REMARK                            x       y       z     vdW  Elec       q    Type
REMARK                         _______ _______ _______ _____ _____    ______ ____
ROOT
ATOM      1  N   UNL     1       4.377   5.030  16.579  0.00  0.00    +0.000 N 
ATOM      2  C   UNL     1       4.069   6.012  17.488  0.00  0.00    +0.000 C 
ATOM      3  O   UNL     1       4.531   7.146  17.430  0.00  0.00    +0.000 OA
ATOM      4  H   UNL     1       3.935   4.120  16.582  0.00  0.00    +0.000 HD
ENDROOT
BRANCH   2   5
ATOM      5  C   UNL     1       3.119   5.665  18.580  0.00  0.00    +0.000 A 
ATOM      6  C   UNL     1       2.610   6.711  19.367  0.00  0.00    +0.000 A 
ATOM      7  C   UNL     1       1.775   6.443  20.453  0.00  0.00    +0.000 A 
ATOM      8  C   UNL     1       1.452   5.125  20.773  0.00  0.00    +0.000 A 
ATOM      9  C   UNL     1       1.964   4.079  19.990  0.00  0.00    +0.000 A 
ATOM     10  C   UNL     1       2.795   4.340  18.888  0.00  0.00    +0.000 A 
BRANCH   9  11
ATOM     11  N   UNL     1       1.646   2.691  20.346  0.00  0.00    +0.000 N 
ATOM     12  O   UNL     1       1.396   2.442  21.534  0.00  0.00    +0.000 OA
ATOM     13  O   UNL     1       1.645   1.849  19.436  0.00  0.00    +0.000 OA
ENDBRANCH   9  11
ENDBRANCH   2   5
BRANCH   1  14
ATOM     14  C   UNL     1       5.376   5.276  15.544  0.00  0.00    +0.000 C 
BRANCH  14  15
ATOM     15  C   UNL     1       6.622   4.367  15.644  0.00  0.00    +0.000 C 
BRANCH  15  16
ATOM     16  O   UNL     1       7.683   4.982  16.385  0.00  0.00    +0.000 OA
BRANCH  16  18
ATOM     17  C   UNL     1       7.658   5.963  18.569  0.00  0.00    +0.000 C 
ATOM     18  C   UNL     1       7.658   4.672  17.776  0.00  0.00    +0.000 C 
ENDBRANCH  16  18
ENDBRANCH  15  16
BRANCH  15  19
ATOM     19  O   UNL     1       7.069   4.079  14.308  0.00  0.00    +0.000 OA
BRANCH  19  20
ATOM     20  C   UNL     1       5.983   3.788  13.429  0.00  0.00    +0.000 C 
ATOM     21  C   UNL     1       6.538   3.446  12.058  0.00  0.00    +0.000 C 
ENDBRANCH  19  20
ENDBRANCH  15  19
ENDBRANCH  14  15
ENDBRANCH   1  14
TORSDOF 8
ENDMDL
MODEL 3
REMARK VINA RESULT:      -6.5      1.856      2.146
REMARK  Name = 
REMARK  10 active torsions:
REMARK  status: ('A' for Active; 'I' for Inactive)
REMARK    1  A    between atoms: C_1  and  C_2
REMARK    2  A    between atoms: C_2  and  O_3
REMARK    3  A    between atoms: O_3  and  C_4
REMARK    4  A    between atoms: C_4  and  C_5
REMARK    5  A    between atoms: C_4  and  O_18
REMARK    6  A    between atoms: C_5  and  N_6
REMARK    7  A    between atoms: C_7  and  C_9
REMARK    8  A    between atoms: C_13  and  N_14
REMARK    9  A    between atoms: O_18  and  C_19
REMARK   10  A    between atoms: C_19  and  C_20
REMARK                            x       y       z     vdW  Elec       q    Type
REMARK                         _______ _______ _______ _____ _____    ______ ____
ROOT
ATOM      1  N   UNL     1       4.434   5.453  16.729  0.00  0.00    +0.000 N 
ATOM      2  C   UNL     1       3.791   6.317  17.581  0.00  0.00    +0.000 C 
ATOM      3  O   UNL     1       3.969   7.530  17.564  0.00  0.00    +0.000 OA
ATOM      4  H   UNL     1       4.228   4.464  16.690  0.00  0.00    +0.000 HD
ENDROOT
BRANCH   2   5
ATOM      5  C   UNL     1       2.829   5.734  18.554  0.00  0.00    +0.000 A 
ATOM      6  C   UNL     1       2.458   6.513  19.661  0.00  0.00    +0.000 A 
ATOM      7  C   UNL     1       1.617   5.995  20.649  0.00  0.00    +0.000 A 
ATOM      8  C   UNL     1       1.152   4.685  20.546  0.00  0.00    +0.000 A 
ATOM      9  C   UNL     1       1.525   3.903  19.442  0.00  0.00    +0.000 A 
ATOM     10  C   UNL     1       2.360   4.421  18.438  0.00  0.00    +0.000 A 
BRANCH   9  11
ATOM     11  N   UNL     1       1.057   2.515  19.350  0.00  0.00    +0.000 N 
ATOM     12  O   UNL     1       0.262   2.231  18.443  0.00  0.00    +0.000 OA
ATOM     13  O   UNL     1       1.487   1.707  20.187  0.00  0.00    +0.000 OA
ENDBRANCH   9  11
ENDBRANCH   2   5
BRANCH   1  14
ATOM     14  C   UNL     1       5.462   5.950  15.819  0.00  0.00    +0.000 C 
BRANCH  14  15
ATOM     15  C   UNL     1       6.903   5.580  16.237  0.00  0.00    +0.000 C 
BRANCH  15  16
ATOM     16  O   UNL     1       7.713   6.739  16.472  0.00  0.00    +0.000 OA
BRANCH  16  18
ATOM     17  C   UNL     1       8.090   8.671  17.834  0.00  0.00    +0.000 C 
ATOM     18  C   UNL     1       7.631   7.227  17.809  0.00  0.00    +0.000 C 
ENDBRANCH  16  18
ENDBRANCH  15  16
BRANCH  15  19
ATOM     19  O   UNL     1       7.482   4.792  15.183  0.00  0.00    +0.000 OA
BRANCH  19  20
ATOM     20  C   UNL     1       6.842   5.021  13.927  0.00  0.00    +0.000 C 
ATOM     21  C   UNL     1       6.398   3.689  13.351  0.00  0.00    +0.000 C 
ENDBRANCH  19  20
ENDBRANCH  15  19
ENDBRANCH  14  15
ENDBRANCH   1  14
TORSDOF 8
ENDMDL
MODEL 4
REMARK VINA RESULT:      -6.4      1.798      2.348
REMARK  Name = 
REMARK  10 active torsions:
REMARK  status: ('A' for Active; 'I' for Inactive)
REMARK    1  A    between atoms: C_1  and  C_2
REMARK    2  A    between atoms: C_2  and  O_3
REMARK    3  A    between atoms: O_3  and  C_4
REMARK    4  A    between atoms: C_4  and  C_5
REMARK    5  A    between atoms: C_4  and  O_18
REMARK    6  A    between atoms: C_5  and  N_6
REMARK    7  A    between atoms: C_7  and  C_9
REMARK    8  A    between atoms: C_13  and  N_14
REMARK    9  A    between atoms: O_18  and  C_19
REMARK   10  A    between atoms: C_19  and  C_20
REMARK                            x       y       z     vdW  Elec       q    Type
REMARK                         _______ _______ _______ _____ _____    ______ ____
ROOT
ATOM      1  N   UNL     1       4.712   5.742  17.297  0.00  0.00    +0.000 N 
ATOM      2  C   UNL     1       3.535   5.996  17.959  0.00  0.00    +0.000 C 
ATOM      3  O   UNL     1       3.092   7.127  18.126  0.00  0.00    +0.000 OA
ATOM      4  H   UNL     1       5.035   4.807  17.091  0.00  0.00    +0.000 HD
ENDROOT
BRANCH   2   5
ATOM      5  C   UNL     1       2.772   4.829  18.477  0.00  0.00    +0.000 A 
ATOM      6  C   UNL     1       1.681   4.367  17.724  0.00  0.00    +0.000 A 
ATOM      7  C   UNL     1       0.880   3.325  18.194  0.00  0.00    +0.000 A 
ATOM      8  C   UNL     1       1.153   2.743  19.431  0.00  0.00    +0.000 A 
ATOM      9  C   UNL     1       2.242   3.206  20.187  0.00  0.00    +0.000 A 
ATOM     10  C   UNL     1       3.059   4.245  19.716  0.00  0.00    +0.000 A 
BRANCH   9  11
ATOM     11  N   UNL     1       2.510   2.611  21.502  0.00  0.00    +0.000 N 
ATOM     12  O   UNL     1       3.622   2.097  21.688  0.00  0.00    +0.000 OA
ATOM     13  O   UNL     1       1.607   2.659  22.351  0.00  0.00    +0.000 OA
ENDBRANCH   9  11
ENDBRANCH   2   5
BRANCH   1  14
ATOM     14  C   UNL     1       5.555   6.847  16.851  0.00  0.00    +0.000 C 
BRANCH  14  15
ATOM     15  C   UNL     1       7.001   6.793  17.394  0.00  0.00    +0.000 C 
BRANCH  15  16
ATOM     16  O   UNL     1       7.799   7.885  16.920  0.00  0.00    +0.000 OA
BRANCH  16  18
ATOM     17  C   UNL     1       8.781   9.288  18.593  0.00  0.00    +0.000 C 
ATOM     18  C   UNL     1       7.606   9.090  17.656  0.00  0.00    +0.000 C 
ENDBRANCH  16  18
ENDBRANCH  15  16
BRANCH  15  19
ATOM     19  O   UNL     1       7.586   5.549  16.974  0.00  0.00    +0.000 OA
BRANCH  19  20
ATOM     20  C   UNL     1       7.825   4.669  18.071  0.00  0.00    +0.000 C 
ATOM     21  C   UNL     1       7.867   5.479  19.354  0.00  0.00    +0.000 C 
ENDBRANCH  19  20
ENDBRANCH  15  19
ENDBRANCH  14  15
ENDBRANCH   1  14
TORSDOF 8
ENDMDL
MODEL 5
REMARK VINA RESULT:      -6.3      2.600      6.815
REMARK  Name = 
REMARK  10 active torsions:
REMARK  status: ('A' for Active; 'I' for Inactive)
REMARK    1  A    between atoms: C_1  and  C_2
REMARK    2  A    between atoms: C_2  and  O_3
REMARK    3  A    between atoms: O_3  and  C_4
REMARK    4  A    between atoms: C_4  and  C_5
REMARK    5  A    between atoms: C_4  and  O_18
REMARK    6  A    between atoms: C_5  and  N_6
REMARK    7  A    between atoms: C_7  and  C_9
REMARK    8  A    between atoms: C_13  and  N_14
REMARK    9  A    between atoms: O_18  and  C_19
REMARK   10  A    between atoms: C_19  and  C_20
REMARK                            x       y       z     vdW  Elec       q    Type
REMARK                         _______ _______ _______ _____ _____    ______ ____
ROOT
ATOM      1  N   UNL     1       4.925   4.445  16.531  0.00  0.00    +0.000 N 
ATOM      2  C   UNL     1       5.468   5.340  15.642  0.00  0.00    +0.000 C 
ATOM      3  O   UNL     1       5.504   6.548  15.847  0.00  0.00    +0.000 OA
ATOM      4  H   UNL     1       4.967   3.444  16.398  0.00  0.00    +0.000 HD
ENDROOT
BRANCH   2   5
ATOM      5  C   UNL     1       6.045   4.795  14.384  0.00  0.00    +0.000 A 
ATOM      6  C   UNL     1       7.269   5.320  13.939  0.00  0.00    +0.000 A 
ATOM      7  C   UNL     1       7.824   4.905  12.727  0.00  0.00    +0.000 A 
ATOM      8  C   UNL     1       7.153   3.971  11.940  0.00  0.00    +0.000 A 
ATOM      9  C   UNL     1       5.927   3.449  12.381  0.00  0.00    +0.000 A 
ATOM     10  C   UNL     1       5.368   3.852  13.604  0.00  0.00    +0.000 A 
BRANCH   9  11
ATOM     11  N   UNL     1       5.208   2.487  11.537  0.00  0.00    +0.000 N 
ATOM     12  O   UNL     1       4.086   2.808  11.121  0.00  0.00    +0.000 OA
ATOM     13  O   UNL     1       5.768   1.409  11.288  0.00  0.00    +0.000 OA
ENDBRANCH   9  11
ENDBRANCH   2   5
BRANCH   1  14
ATOM     14  C   UNL     1       4.255   4.924  17.737  0.00  0.00    +0.000 C 
BRANCH  14  15
ATOM     15  C   UNL     1       4.901   4.431  19.052  0.00  0.00    +0.000 C 
BRANCH  15  16
ATOM     16  O   UNL     1       6.330   4.380  18.967  0.00  0.00    +0.000 OA
BRANCH  16  18
ATOM     17  C   UNL     1       7.726   6.247  18.424  0.00  0.00    +0.000 C 
ATOM     18  C   UNL     1       6.974   5.524  19.523  0.00  0.00    +0.000 C 
ENDBRANCH  16  18
ENDBRANCH  15  16
BRANCH  15  19
ATOM     19  O   UNL     1       4.386   3.119  19.334  0.00  0.00    +0.000 OA
BRANCH  19  20
ATOM     20  C   UNL     1       3.198   3.166  20.125  0.00  0.00    +0.000 C 
ATOM     21  C   UNL     1       2.163   2.239  19.515  0.00  0.00    +0.000 C 
ENDBRANCH  19  20
ENDBRANCH  15  19
ENDBRANCH  14  15
ENDBRANCH   1  14
TORSDOF 8
ENDMDL
MODEL 6
REMARK VINA RESULT:      -6.3      2.558      6.938
REMARK  Name = 
REMARK  10 active torsions:
REMARK  status: ('A' for Active; 'I' for Inactive)
REMARK    1  A    between atoms: C_1  and  C_2
REMARK    2  A    between atoms: C_2  and  O_3
REMARK    3  A    between atoms: O_3  and  C_4
REMARK    4  A    between atoms: C_4  and  C_5
REMARK    5  A    between atoms: C_4  and  O_18
REMARK    6  A    between atoms: C_5  and  N_6
REMARK    7  A    between atoms: C_7  and  C_9
REMARK    8  A    between atoms: C_13  and  N_14
REMARK    9  A    between atoms: O_18  and  C_19
REMARK   10  A    between atoms: C_19  and  C_20
REMARK                            x       y       z     vdW  Elec       q    Type
REMARK                         _______ _______ _______ _____ _____    ______ ____
ROOT
ATOM      1  N   UNL     1       6.172   4.110  16.694  0.00  0.00    +0.000 N 
ATOM      2  C   UNL     1       6.770   5.037  15.876  0.00  0.00    +0.000 C 
ATOM      3  O   UNL     1       7.203   6.109  16.284  0.00  0.00    +0.000 OA
ATOM      4  H   UNL     1       5.887   3.195  16.372  0.00  0.00    +0.000 HD
ENDROOT
BRANCH   2   5
ATOM      5  C   UNL     1       6.898   4.700  14.433  0.00  0.00    +0.000 A 
ATOM      6  C   UNL     1       7.867   5.382  13.680  0.00  0.00    +0.000 A 
ATOM      7  C   UNL     1       7.985   5.166  12.306  0.00  0.00    +0.000 A 
ATOM      8  C   UNL     1       7.124   4.274  11.667  0.00  0.00    +0.000 A 
ATOM      9  C   UNL     1       6.153   3.594  12.418  0.00  0.00    +0.000 A 
ATOM     10  C   UNL     1       6.035   3.797  13.802  0.00  0.00    +0.000 A 
BRANCH   9  11
ATOM     11  N   UNL     1       5.229   2.678  11.738  0.00  0.00    +0.000 N 
ATOM     12  O   UNL     1       5.653   1.556  11.426  0.00  0.00    +0.000 OA
ATOM     13  O   UNL     1       4.077   3.080  11.518  0.00  0.00    +0.000 OA
ENDBRANCH   9  11
ENDBRANCH   2   5
BRANCH   1  14
ATOM     14  C   UNL     1       5.928   4.421  18.099  0.00  0.00    +0.000 C 
BRANCH  14  15
ATOM     15  C   UNL     1       4.432   4.445  18.487  0.00  0.00    +0.000 C 
BRANCH  15  16
ATOM     16  O   UNL     1       3.589   4.000  17.417  0.00  0.00    +0.000 OA
BRANCH  16  18
ATOM     17  C   UNL     1       3.453   1.713  18.111  0.00  0.00    +0.000 C 
ATOM     18  C   UNL     1       2.675   2.976  17.801  0.00  0.00    +0.000 C 
ENDBRANCH  16  18
ENDBRANCH  15  16
BRANCH  15  19
ATOM     19  O   UNL     1       4.088   5.793  18.845  0.00  0.00    +0.000 OA
BRANCH  19  20
ATOM     20  C   UNL     1       3.662   6.558  17.718  0.00  0.00    +0.000 C 
ATOM     21  C   UNL     1       2.777   7.694  18.198  0.00  0.00    +0.000 C 
ENDBRANCH  19  20
ENDBRANCH  15  19
ENDBRANCH  14  15
ENDBRANCH   1  14
TORSDOF 8
ENDMDL
MODEL 7
REMARK VINA RESULT:      -6.2      2.632      7.219
REMARK  Name = 
REMARK  10 active torsions:
REMARK  status: ('A' for Active; 'I' for Inactive)
REMARK    1  A    between atoms: C_1  and  C_2
REMARK    2  A    between atoms: C_2  and  O_3
REMARK    3  A    between atoms: O_3  and  C_4
REMARK    4  A    between atoms: C_4  and  C_5
REMARK    5  A    between atoms: C_4  and  O_18
REMARK    6  A    between atoms: C_5  and  N_6
REMARK    7  A    between atoms: C_7  and  C_9
REMARK    8  A    between atoms: C_13  and  N_14
REMARK    9  A    between atoms: O_18  and  C_19
REMARK   10  A    between atoms: C_19  and  C_20
REMARK                            x       y       z     vdW  Elec       q    Type
REMARK                         _______ _______ _______ _____ _____    ______ ____
ROOT
ATOM      1  N   UNL     1       5.527   3.795  16.866  0.00  0.00    +0.000 N 
ATOM      2  C   UNL     1       5.756   4.851  16.019  0.00  0.00    +0.000 C 
ATOM      3  O   UNL     1       5.609   6.021  16.352  0.00  0.00    +0.000 OA
ATOM      4  H   UNL     1       5.725   2.836  16.616  0.00  0.00    +0.000 HD
ENDROOT
BRANCH   2   5
ATOM      5  C   UNL     1       6.217   4.537  14.639  0.00  0.00    +0.000 A 
ATOM      6  C   UNL     1       7.340   5.222  14.148  0.00  0.00    +0.000 A 
ATOM      7  C   UNL     1       7.775   5.027  12.835  0.00  0.00    +0.000 A 
ATOM      8  C   UNL     1       7.082   4.157  11.995  0.00  0.00    +0.000 A 
ATOM      9  C   UNL     1       5.957   3.475  12.484  0.00  0.00    +0.000 A 
ATOM     10  C   UNL     1       5.520   3.655  13.806  0.00  0.00    +0.000 A 
BRANCH   9  11
ATOM     11  N   UNL     1       5.212   2.581  11.589  0.00  0.00    +0.000 N 
ATOM     12  O   UNL     1       4.108   2.964  11.177  0.00  0.00    +0.000 OA
ATOM     13  O   UNL     1       5.733   1.495  11.297  0.00  0.00    +0.000 OA
ENDBRANCH   9  11
ENDBRANCH   2   5
BRANCH   1  14
ATOM     14  C   UNL     1       4.980   4.031  18.199  0.00  0.00    +0.000 C 
BRANCH  14  15
ATOM     15  C   UNL     1       3.471   3.720  18.324  0.00  0.00    +0.000 C 
BRANCH  15  16
ATOM     16  O   UNL     1       2.668   4.905  18.266  0.00  0.00    +0.000 OA
BRANCH  16  18
ATOM     17  C   UNL     1       2.229   6.538  19.961  0.00  0.00    +0.000 C 
ATOM     18  C   UNL     1       3.238   6.013  18.959  0.00  0.00    +0.000 C 
ENDBRANCH  16  18
ENDBRANCH  15  16
BRANCH  15  19
ATOM     19  O   UNL     1       3.258   3.052  19.579  0.00  0.00    +0.000 OA
BRANCH  19  20
ATOM     20  C   UNL     1       1.932   2.540  19.697  0.00  0.00    +0.000 C 
ATOM     21  C   UNL     1       1.336   3.013  21.010  0.00  0.00    +0.000 C 
ENDBRANCH  19  20
ENDBRANCH  15  19
ENDBRANCH  14  15
ENDBRANCH   1  14
TORSDOF 8
ENDMDL
MODEL 8
REMARK VINA RESULT:      -6.2      1.556      2.983
REMARK  Name = 
REMARK  10 active torsions:
REMARK  status: ('A' for Active; 'I' for Inactive)
REMARK    1  A    between atoms: C_1  and  C_2
REMARK    2  A    between atoms: C_2  and  O_3
REMARK    3  A    between atoms: O_3  and  C_4
REMARK    4  A    between atoms: C_4  and  C_5
REMARK    5  A    between atoms: C_4  and  O_18
REMARK    6  A    between atoms: C_5  and  N_6
REMARK    7  A    between atoms: C_7  and  C_9
REMARK    8  A    between atoms: C_13  and  N_14
REMARK    9  A    between atoms: O_18  and  C_19
REMARK   10  A    between atoms: C_19  and  C_20
REMARK                            x       y       z     vdW  Elec       q    Type
REMARK                         _______ _______ _______ _____ _____    ______ ____
ROOT
ATOM      1  N   UNL     1       4.491   4.838  16.738  0.00  0.00    +0.000 N 
ATOM      2  C   UNL     1       4.003   5.961  17.359  0.00  0.00    +0.000 C 
ATOM      3  O   UNL     1       4.241   7.098  16.969  0.00  0.00    +0.000 OA
ATOM      4  H   UNL     1       4.231   3.900  17.013  0.00  0.00    +0.000 HD
ENDROOT
BRANCH   2   5
ATOM      5  C   UNL     1       3.138   5.765  18.553  0.00  0.00    +0.000 A 
ATOM      6  C   UNL     1       2.623   6.906  19.188  0.00  0.00    +0.000 A 
ATOM      7  C   UNL     1       1.867   6.792  20.357  0.00  0.00    +0.000 A 
ATOM      8  C   UNL     1       1.632   5.534  20.911  0.00  0.00    +0.000 A 
ATOM      9  C   UNL     1       2.150   4.393  20.280  0.00  0.00    +0.000 A 
ATOM     10  C   UNL     1       2.900   4.498  19.098  0.00  0.00    +0.000 A 
BRANCH   9  11
ATOM     11  N   UNL     1       1.924   3.073  20.881  0.00  0.00    +0.000 N 
ATOM     12  O   UNL     1       1.913   2.995  22.118  0.00  0.00    +0.000 OA
ATOM     13  O   UNL     1       1.756   2.113  20.115  0.00  0.00    +0.000 OA
ENDBRANCH   9  11
ENDBRANCH   2   5
BRANCH   1  14
ATOM     14  C   UNL     1       5.425   4.964  15.622  0.00  0.00    +0.000 C 
BRANCH  14  15
ATOM     15  C   UNL     1       6.854   5.375  16.042  0.00  0.00    +0.000 C 
BRANCH  15  16
ATOM     16  O   UNL     1       7.744   5.457  14.922  0.00  0.00    +0.000 OA
BRANCH  16  18
ATOM     17  C   UNL     1       7.903   5.424  12.534  0.00  0.00    +0.000 C 
ATOM     18  C   UNL     1       7.250   4.807  13.754  0.00  0.00    +0.000 C 
ENDBRANCH  16  18
ENDBRANCH  15  16
BRANCH  15  19
ATOM     19  O   UNL     1       7.340   4.396  16.976  0.00  0.00    +0.000 OA
BRANCH  19  20
ATOM     20  C   UNL     1       7.615   4.964  18.256  0.00  0.00    +0.000 C 
ATOM     21  C   UNL     1       7.562   6.477  18.146  0.00  0.00    +0.000 C 
ENDBRANCH  19  20
ENDBRANCH  15  19
ENDBRANCH  14  15
ENDBRANCH   1  14
TORSDOF 8
ENDMDL
MODEL 9
REMARK VINA RESULT:      -6.2      2.677      6.884
REMARK  Name = 
REMARK  10 active torsions:
REMARK  status: ('A' for Active; 'I' for Inactive)
REMARK    1  A    between atoms: C_1  and  C_2
REMARK    2  A    between atoms: C_2  and  O_3
REMARK    3  A    between atoms: O_3  and  C_4
REMARK    4  A    between atoms: C_4  and  C_5
REMARK    5  A    between atoms: C_4  and  O_18
REMARK    6  A    between atoms: C_5  and  N_6
REMARK    7  A    between atoms: C_7  and  C_9
REMARK    8  A    between atoms: C_13  and  N_14
REMARK    9  A    between atoms: O_18  and  C_19
REMARK   10  A    between atoms: C_19  and  C_20
REMARK                            x       y       z     vdW  Elec       q    Type
REMARK                         _______ _______ _______ _____ _____    ______ ____
ROOT
ATOM      1  N   UNL     1       4.960   4.245  16.471  0.00  0.00    +0.000 N 
ATOM      2  C   UNL     1       5.590   5.163  15.668  0.00  0.00    +0.000 C 
ATOM      3  O   UNL     1       5.736   6.339  15.983  0.00  0.00    +0.000 OA
ATOM      4  H   UNL     1       4.911   3.260  16.246  0.00  0.00    +0.000 HD
ENDROOT
BRANCH   2   5
ATOM      5  C   UNL     1       6.124   4.685  14.364  0.00  0.00    +0.000 A 
ATOM      6  C   UNL     1       7.309   5.266  13.885  0.00  0.00    +0.000 A 
ATOM      7  C   UNL     1       7.819   4.914  12.633  0.00  0.00    +0.000 A 
ATOM      8  C   UNL     1       7.140   3.989  11.841  0.00  0.00    +0.000 A 
ATOM      9  C   UNL     1       5.953   3.411  12.318  0.00  0.00    +0.000 A 
ATOM     10  C   UNL     1       5.440   3.750  13.580  0.00  0.00    +0.000 A 
BRANCH   9  11
ATOM     11  N   UNL     1       5.225   2.459  11.471  0.00  0.00    +0.000 N 
ATOM     12  O   UNL     1       4.111   2.797  11.046  0.00  0.00    +0.000 OA
ATOM     13  O   UNL     1       5.770   1.372  11.227  0.00  0.00    +0.000 OA
ENDBRANCH   9  11
ENDBRANCH   2   5
BRANCH   1  14
ATOM     14  C   UNL     1       4.329   4.671  17.717  0.00  0.00    +0.000 C 
BRANCH  14  15
ATOM     15  C   UNL     1       4.589   3.723  18.909  0.00  0.00    +0.000 C 
BRANCH  15  16
ATOM     16  O   UNL     1       3.583   3.841  19.924  0.00  0.00    +0.000 OA
BRANCH  16  18
ATOM     17  C   UNL     1       1.927   5.444  20.571  0.00  0.00    +0.000 C 
ATOM     18  C   UNL     1       2.404   4.507  19.480  0.00  0.00    +0.000 C 
ENDBRANCH  16  18
ENDBRANCH  15  16
BRANCH  15  19
ATOM     19  O   UNL     1       5.874   4.048  19.463  0.00  0.00    +0.000 OA
BRANCH  19  20
ATOM     20  C   UNL     1       6.159   5.444  19.378  0.00  0.00    +0.000 C 
ATOM     21  C   UNL     1       7.626   5.628  19.038  0.00  0.00    +0.000 C 
ENDBRANCH  19  20
ENDBRANCH  15  19
ENDBRANCH  14  15
ENDBRANCH   1  14
TORSDOF 8
ENDMDL
