MODEL 1
REMARK VINA RESULT:      -6.5      0.000      0.000
REMARK  Name = 
REMARK  4 active torsions:
REMARK  status: ('A' for Active; 'I' for Inactive)
REMARK    1  A    between atoms: C_1  and  C_2
REMARK    2  A    between atoms: C_5  and  C_6
REMARK    3  A    between atoms: C_6  and  C_7
REMARK    4  A    between atoms: N_9  and  C_10
REMARK                            x       y       z     vdW  Elec       q    Type
REMARK                         _______ _______ _______ _____ _____    ______ ____
ROOT
ATOM      1  C   UNL     1       6.675   5.096  16.730  0.00  0.00    +0.000 C 
ATOM      2  O   UNL     1       7.655   4.388  16.957  0.00  0.00    +0.000 OA
ATOM      3  N   UNL     1       5.968   5.021  15.546  0.00  0.00    +0.000 N 
ATOM      4  H   UNL     1       5.387   5.817  15.299  0.00  0.00    +0.000 HD
ENDROOT
BRANCH   3   5
ATOM      5  C   UNL     1       6.445   4.177  14.456  0.00  0.00    +0.000 C 
ATOM      6  C   UNL     1       5.323   3.740  13.511  0.00  0.00    +0.000 C 
ATOM      7  C   UNL     1       5.976   3.209  12.249  0.00  0.00    +0.000 C 
ATOM      8  S   UNL     1       7.276   4.416  11.880  0.00  0.00    +0.000 S 
ATOM      9  C   UNL     1       7.439   4.909  13.564  0.00  0.00    +0.000 C 
ATOM     10  O   UNL     1       8.272   5.721  13.943  0.00  0.00    +0.000 OA
ENDBRANCH   3   5
BRANCH   1  11
ATOM     11  C   UNL     1       6.117   6.051  17.767  0.00  0.00    +0.000 C 
BRANCH  11  16
ATOM     12  C   UNL     1       1.162   4.286  20.281  0.00  0.00    +0.000 C 
ATOM     13  C   UNL     1       2.443   4.743  19.647  0.00  0.00    +0.000 A 
ATOM     14  C   UNL     1       3.619   4.000  19.787  0.00  0.00    +0.000 A 
ATOM     15  C   UNL     1       4.802   4.424  19.177  0.00  0.00    +0.000 A 
ATOM     16  C   UNL     1       4.830   5.597  18.411  0.00  0.00    +0.000 A 
ATOM     17  C   UNL     1       3.658   6.355  18.291  0.00  0.00    +0.000 A 
ATOM     18  C   UNL     1       2.473   5.927  18.902  0.00  0.00    +0.000 A 
ENDBRANCH  11  16
ENDBRANCH   1  11
TORSDOF 3
ENDMDL
MODEL 2
REMARK VINA RESULT:      -6.4      0.135      1.176
REMARK  Name = 
REMARK  4 active torsions:
REMARK  status: ('A' for Active; 'I' for Inactive)
REMARK    1  A    between atoms: C_1  and  C_2
REMARK    2  A    between atoms: C_5  and  C_6
REMARK    3  A    between atoms: C_6  and  C_7
REMARK    4  A    between atoms: N_9  and  C_10
REMARK                            x       y       z     vdW  Elec       q    Type
REMARK                         _______ _______ _______ _____ _____    ______ ____
ROOT
ATOM      1  C   UNL     1       6.687   5.180  16.634  0.00  0.00    +0.000 C 
ATOM      2  O   UNL     1       7.663   4.473  16.882  0.00  0.00    +0.000 OA
ATOM      3  N   UNL     1       5.980   5.075  15.453  0.00  0.00    +0.000 N 
ATOM      4  H   UNL     1       5.403   5.866  15.183  0.00  0.00    +0.000 HD
ENDROOT
BRANCH   3   5
ATOM      5  C   UNL     1       6.452   4.198  14.387  0.00  0.00    +0.000 C 
ATOM      6  C   UNL     1       5.326   3.727  13.464  0.00  0.00    +0.000 C 
ATOM      7  C   UNL     1       5.971   3.158  12.216  0.00  0.00    +0.000 C 
ATOM      8  S   UNL     1       7.264   4.357  11.800  0.00  0.00    +0.000 S 
ATOM      9  C   UNL     1       7.438   4.904  13.466  0.00  0.00    +0.000 C 
ATOM     10  O   UNL     1       8.270   5.731  13.813  0.00  0.00    +0.000 OA
ENDBRANCH   3   5
BRANCH   1  11
ATOM     11  C   UNL     1       6.134   6.167  17.644  0.00  0.00    +0.000 C 
BRANCH  11  16
ATOM     12  C   UNL     1       1.225   4.443  20.274  0.00  0.00    +0.000 C 
ATOM     13  C   UNL     1       2.483   4.883  19.584  0.00  0.00    +0.000 A 
ATOM     14  C   UNL     1       2.492   6.009  18.756  0.00  0.00    +0.000 A 
ATOM     15  C   UNL     1       3.673   6.422  18.134  0.00  0.00    +0.000 A 
ATOM     16  C   UNL     1       4.868   5.718  18.332  0.00  0.00    +0.000 A 
ATOM     17  C   UNL     1       4.854   4.574  19.142  0.00  0.00    +0.000 A 
ATOM     18  C   UNL     1       3.670   4.165  19.766  0.00  0.00    +0.000 A 
ENDBRANCH  11  16
ENDBRANCH   1  11
TORSDOF 3
ENDMDL
MODEL 3
REMARK VINA RESULT:      -6.3      3.218      6.443
REMARK  Name = 
REMARK  4 active torsions:
REMARK  status: ('A' for Active; 'I' for Inactive)
REMARK    1  A    between atoms: C_1  and  C_2
REMARK    2  A    between atoms: C_5  and  C_6
REMARK    3  A    between atoms: C_6  and  C_7
REMARK    4  A    between atoms: N_9  and  C_10
REMARK                            x       y       z     vdW  Elec       q    Type
REMARK                         _______ _______ _______ _____ _____    ______ ____
ROOT
ATOM      1  C   UNL     1       5.461   4.961  18.557  0.00  0.00    +0.000 C 
ATOM      2  O   UNL     1       6.224   4.291  19.252  0.00  0.00    +0.000 OA
ATOM      3  N   UNL     1       4.096   4.973  18.762  0.00  0.00    +0.000 N 
ATOM      4  H   UNL     1       3.511   5.284  17.991  0.00  0.00    +0.000 HD
ENDROOT
BRANCH   3   5
ATOM      5  C   UNL     1       3.489   4.077  19.740  0.00  0.00    +0.000 C 
ATOM      6  C   UNL     1       2.365   4.743  20.538  0.00  0.00    +0.000 C 
ATOM      7  C   UNL     1       1.583   3.640  21.224  0.00  0.00    +0.000 C 
ATOM      8  S   UNL     1       1.381   2.375  19.944  0.00  0.00    +0.000 S 
ATOM      9  C   UNL     1       2.833   2.873  19.077  0.00  0.00    +0.000 C 
ATOM     10  O   UNL     1       3.250   2.291  18.085  0.00  0.00    +0.000 OA
ENDBRANCH   3   5
BRANCH   1  11
ATOM     11  C   UNL     1       5.970   5.892  17.474  0.00  0.00    +0.000 C 
BRANCH  11  16
ATOM     12  C   UNL     1       6.483   3.433  12.213  0.00  0.00    +0.000 C 
ATOM     13  C   UNL     1       6.341   4.075  13.562  0.00  0.00    +0.000 A 
ATOM     14  C   UNL     1       5.188   3.886  14.328  0.00  0.00    +0.000 A 
ATOM     15  C   UNL     1       5.073   4.472  15.592  0.00  0.00    +0.000 A 
ATOM     16  C   UNL     1       6.111   5.254  16.114  0.00  0.00    +0.000 A 
ATOM     17  C   UNL     1       7.257   5.464  15.334  0.00  0.00    +0.000 A 
ATOM     18  C   UNL     1       7.371   4.874  14.070  0.00  0.00    +0.000 A 
ENDBRANCH  11  16
ENDBRANCH   1  11
TORSDOF 3
ENDMDL
MODEL 4
REMARK VINA RESULT:      -6.3      3.268      6.498
REMARK  Name = 
REMARK  4 active torsions:
REMARK  status: ('A' for Active; 'I' for Inactive)
REMARK    1  A    between atoms: C_1  and  C_2
REMARK    2  A    between atoms: C_5  and  C_6
REMARK    3  A    between atoms: C_6  and  C_7
REMARK    4  A    between atoms: N_9  and  C_10
REMARK                            x       y       z     vdW  Elec       q    Type
REMARK                         _______ _______ _______ _____ _____    ______ ____
ROOT
ATOM      1  C   UNL     1       5.295   4.810  18.543  0.00  0.00    +0.000 C 
ATOM      2  O   UNL     1       6.039   4.046  19.155  0.00  0.00    +0.000 OA
ATOM      3  N   UNL     1       3.942   4.890  18.805  0.00  0.00    +0.000 N 
ATOM      4  H   UNL     1       3.350   5.292  18.084  0.00  0.00    +0.000 HD
ENDROOT
BRANCH   3   5
ATOM      5  C   UNL     1       3.317   3.963  19.742  0.00  0.00    +0.000 C 
ATOM      6  C   UNL     1       2.282   4.639  20.644  0.00  0.00    +0.000 C 
ATOM      7  C   UNL     1       1.454   3.542  21.284  0.00  0.00    +0.000 C 
ATOM      8  S   UNL     1       1.102   2.400  19.922  0.00  0.00    +0.000 S 
ATOM      9  C   UNL     1       2.545   2.864  19.024  0.00  0.00    +0.000 C 
ATOM     10  O   UNL     1       2.873   2.335  17.970  0.00  0.00    +0.000 OA
ENDBRANCH   3   5
BRANCH   1  11
ATOM     11  C   UNL     1       5.821   5.785  17.508  0.00  0.00    +0.000 C 
BRANCH  11  16
ATOM     12  C   UNL     1       6.532   3.523  12.182  0.00  0.00    +0.000 C 
ATOM     13  C   UNL     1       6.358   4.096  13.558  0.00  0.00    +0.000 A 
ATOM     14  C   UNL     1       7.387   4.817  14.170  0.00  0.00    +0.000 A 
ATOM     15  C   UNL     1       7.209   5.363  15.444  0.00  0.00    +0.000 A 
ATOM     16  C   UNL     1       5.997   5.202  16.127  0.00  0.00    +0.000 A 
ATOM     17  C   UNL     1       4.974   4.456  15.524  0.00  0.00    +0.000 A 
ATOM     18  C   UNL     1       5.155   3.913  14.247  0.00  0.00    +0.000 A 
ENDBRANCH  11  16
ENDBRANCH   1  11
TORSDOF 3
ENDMDL
MODEL 5
REMARK VINA RESULT:      -6.2      4.089      6.292
REMARK  Name = 
REMARK  4 active torsions:
REMARK  status: ('A' for Active; 'I' for Inactive)
REMARK    1  A    between atoms: C_1  and  C_2
REMARK    2  A    between atoms: C_5  and  C_6
REMARK    3  A    between atoms: C_6  and  C_7
REMARK    4  A    between atoms: N_9  and  C_10
REMARK                            x       y       z     vdW  Elec       q    Type
REMARK                         _______ _______ _______ _____ _____    ______ ____
ROOT
ATOM      1  C   UNL     1       4.848   3.995  18.398  0.00  0.00    +0.000 C 
ATOM      2  O   UNL     1       4.480   4.805  19.248  0.00  0.00    +0.000 OA
ATOM      3  N   UNL     1       4.161   2.825  18.147  0.00  0.00    +0.000 N 
ATOM      4  H   UNL     1       4.666   2.079  17.676  0.00  0.00    +0.000 HD
ENDROOT
BRANCH   3   5
ATOM      5  C   UNL     1       3.030   2.440  18.985  0.00  0.00    +0.000 C 
ATOM      6  C   UNL     1       3.277   2.702  20.472  0.00  0.00    +0.000 C 
ATOM      7  C   UNL     1       1.935   2.627  21.173  0.00  0.00    +0.000 C 
ATOM      8  S   UNL     1       0.816   3.557  20.094  0.00  0.00    +0.000 S 
ATOM      9  C   UNL     1       1.778   3.241  18.652  0.00  0.00    +0.000 C 
ATOM     10  O   UNL     1       1.445   3.612  17.534  0.00  0.00    +0.000 OA
ENDBRANCH   3   5
BRANCH   1  11
ATOM     11  C   UNL     1       6.041   4.260  17.501  0.00  0.00    +0.000 C 
BRANCH  11  16
ATOM     12  C   UNL     1       8.548   9.471  18.243  0.00  0.00    +0.000 C 
ATOM     13  C   UNL     1       7.914   8.125  18.046  0.00  0.00    +0.000 A 
ATOM     14  C   UNL     1       8.334   7.019  18.790  0.00  0.00    +0.000 A 
ATOM     15  C   UNL     1       7.725   5.773  18.613  0.00  0.00    +0.000 A 
ATOM     16  C   UNL     1       6.682   5.613  17.692  0.00  0.00    +0.000 A 
ATOM     17  C   UNL     1       6.279   6.716  16.927  0.00  0.00    +0.000 A 
ATOM     18  C   UNL     1       6.889   7.963  17.108  0.00  0.00    +0.000 A 
ENDBRANCH  11  16
ENDBRANCH   1  11
TORSDOF 3
ENDMDL
MODEL 6
REMARK VINA RESULT:      -6.1      3.029      4.113
REMARK  Name = 
REMARK  4 active torsions:
REMARK  status: ('A' for Active; 'I' for Inactive)
REMARK    1  A    between atoms: C_1  and  C_2
REMARK    2  A    between atoms: C_5  and  C_6
REMARK    3  A    between atoms: C_6  and  C_7
REMARK    4  A    between atoms: N_9  and  C_10
REMARK                            x       y       z     vdW  Elec       q    Type
REMARK                         _______ _______ _______ _____ _____    ______ ____
ROOT
ATOM      1  C   UNL     1       4.718   4.122  16.334  0.00  0.00    +0.000 C 
ATOM      2  O   UNL     1       5.585   3.582  15.647  0.00  0.00    +0.000 OA
ATOM      3  N   UNL     1       4.936   5.314  16.994  0.00  0.00    +0.000 N 
ATOM      4  H   UNL     1       4.315   5.540  17.766  0.00  0.00    +0.000 HD
ENDROOT
BRANCH   3   5
ATOM      5  C   UNL     1       6.264   5.918  17.006  0.00  0.00    +0.000 C 
ATOM      6  C   UNL     1       6.221   7.444  17.117  0.00  0.00    +0.000 C 
ATOM      7  C   UNL     1       7.612   7.910  17.496  0.00  0.00    +0.000 C 
ATOM      8  S   UNL     1       8.127   6.757  18.796  0.00  0.00    +0.000 S 
ATOM      9  C   UNL     1       7.082   5.466  18.208  0.00  0.00    +0.000 C 
ATOM     10  O   UNL     1       7.057   4.349  18.707  0.00  0.00    +0.000 OA
ENDBRANCH   3   5
BRANCH   1  11
ATOM     11  C   UNL     1       3.314   3.560  16.440  0.00  0.00    +0.000 C 
BRANCH  11  16
ATOM     12  C   UNL     1       1.434   2.659  21.885  0.00  0.00    +0.000 C 
ATOM     13  C   UNL     1       1.909   2.881  20.478  0.00  0.00    +0.000 A 
ATOM     14  C   UNL     1       1.084   3.492  19.530  0.00  0.00    +0.000 A 
ATOM     15  C   UNL     1       1.542   3.711  18.228  0.00  0.00    +0.000 A 
ATOM     16  C   UNL     1       2.836   3.328  17.852  0.00  0.00    +0.000 A 
ATOM     17  C   UNL     1       3.654   2.693  18.796  0.00  0.00    +0.000 A 
ATOM     18  C   UNL     1       3.193   2.476  20.100  0.00  0.00    +0.000 A 
ENDBRANCH  11  16
ENDBRANCH   1  11
TORSDOF 3
ENDMDL
MODEL 7
REMARK VINA RESULT:      -6.1      3.093      4.014
REMARK  Name = 
REMARK  4 active torsions:
REMARK  status: ('A' for Active; 'I' for Inactive)
REMARK    1  A    between atoms: C_1  and  C_2
REMARK    2  A    between atoms: C_5  and  C_6
REMARK    3  A    between atoms: C_6  and  C_7
REMARK    4  A    between atoms: N_9  and  C_10
REMARK                            x       y       z     vdW  Elec       q    Type
REMARK                         _______ _______ _______ _____ _____    ______ ____
ROOT
ATOM      1  C   UNL     1       4.560   4.115  16.493  0.00  0.00    +0.000 C 
ATOM      2  O   UNL     1       5.420   3.461  15.904  0.00  0.00    +0.000 OA
ATOM      3  N   UNL     1       4.818   5.361  17.029  0.00  0.00    +0.000 N 
ATOM      4  H   UNL     1       4.184   5.700  17.746  0.00  0.00    +0.000 HD
ENDROOT
BRANCH   3   5
ATOM      5  C   UNL     1       6.175   5.896  17.030  0.00  0.00    +0.000 C 
ATOM      6  C   UNL     1       6.210   7.424  17.109  0.00  0.00    +0.000 C 
ATOM      7  C   UNL     1       7.624   7.826  17.480  0.00  0.00    +0.000 C 
ATOM      8  S   UNL     1       8.080   6.675  18.803  0.00  0.00    +0.000 S 
ATOM      9  C   UNL     1       6.970   5.427  18.241  0.00  0.00    +0.000 C 
ATOM     10  O   UNL     1       6.888   4.324  18.763  0.00  0.00    +0.000 OA
ENDBRANCH   3   5
BRANCH   1  11
ATOM     11  C   UNL     1       3.125   3.638  16.602  0.00  0.00    +0.000 C 
BRANCH  11  16
ATOM     12  C   UNL     1       1.379   2.527  22.052  0.00  0.00    +0.000 C 
ATOM     13  C   UNL     1       1.836   2.824  20.654  0.00  0.00    +0.000 A 
ATOM     14  C   UNL     1       3.151   2.560  20.258  0.00  0.00    +0.000 A 
ATOM     15  C   UNL     1       3.562   2.822  18.948  0.00  0.00    +0.000 A 
ATOM     16  C   UNL     1       2.665   3.348  18.010  0.00  0.00    +0.000 A 
ATOM     17  C   UNL     1       1.355   3.637  18.414  0.00  0.00    +0.000 A 
ATOM     18  C   UNL     1       0.945   3.371  19.726  0.00  0.00    +0.000 A 
ENDBRANCH  11  16
ENDBRANCH   1  11
TORSDOF 3
ENDMDL
MODEL 8
REMARK VINA RESULT:      -6.1      3.766      6.191
REMARK  Name = 
REMARK  4 active torsions:
REMARK  status: ('A' for Active; 'I' for Inactive)
REMARK    1  A    between atoms: C_1  and  C_2
REMARK    2  A    between atoms: C_5  and  C_6
REMARK    3  A    between atoms: C_6  and  C_7
REMARK    4  A    between atoms: N_9  and  C_10
REMARK                            x       y       z     vdW  Elec       q    Type
REMARK                         _______ _______ _______ _____ _____    ______ ____
ROOT
ATOM      1  C   UNL     1       5.167   4.317  17.311  0.00  0.00    +0.000 C 
ATOM      2  O   UNL     1       4.504   4.907  16.459  0.00  0.00    +0.000 OA
ATOM      3  N   UNL     1       4.587   3.506  18.266  0.00  0.00    +0.000 N 
ATOM      4  H   UNL     1       5.131   3.306  19.100  0.00  0.00    +0.000 HD
ENDROOT
BRANCH   3   5
ATOM      5  C   UNL     1       3.135   3.424  18.380  0.00  0.00    +0.000 C 
ATOM      6  C   UNL     1       2.636   1.990  18.574  0.00  0.00    +0.000 C 
ATOM      7  C   UNL     1       1.199   2.072  19.050  0.00  0.00    +0.000 C 
ATOM      8  S   UNL     1       1.221   3.377  20.307  0.00  0.00    +0.000 S 
ATOM      9  C   UNL     1       2.617   4.183  19.594  0.00  0.00    +0.000 C 
ATOM     10  O   UNL     1       3.075   5.231  20.028  0.00  0.00    +0.000 OA
ENDBRANCH   3   5
BRANCH   1  11
ATOM     11  C   UNL     1       6.682   4.369  17.326  0.00  0.00    +0.000 C 
BRANCH  11  16
ATOM     12  C   UNL     1       8.891   9.570  18.760  0.00  0.00    +0.000 C 
ATOM     13  C   UNL     1       8.309   8.236  18.393  0.00  0.00    +0.000 A 
ATOM     14  C   UNL     1       7.599   8.066  17.201  0.00  0.00    +0.000 A 
ATOM     15  C   UNL     1       7.078   6.815  16.859  0.00  0.00    +0.000 A 
ATOM     16  C   UNL     1       7.261   5.711  17.701  0.00  0.00    +0.000 A 
ATOM     17  C   UNL     1       7.950   5.888  18.908  0.00  0.00    +0.000 A 
ATOM     18  C   UNL     1       8.473   7.141  19.247  0.00  0.00    +0.000 A 
ENDBRANCH  11  16
ENDBRANCH   1  11
TORSDOF 3
ENDMDL
MODEL 9
REMARK VINA RESULT:      -6.0      4.360      5.837
REMARK  Name = 
REMARK  4 active torsions:
REMARK  status: ('A' for Active; 'I' for Inactive)
REMARK    1  A    between atoms: C_1  and  C_2
REMARK    2  A    between atoms: C_5  and  C_6
REMARK    3  A    between atoms: C_6  and  C_7
REMARK    4  A    between atoms: N_9  and  C_10
REMARK                            x       y       z     vdW  Elec       q    Type
REMARK                         _______ _______ _______ _____ _____    ______ ____
ROOT
ATOM      1  C   UNL     1       2.960   7.375  17.837  0.00  0.00    +0.000 C 
ATOM      2  O   UNL     1       4.167   7.519  17.651  0.00  0.00    +0.000 OA
ATOM      3  N   UNL     1       2.400   6.149  18.136  0.00  0.00    +0.000 N 
ATOM      4  H   UNL     1       1.403   6.040  17.974  0.00  0.00    +0.000 HD
ENDROOT
BRANCH   3   5
ATOM      5  C   UNL     1       3.217   4.941  18.113  0.00  0.00    +0.000 C 
ATOM      6  C   UNL     1       3.946   4.692  19.435  0.00  0.00    +0.000 C 
ATOM      7  C   UNL     1       4.436   3.258  19.419  0.00  0.00    +0.000 C 
ATOM      8  S   UNL     1       3.026   2.314  18.782  0.00  0.00    +0.000 S 
ATOM      9  C   UNL     1       2.375   3.691  17.894  0.00  0.00    +0.000 C 
ATOM     10  O   UNL     1       1.383   3.615  17.181  0.00  0.00    +0.000 OA
ENDBRANCH   3   5
BRANCH   1  11
ATOM     11  C   UNL     1       2.002   8.551  17.834  0.00  0.00    +0.000 C 
BRANCH  11  16
ATOM     12  C   UNL     1      -0.333   9.759  23.038  0.00  0.00    +0.000 C 
ATOM     13  C   UNL     1       0.280   9.453  21.703  0.00  0.00    +0.000 A 
ATOM     14  C   UNL     1       1.194   8.405  21.556  0.00  0.00    +0.000 A 
ATOM     15  C   UNL     1       1.745   8.115  20.305  0.00  0.00    +0.000 A 
ATOM     16  C   UNL     1       1.390   8.865  19.177  0.00  0.00    +0.000 A 
ATOM     17  C   UNL     1       0.494   9.932  19.329  0.00  0.00    +0.000 A 
ATOM     18  C   UNL     1      -0.059  10.219  20.582  0.00  0.00    +0.000 A 
ENDBRANCH  11  16
ENDBRANCH   1  11
TORSDOF 3
ENDMDL
