MODEL 1
REMARK VINA RESULT:      -8.4      0.000      0.000
REMARK  Name = 
REMARK  3 active torsions:
REMARK  status: ('A' for Active; 'I' for Inactive)
REMARK    1  A    between atoms: C_4  and  C_5
REMARK    2  A    between atoms: C_5  and  C_6
REMARK    3  A    between atoms: C_12  and  C_13
REMARK                            x       y       z     vdW  Elec       q    Type
REMARK                         _______ _______ _______ _____ _____    ______ ____
ROOT
ATOM      1  C   UNL     1       4.317   3.773  18.374  0.00  0.00    +0.000 A 
ATOM      2  N   UNL     1       4.325   2.609  19.001  0.00  0.00    +0.000 NA
ATOM      3  N   UNL     1       3.458   2.692  20.069  0.00  0.00    +0.000 NA
ATOM      4  C   UNL     1       2.946   3.904  20.072  0.00  0.00    +0.000 A 
ATOM      5  C   UNL     1       2.055   4.556  20.944  0.00  0.00    +0.000 A 
ATOM      6  C   UNL     1       1.717   5.830  20.701  0.00  0.00    +0.000 A 
ATOM      7  C   UNL     1       2.325   6.496  19.503  0.00  0.00    +0.000 A 
ATOM      8  N   UNL     1       3.141   5.918  18.667  0.00  0.00    +0.000 NA
ATOM      9  N   UNL     1       3.432   4.620  18.998  0.00  0.00    +0.000 N 
ENDROOT
BRANCH   7  10
ATOM     10  C   UNL     1       1.938   7.918  19.278  0.00  0.00    +0.000 A 
ATOM     11  C   UNL     1       2.224   8.570  18.072  0.00  0.00    +0.000 A 
ATOM     12  C   UNL     1       1.854   9.904  17.891  0.00  0.00    +0.000 A 
ATOM     13  C   UNL     1       1.187  10.587  18.905  0.00  0.00    +0.000 A 
ATOM     14  C   UNL     1       0.878   9.937  20.101  0.00  0.00    +0.000 A 
ATOM     15  C   UNL     1       1.248   8.603  20.288  0.00  0.00    +0.000 A 
ENDBRANCH   7  10
BRANCH   1  16
ATOM     16  C   UNL     1       5.195   4.191  17.252  0.00  0.00    +0.000 C 
BRANCH  16  20
ATOM     17  C   UNL     1       8.034   7.249  18.353  0.00  0.00    +0.000 A 
ATOM     18  C   UNL     1       7.178   7.449  17.272  0.00  0.00    +0.000 A 
ATOM     19  C   UNL     1       6.272   6.454  16.902  0.00  0.00    +0.000 A 
ATOM     20  C   UNL     1       6.212   5.247  17.616  0.00  0.00    +0.000 A 
ATOM     21  C   UNL     1       7.096   5.046  18.686  0.00  0.00    +0.000 A 
ATOM     22  C   UNL     1       7.997   6.046  19.056  0.00  0.00    +0.000 A 
ENDBRANCH  16  20
ENDBRANCH   1  16
TORSDOF 3
ENDMDL
MODEL 2
REMARK VINA RESULT:      -8.3      1.244      2.253
REMARK  Name = 
REMARK  3 active torsions:
REMARK  status: ('A' for Active; 'I' for Inactive)
REMARK    1  A    between atoms: C_4  and  C_5
REMARK    2  A    between atoms: C_5  and  C_6
REMARK    3  A    between atoms: C_12  and  C_13
REMARK                            x       y       z     vdW  Elec       q    Type
REMARK                         _______ _______ _______ _____ _____    ______ ____
ROOT
ATOM      1  C   UNL     1       4.940   3.927  19.279  0.00  0.00    +0.000 A 
ATOM      2  N   UNL     1       4.846   2.697  19.753  0.00  0.00    +0.000 NA
ATOM      3  N   UNL     1       3.628   2.575  20.388  0.00  0.00    +0.000 NA
ATOM      4  C   UNL     1       3.012   3.733  20.291  0.00  0.00    +0.000 A 
ATOM      5  C   UNL     1       1.779   4.197  20.786  0.00  0.00    +0.000 A 
ATOM      6  C   UNL     1       1.411   5.461  20.540  0.00  0.00    +0.000 A 
ATOM      7  C   UNL     1       2.350   6.320  19.748  0.00  0.00    +0.000 A 
ATOM      8  N   UNL     1       3.490   5.919  19.262  0.00  0.00    +0.000 NA
ATOM      9  N   UNL     1       3.786   4.616  19.568  0.00  0.00    +0.000 N 
ENDROOT
BRANCH   7  10
ATOM     10  C   UNL     1       1.910   7.725  19.511  0.00  0.00    +0.000 A 
ATOM     11  C   UNL     1       1.305   8.480  20.524  0.00  0.00    +0.000 A 
ATOM     12  C   UNL     1       0.899   9.792  20.273  0.00  0.00    +0.000 A 
ATOM     13  C   UNL     1       1.106  10.359  19.018  0.00  0.00    +0.000 A 
ATOM     14  C   UNL     1       1.729   9.620  18.011  0.00  0.00    +0.000 A 
ATOM     15  C   UNL     1       2.135   8.306  18.256  0.00  0.00    +0.000 A 
ENDBRANCH   7  10
BRANCH   1  16
ATOM     16  C   UNL     1       6.127   4.553  18.643  0.00  0.00    +0.000 C 
BRANCH  16  20
ATOM     17  C   UNL     1       6.108   4.456  14.328  0.00  0.00    +0.000 A 
ATOM     18  C   UNL     1       4.984   4.043  15.040  0.00  0.00    +0.000 A 
ATOM     19  C   UNL     1       4.994   4.055  16.436  0.00  0.00    +0.000 A 
ATOM     20  C   UNL     1       6.133   4.487  17.133  0.00  0.00    +0.000 A 
ATOM     21  C   UNL     1       7.268   4.875  16.407  0.00  0.00    +0.000 A 
ATOM     22  C   UNL     1       7.251   4.867  15.011  0.00  0.00    +0.000 A 
ENDBRANCH  16  20
ENDBRANCH   1  16
TORSDOF 3
ENDMDL
MODEL 3
REMARK VINA RESULT:      -8.3      0.099      1.036
REMARK  Name = 
REMARK  3 active torsions:
REMARK  status: ('A' for Active; 'I' for Inactive)
REMARK    1  A    between atoms: C_4  and  C_5
REMARK    2  A    between atoms: C_5  and  C_6
REMARK    3  A    between atoms: C_12  and  C_13
REMARK                            x       y       z     vdW  Elec       q    Type
REMARK                         _______ _______ _______ _____ _____    ______ ____
ROOT
ATOM      1  C   UNL     1       4.202   3.817  18.337  0.00  0.00    +0.000 A 
ATOM      2  N   UNL     1       4.209   2.647  18.952  0.00  0.00    +0.000 NA
ATOM      3  N   UNL     1       3.356   2.726  20.032  0.00  0.00    +0.000 NA
ATOM      4  C   UNL     1       2.855   3.942  20.054  0.00  0.00    +0.000 A 
ATOM      5  C   UNL     1       1.980   4.592  20.944  0.00  0.00    +0.000 A 
ATOM      6  C   UNL     1       1.650   5.870  20.719  0.00  0.00    +0.000 A 
ATOM      7  C   UNL     1       2.246   6.544  19.520  0.00  0.00    +0.000 A 
ATOM      8  N   UNL     1       3.047   5.969  18.668  0.00  0.00    +0.000 NA
ATOM      9  N   UNL     1       3.332   4.665  18.981  0.00  0.00    +0.000 N 
ENDROOT
BRANCH   7  10
ATOM     10  C   UNL     1       1.868   7.972  19.315  0.00  0.00    +0.000 A 
ATOM     11  C   UNL     1       1.184   8.693  20.301  0.00  0.00    +0.000 A 
ATOM     12  C   UNL     1       0.838  10.028  20.080  0.00  0.00    +0.000 A 
ATOM     13  C   UNL     1       1.184  10.650  18.882  0.00  0.00    +0.000 A 
ATOM     14  C   UNL     1       1.885   9.943  17.904  0.00  0.00    +0.000 A 
ATOM     15  C   UNL     1       2.232   8.607  18.120  0.00  0.00    +0.000 A 
ENDBRANCH   7  10
BRANCH   1  16
ATOM     16  C   UNL     1       5.068   4.240  17.207  0.00  0.00    +0.000 C 
BRANCH  16  20
ATOM     17  C   UNL     1       7.983   7.225  18.315  0.00  0.00    +0.000 A 
ATOM     18  C   UNL     1       7.131   7.449  17.235  0.00  0.00    +0.000 A 
ATOM     19  C   UNL     1       6.200   6.477  16.863  0.00  0.00    +0.000 A 
ATOM     20  C   UNL     1       6.111   5.270  17.574  0.00  0.00    +0.000 A 
ATOM     21  C   UNL     1       6.991   5.044  18.642  0.00  0.00    +0.000 A 
ATOM     22  C   UNL     1       7.917   6.022  19.014  0.00  0.00    +0.000 A 
ENDBRANCH  16  20
ENDBRANCH   1  16
TORSDOF 3
ENDMDL
MODEL 4
REMARK VINA RESULT:      -8.3      1.230      2.294
REMARK  Name = 
REMARK  3 active torsions:
REMARK  status: ('A' for Active; 'I' for Inactive)
REMARK    1  A    between atoms: C_4  and  C_5
REMARK    2  A    between atoms: C_5  and  C_6
REMARK    3  A    between atoms: C_12  and  C_13
REMARK                            x       y       z     vdW  Elec       q    Type
REMARK                         _______ _______ _______ _____ _____    ______ ____
ROOT
ATOM      1  C   UNL     1       4.974   3.994  19.233  0.00  0.00    +0.000 A 
ATOM      2  N   UNL     1       4.901   2.761  19.701  0.00  0.00    +0.000 NA
ATOM      3  N   UNL     1       3.695   2.621  20.354  0.00  0.00    +0.000 NA
ATOM      4  C   UNL     1       3.064   3.772  20.273  0.00  0.00    +0.000 A 
ATOM      5  C   UNL     1       1.834   4.220  20.790  0.00  0.00    +0.000 A 
ATOM      6  C   UNL     1       1.447   5.481  20.557  0.00  0.00    +0.000 A 
ATOM      7  C   UNL     1       2.364   6.355  19.756  0.00  0.00    +0.000 A 
ATOM      8  N   UNL     1       3.502   5.970  19.250  0.00  0.00    +0.000 NA
ATOM      9  N   UNL     1       3.817   4.669  19.543  0.00  0.00    +0.000 N 
ENDROOT
BRANCH   7  10
ATOM     10  C   UNL     1       1.905   7.757  19.534  0.00  0.00    +0.000 A 
ATOM     11  C   UNL     1       1.271   8.485  20.549  0.00  0.00    +0.000 A 
ATOM     12  C   UNL     1       0.848   9.794  20.312  0.00  0.00    +0.000 A 
ATOM     13  C   UNL     1       1.067  10.385  19.069  0.00  0.00    +0.000 A 
ATOM     14  C   UNL     1       1.718   9.672  18.061  0.00  0.00    +0.000 A 
ATOM     15  C   UNL     1       2.142   8.361  18.293  0.00  0.00    +0.000 A 
ENDBRANCH   7  10
BRANCH   1  16
ATOM     16  C   UNL     1       6.144   4.637  18.582  0.00  0.00    +0.000 C 
BRANCH  16  20
ATOM     17  C   UNL     1       6.132   4.376  14.274  0.00  0.00    +0.000 A 
ATOM     18  C   UNL     1       7.268   4.831  14.942  0.00  0.00    +0.000 A 
ATOM     19  C   UNL     1       7.267   4.934  16.334  0.00  0.00    +0.000 A 
ATOM     20  C   UNL     1       6.128   4.578  17.072  0.00  0.00    +0.000 A 
ATOM     21  C   UNL     1       4.982   4.147  16.388  0.00  0.00    +0.000 A 
ATOM     22  C   UNL     1       4.989   4.040  14.996  0.00  0.00    +0.000 A 
ENDBRANCH  16  20
ENDBRANCH   1  16
TORSDOF 3
ENDMDL
MODEL 5
REMARK VINA RESULT:      -8.3      1.234      2.045
REMARK  Name = 
REMARK  3 active torsions:
REMARK  status: ('A' for Active; 'I' for Inactive)
REMARK    1  A    between atoms: C_4  and  C_5
REMARK    2  A    between atoms: C_5  and  C_6
REMARK    3  A    between atoms: C_12  and  C_13
REMARK                            x       y       z     vdW  Elec       q    Type
REMARK                         _______ _______ _______ _____ _____    ______ ____
ROOT
ATOM      1  C   UNL     1       4.949   3.983  19.249  0.00  0.00    +0.000 A 
ATOM      2  N   UNL     1       4.861   2.751  19.720  0.00  0.00    +0.000 NA
ATOM      3  N   UNL     1       3.650   2.625  20.365  0.00  0.00    +0.000 NA
ATOM      4  C   UNL     1       3.031   3.782  20.277  0.00  0.00    +0.000 A 
ATOM      5  C   UNL     1       1.802   4.242  20.785  0.00  0.00    +0.000 A 
ATOM      6  C   UNL     1       1.428   5.506  20.546  0.00  0.00    +0.000 A 
ATOM      7  C   UNL     1       2.359   6.370  19.748  0.00  0.00    +0.000 A 
ATOM      8  N   UNL     1       3.496   5.972  19.251  0.00  0.00    +0.000 NA
ATOM      9  N   UNL     1       3.797   4.669  19.550  0.00  0.00    +0.000 N 
ENDROOT
BRANCH   7  10
ATOM     10  C   UNL     1       1.914   7.775  19.520  0.00  0.00    +0.000 A 
ATOM     11  C   UNL     1       2.091   8.403  18.281  0.00  0.00    +0.000 A 
ATOM     12  C   UNL     1       1.669   9.722  18.097  0.00  0.00    +0.000 A 
ATOM     13  C   UNL     1       1.059  10.411  19.143  0.00  0.00    +0.000 A 
ATOM     14  C   UNL     1       0.860   9.784  20.373  0.00  0.00    +0.000 A 
ATOM     15  C   UNL     1       1.282   8.465  20.562  0.00  0.00    +0.000 A 
ENDBRANCH   7  10
BRANCH   1  16
ATOM     16  C   UNL     1       6.129   4.613  18.604  0.00  0.00    +0.000 C 
BRANCH  16  20
ATOM     17  C   UNL     1       6.111   4.399  14.293  0.00  0.00    +0.000 A 
ATOM     18  C   UNL     1       7.255   4.824  14.966  0.00  0.00    +0.000 A 
ATOM     19  C   UNL     1       7.257   4.912  16.359  0.00  0.00    +0.000 A 
ATOM     20  C   UNL     1       6.111   4.570  17.094  0.00  0.00    +0.000 A 
ATOM     21  C   UNL     1       4.957   4.170  16.406  0.00  0.00    +0.000 A 
ATOM     22  C   UNL     1       4.961   4.077  15.012  0.00  0.00    +0.000 A 
ENDBRANCH  16  20
ENDBRANCH   1  16
TORSDOF 3
ENDMDL
MODEL 6
REMARK VINA RESULT:      -8.3      0.135      1.038
REMARK  Name = 
REMARK  3 active torsions:
REMARK  status: ('A' for Active; 'I' for Inactive)
REMARK    1  A    between atoms: C_4  and  C_5
REMARK    2  A    between atoms: C_5  and  C_6
REMARK    3  A    between atoms: C_12  and  C_13
REMARK                            x       y       z     vdW  Elec       q    Type
REMARK                         _______ _______ _______ _____ _____    ______ ____
ROOT
ATOM      1  C   UNL     1       4.287   3.727  18.394  0.00  0.00    +0.000 A 
ATOM      2  N   UNL     1       4.304   2.549  18.993  0.00  0.00    +0.000 NA
ATOM      3  N   UNL     1       3.437   2.600  20.064  0.00  0.00    +0.000 NA
ATOM      4  C   UNL     1       2.918   3.808  20.096  0.00  0.00    +0.000 A 
ATOM      5  C   UNL     1       2.023   4.433  20.984  0.00  0.00    +0.000 A 
ATOM      6  C   UNL     1       1.677   5.710  20.772  0.00  0.00    +0.000 A 
ATOM      7  C   UNL     1       2.278   6.409  19.590  0.00  0.00    +0.000 A 
ATOM      8  N   UNL     1       3.097   5.857  18.740  0.00  0.00    +0.000 NA
ATOM      9  N   UNL     1       3.397   4.553  19.039  0.00  0.00    +0.000 N 
ENDROOT
BRANCH   7  10
ATOM     10  C   UNL     1       1.881   7.833  19.400  0.00  0.00    +0.000 A 
ATOM     11  C   UNL     1       2.067   8.485  18.174  0.00  0.00    +0.000 A 
ATOM     12  C   UNL     1       1.689   9.821  18.026  0.00  0.00    +0.000 A 
ATOM     13  C   UNL     1       1.115  10.507  19.094  0.00  0.00    +0.000 A 
ATOM     14  C   UNL     1       0.907   9.857  20.312  0.00  0.00    +0.000 A 
ATOM     15  C   UNL     1       1.284   8.521  20.465  0.00  0.00    +0.000 A 
ENDBRANCH   7  10
BRANCH   1  16
ATOM     16  C   UNL     1       5.161   4.179  17.282  0.00  0.00    +0.000 C 
BRANCH  16  20
ATOM     17  C   UNL     1       8.009   7.260  18.294  0.00  0.00    +0.000 A 
ATOM     18  C   UNL     1       7.976   6.073  19.023  0.00  0.00    +0.000 A 
ATOM     19  C   UNL     1       7.043   5.083  18.710  0.00  0.00    +0.000 A 
ATOM     20  C   UNL     1       6.135   5.271  17.657  0.00  0.00    +0.000 A 
ATOM     21  C   UNL     1       6.159   6.480  16.947  0.00  0.00    +0.000 A 
ATOM     22  C   UNL     1       7.097   7.465  17.260  0.00  0.00    +0.000 A 
ENDBRANCH  16  20
ENDBRANCH   1  16
TORSDOF 3
ENDMDL
MODEL 7
REMARK VINA RESULT:      -8.3      3.032      6.916
REMARK  Name = 
REMARK  3 active torsions:
REMARK  status: ('A' for Active; 'I' for Inactive)
REMARK    1  A    between atoms: C_4  and  C_5
REMARK    2  A    between atoms: C_5  and  C_6
REMARK    3  A    between atoms: C_12  and  C_13
REMARK                            x       y       z     vdW  Elec       q    Type
REMARK                         _______ _______ _______ _____ _____    ______ ____
ROOT
ATOM      1  C   UNL     1       4.407   5.557  18.507  0.00  0.00    +0.000 A 
ATOM      2  N   UNL     1       4.909   5.648  19.726  0.00  0.00    +0.000 NA
ATOM      3  N   UNL     1       6.254   5.357  19.658  0.00  0.00    +0.000 NA
ATOM      4  C   UNL     1       6.539   5.090  18.402  0.00  0.00    +0.000 A 
ATOM      5  C   UNL     1       7.727   4.689  17.763  0.00  0.00    +0.000 A 
ATOM      6  C   UNL     1       7.715   4.466  16.442  0.00  0.00    +0.000 A 
ATOM      7  C   UNL     1       6.417   4.652  15.715  0.00  0.00    +0.000 A 
ATOM      8  N   UNL     1       5.304   5.036  16.272  0.00  0.00    +0.000 NA
ATOM      9  N   UNL     1       5.410   5.235  17.624  0.00  0.00    +0.000 N 
ENDROOT
BRANCH   7  10
ATOM     10  C   UNL     1       6.442   4.376  14.250  0.00  0.00    +0.000 A 
ATOM     11  C   UNL     1       5.455   3.594  13.638  0.00  0.00    +0.000 A 
ATOM     12  C   UNL     1       5.506   3.349  12.264  0.00  0.00    +0.000 A 
ATOM     13  C   UNL     1       6.533   3.893  11.496  0.00  0.00    +0.000 A 
ATOM     14  C   UNL     1       7.508   4.692  12.095  0.00  0.00    +0.000 A 
ATOM     15  C   UNL     1       7.462   4.939  13.470  0.00  0.00    +0.000 A 
ENDBRANCH   7  10
BRANCH   1  16
ATOM     16  C   UNL     1       2.976   5.652  18.118  0.00  0.00    +0.000 C 
BRANCH  16  20
ATOM     17  C   UNL     1       0.528   2.583  19.912  0.00  0.00    +0.000 A 
ATOM     18  C   UNL     1       0.906   2.481  18.574  0.00  0.00    +0.000 A 
ATOM     19  C   UNL     1       1.682   3.482  17.987  0.00  0.00    +0.000 A 
ATOM     20  C   UNL     1       2.091   4.595  18.737  0.00  0.00    +0.000 A 
ATOM     21  C   UNL     1       1.683   4.701  20.074  0.00  0.00    +0.000 A 
ATOM     22  C   UNL     1       0.911   3.695  20.659  0.00  0.00    +0.000 A 
ENDBRANCH  16  20
ENDBRANCH   1  16
TORSDOF 3
ENDMDL
MODEL 8
REMARK VINA RESULT:      -8.3      1.221      2.002
REMARK  Name = 
REMARK  3 active torsions:
REMARK  status: ('A' for Active; 'I' for Inactive)
REMARK    1  A    between atoms: C_4  and  C_5
REMARK    2  A    between atoms: C_5  and  C_6
REMARK    3  A    between atoms: C_12  and  C_13
REMARK                            x       y       z     vdW  Elec       q    Type
REMARK                         _______ _______ _______ _____ _____    ______ ____
ROOT
ATOM      1  C   UNL     1       4.975   3.956  19.299  0.00  0.00    +0.000 A 
ATOM      2  N   UNL     1       4.878   2.729  19.781  0.00  0.00    +0.000 NA
ATOM      3  N   UNL     1       3.657   2.611  20.409  0.00  0.00    +0.000 NA
ATOM      4  C   UNL     1       3.042   3.768  20.302  0.00  0.00    +0.000 A 
ATOM      5  C   UNL     1       1.806   4.235  20.786  0.00  0.00    +0.000 A 
ATOM      6  C   UNL     1       1.438   5.497  20.530  0.00  0.00    +0.000 A 
ATOM      7  C   UNL     1       2.382   6.352  19.737  0.00  0.00    +0.000 A 
ATOM      8  N   UNL     1       3.525   5.948  19.261  0.00  0.00    +0.000 NA
ATOM      9  N   UNL     1       3.820   4.647  19.576  0.00  0.00    +0.000 N 
ENDROOT
BRANCH   7  10
ATOM     10  C   UNL     1       1.943   7.755  19.489  0.00  0.00    +0.000 A 
ATOM     11  C   UNL     1       2.154   8.377  18.251  0.00  0.00    +0.000 A 
ATOM     12  C   UNL     1       1.737   9.694  18.049  0.00  0.00    +0.000 A 
ATOM     13  C   UNL     1       1.098  10.389  19.073  0.00  0.00    +0.000 A 
ATOM     14  C   UNL     1       0.865   9.768  20.301  0.00  0.00    +0.000 A 
ATOM     15  C   UNL     1       1.282   8.451  20.509  0.00  0.00    +0.000 A 
ENDBRANCH   7  10
BRANCH   1  16
ATOM     16  C   UNL     1       6.166   4.578  18.665  0.00  0.00    +0.000 C 
BRANCH  16  20
ATOM     17  C   UNL     1       6.185   4.413  14.352  0.00  0.00    +0.000 A 
ATOM     18  C   UNL     1       5.085   3.938  15.064  0.00  0.00    +0.000 A 
ATOM     19  C   UNL     1       5.084   3.973  16.459  0.00  0.00    +0.000 A 
ATOM     20  C   UNL     1       6.187   4.489  17.157  0.00  0.00    +0.000 A 
ATOM     21  C   UNL     1       7.299   4.939  16.432  0.00  0.00    +0.000 A 
ATOM     22  C   UNL     1       7.293   4.909  15.036  0.00  0.00    +0.000 A 
ENDBRANCH  16  20
ENDBRANCH   1  16
TORSDOF 3
ENDMDL
MODEL 9
REMARK VINA RESULT:      -8.2      3.026      6.875
REMARK  Name = 
REMARK  3 active torsions:
REMARK  status: ('A' for Active; 'I' for Inactive)
REMARK    1  A    between atoms: C_4  and  C_5
REMARK    2  A    between atoms: C_5  and  C_6
REMARK    3  A    between atoms: C_12  and  C_13
REMARK                            x       y       z     vdW  Elec       q    Type
REMARK                         _______ _______ _______ _____ _____    ______ ____
ROOT
ATOM      1  C   UNL     1       4.439   5.589  18.527  0.00  0.00    +0.000 A 
ATOM      2  N   UNL     1       4.933   5.666  19.751  0.00  0.00    +0.000 NA
ATOM      3  N   UNL     1       6.276   5.365  19.690  0.00  0.00    +0.000 NA
ATOM      4  C   UNL     1       6.569   5.106  18.434  0.00  0.00    +0.000 A 
ATOM      5  C   UNL     1       7.758   4.701  17.800  0.00  0.00    +0.000 A 
ATOM      6  C   UNL     1       7.754   4.490  16.477  0.00  0.00    +0.000 A 
ATOM      7  C   UNL     1       6.463   4.692  15.742  0.00  0.00    +0.000 A 
ATOM      8  N   UNL     1       5.348   5.080  16.294  0.00  0.00    +0.000 NA
ATOM      9  N   UNL     1       5.446   5.267  17.649  0.00  0.00    +0.000 N 
ENDROOT
BRANCH   7  10
ATOM     10  C   UNL     1       6.496   4.429  14.275  0.00  0.00    +0.000 A 
ATOM     11  C   UNL     1       7.490   4.983  13.457  0.00  0.00    +0.000 A 
ATOM     12  C   UNL     1       7.494   4.723  12.085  0.00  0.00    +0.000 A 
ATOM     13  C   UNL     1       6.517   3.902  11.527  0.00  0.00    +0.000 A 
ATOM     14  C   UNL     1       5.538   3.329  12.339  0.00  0.00    +0.000 A 
ATOM     15  C   UNL     1       5.528   3.587  13.712  0.00  0.00    +0.000 A 
ENDBRANCH   7  10
BRANCH   1  16
ATOM     16  C   UNL     1       3.012   5.699  18.129  0.00  0.00    +0.000 C 
BRANCH  16  20
ATOM     17  C   UNL     1       0.548   2.568  19.790  0.00  0.00    +0.000 A 
ATOM     18  C   UNL     1       1.034   2.458  18.488  0.00  0.00    +0.000 A 
ATOM     19  C   UNL     1       1.815   3.478  17.942  0.00  0.00    +0.000 A 
ATOM     20  C   UNL     1       2.122   4.619  18.698  0.00  0.00    +0.000 A 
ATOM     21  C   UNL     1       1.606   4.732  19.997  0.00  0.00    +0.000 A 
ATOM     22  C   UNL     1       0.830   3.707  20.542  0.00  0.00    +0.000 A 
ENDBRANCH  16  20
ENDBRANCH   1  16
TORSDOF 3
ENDMDL
