MODEL 1
REMARK VINA RESULT:      -7.5      0.000      0.000
REMARK  Name = 
REMARK  8 active torsions:
REMARK  status: ('A' for Active; 'I' for Inactive)
REMARK    1  A    between atoms: C_1  and  C_2
REMARK    2  A    between atoms: C_2  and  C_3
REMARK    3  A    between atoms: C_2  and  C_4
REMARK    4  A    between atoms: C_4  and  C_5
REMARK    5  A    between atoms: C_4  and  N_11
REMARK    6  A    between atoms: C_5  and  N_6
REMARK    7  A    between atoms: C_12  and  C_14
REMARK    8  A    between atoms: C_19  and  O_20
REMARK                            x       y       z     vdW  Elec       q    Type
REMARK                         _______ _______ _______ _____ _____    ______ ____
ROOT
ATOM      1  N   UNL     1       1.173   9.144  19.114  0.00  0.00    +0.000 N 
ATOM      2  C   UNL     1       2.093   8.752  18.160  0.00  0.00    +0.000 C 
ATOM      3  O   UNL     1       2.347   9.415  17.160  0.00  0.00    +0.000 OA
ATOM      4  H   UNL     1       1.181   8.592  19.965  0.00  0.00    +0.000 HD
ENDROOT
BRANCH   2   5
ATOM      5  C   UNL     1       2.711   7.362  18.435  0.00  0.00    +0.000 C 
ATOM      6  C   UNL     1       1.650   6.269  18.218  0.00  0.00    +0.000 C 
ATOM      7  C   UNL     1       2.248   4.883  18.165  0.00  0.00    +0.000 A 
ATOM      8  C   UNL     1       1.410   3.759  18.236  0.00  0.00    +0.000 A 
ATOM      9  C   UNL     1       1.947   2.471  18.163  0.00  0.00    +0.000 A 
ATOM     10  C   UNL     1       3.319   2.313  18.014  0.00  0.00    +0.000 A 
ATOM     11  C   UNL     1       4.161   3.415  17.930  0.00  0.00    +0.000 A 
ATOM     12  C   UNL     1       3.633   4.713  17.992  0.00  0.00    +0.000 A 
ATOM     13  C   UNL     1       4.564   5.900  17.943  0.00  0.00    +0.000 C 
ATOM     14  N   UNL     1       3.899   7.153  17.557  0.00  0.00    +0.000 NA
ATOM     15  H   UNL     1       3.553   7.023  16.604  0.00  0.00    +0.000 HD
BRANCH  10  16
ATOM     16  O   UNL     1       3.887   1.075  17.949  0.00  0.00    +0.000 OA
ATOM     17  H   UNL     1       3.481   0.586  17.215  0.00  0.00    +0.000 HD
ENDBRANCH  10  16
ENDBRANCH   2   5
BRANCH   1  18
ATOM     18  C   UNL     1       0.510  10.453  19.094  0.00  0.00    +0.000 C 
BRANCH  18  20
ATOM     19  C   UNL     1      -1.799  11.582  19.220  0.00  0.00    +0.000 C 
ATOM     20  C   UNL     1      -1.026  10.290  18.921  0.00  0.00    +0.000 C 
ATOM     21  C   UNL     1      -1.397   9.868  17.486  0.00  0.00    +0.000 C 
ENDBRANCH  18  20
BRANCH  18  22
ATOM     22  C   UNL     1       0.986  11.364  20.282  0.00  0.00    +0.000 C 
BRANCH  22  23
ATOM     23  N   UNL     1       0.808  11.035  21.698  0.00  0.00    +0.000 NA
ATOM     24  C   UNL     1       1.004   9.661  22.122  0.00  0.00    +0.000 C 
ATOM     25  C   UNL     1      -0.386   9.162  22.457  0.00  0.00    +0.000 C 
ATOM     26  C   UNL     1      -1.089  10.393  23.002  0.00  0.00    +0.000 C 
ATOM     27  C   UNL     1      -0.344  11.579  22.401  0.00  0.00    +0.000 C 
ENDBRANCH  22  23
ENDBRANCH  18  22
ENDBRANCH   1  18
TORSDOF 6
ENDMDL
MODEL 2
REMARK VINA RESULT:      -7.5      2.492      7.631
REMARK  Name = 
REMARK  8 active torsions:
REMARK  status: ('A' for Active; 'I' for Inactive)
REMARK    1  A    between atoms: C_1  and  C_2
REMARK    2  A    between atoms: C_2  and  C_3
REMARK    3  A    between atoms: C_2  and  C_4
REMARK    4  A    between atoms: C_4  and  C_5
REMARK    5  A    between atoms: C_4  and  N_11
REMARK    6  A    between atoms: C_5  and  N_6
REMARK    7  A    between atoms: C_12  and  C_14
REMARK    8  A    between atoms: C_19  and  O_20
REMARK                            x       y       z     vdW  Elec       q    Type
REMARK                         _______ _______ _______ _____ _____    ______ ____
ROOT
ATOM      1  N   UNL     1       4.061   5.452  19.272  0.00  0.00    +0.000 N 
ATOM      2  C   UNL     1       2.973   6.094  18.712  0.00  0.00    +0.000 C 
ATOM      3  O   UNL     1       2.442   5.729  17.668  0.00  0.00    +0.000 OA
ATOM      4  H   UNL     1       4.295   5.752  20.212  0.00  0.00    +0.000 HD
ENDROOT
BRANCH   2   5
ATOM      5  C   UNL     1       2.541   7.361  19.484  0.00  0.00    +0.000 C 
ATOM      6  C   UNL     1       1.832   8.336  18.528  0.00  0.00    +0.000 C 
ATOM      7  C   UNL     1       1.115   9.446  19.259  0.00  0.00    +0.000 A 
ATOM      8  C   UNL     1       0.640  10.559  18.546  0.00  0.00    +0.000 A 
ATOM      9  C   UNL     1      -0.046  11.581  19.205  0.00  0.00    +0.000 A 
ATOM     10  C   UNL     1      -0.262  11.484  20.574  0.00  0.00    +0.000 A 
ATOM     11  C   UNL     1       0.189  10.384  21.292  0.00  0.00    +0.000 A 
ATOM     12  C   UNL     1       0.872   9.346  20.640  0.00  0.00    +0.000 A 
ATOM     13  C   UNL     1       1.395   8.178  21.441  0.00  0.00    +0.000 C 
ATOM     14  N   UNL     1       1.664   6.982  20.629  0.00  0.00    +0.000 NA
ATOM     15  H   UNL     1       0.768   6.682  20.239  0.00  0.00    +0.000 HD
BRANCH  10  16
ATOM     16  O   UNL     1      -0.919  12.463  21.260  0.00  0.00    +0.000 OA
ATOM     17  H   UNL     1      -1.600  12.048  21.814  0.00  0.00    +0.000 HD
ENDBRANCH  10  16
ENDBRANCH   2   5
BRANCH   1  18
ATOM     18  C   UNL     1       4.602   4.192  18.748  0.00  0.00    +0.000 C 
BRANCH  18  20
ATOM     19  C   UNL     1       5.970   4.770  16.646  0.00  0.00    +0.000 C 
ATOM     20  C   UNL     1       6.015   4.412  18.137  0.00  0.00    +0.000 C 
ATOM     21  C   UNL     1       6.774   5.549  18.849  0.00  0.00    +0.000 C 
ENDBRANCH  18  20
BRANCH  18  22
ATOM     22  C   UNL     1       4.465   3.022  19.787  0.00  0.00    +0.000 C 
BRANCH  22  23
ATOM     23  N   UNL     1       3.195   2.394  20.161  0.00  0.00    +0.000 NA
ATOM     24  C   UNL     1       2.258   2.044  19.110  0.00  0.00    +0.000 C 
ATOM     25  C   UNL     1       1.119   3.030  19.270  0.00  0.00    +0.000 C 
ATOM     26  C   UNL     1       1.056   3.266  20.770  0.00  0.00    +0.000 C 
ATOM     27  C   UNL     1       2.452   2.939  21.286  0.00  0.00    +0.000 C 
ENDBRANCH  22  23
ENDBRANCH  18  22
ENDBRANCH   1  18
TORSDOF 6
ENDMDL
MODEL 3
REMARK VINA RESULT:      -7.4      2.269      7.866
REMARK  Name = 
REMARK  8 active torsions:
REMARK  status: ('A' for Active; 'I' for Inactive)
REMARK    1  A    between atoms: C_1  and  C_2
REMARK    2  A    between atoms: C_2  and  C_3
REMARK    3  A    between atoms: C_2  and  C_4
REMARK    4  A    between atoms: C_4  and  C_5
REMARK    5  A    between atoms: C_4  and  N_11
REMARK    6  A    between atoms: C_5  and  N_6
REMARK    7  A    between atoms: C_12  and  C_14
REMARK    8  A    between atoms: C_19  and  O_20
REMARK                            x       y       z     vdW  Elec       q    Type
REMARK                         _______ _______ _______ _____ _____    ______ ____
ROOT
ATOM      1  N   UNL     1       3.090   4.909  17.835  0.00  0.00    +0.000 N 
ATOM      2  C   UNL     1       3.277   5.801  18.873  0.00  0.00    +0.000 C 
ATOM      3  O   UNL     1       4.136   5.657  19.736  0.00  0.00    +0.000 OA
ATOM      4  H   UNL     1       2.463   5.230  17.104  0.00  0.00    +0.000 HD
ENDROOT
BRANCH   2   5
ATOM      5  C   UNL     1       2.250   6.956  18.885  0.00  0.00    +0.000 C 
ATOM      6  C   UNL     1       1.949   7.368  20.336  0.00  0.00    +0.000 C 
ATOM      7  C   UNL     1       1.201   8.677  20.424  0.00  0.00    +0.000 A 
ATOM      8  C   UNL     1       0.621   9.070  21.641  0.00  0.00    +0.000 A 
ATOM      9  C   UNL     1      -0.052  10.289  21.744  0.00  0.00    +0.000 A 
ATOM     10  C   UNL     1      -0.138  11.115  20.630  0.00  0.00    +0.000 A 
ATOM     11  C   UNL     1       0.441  10.748  19.421  0.00  0.00    +0.000 A 
ATOM     12  C   UNL     1       1.128   9.530  19.309  0.00  0.00    +0.000 A 
ATOM     13  C   UNL     1       1.714   9.124  17.978  0.00  0.00    +0.000 C 
ATOM     14  N   UNL     1       2.767   8.104  18.086  0.00  0.00    +0.000 NA
ATOM     15  H   UNL     1       3.532   8.524  18.619  0.00  0.00    +0.000 HD
BRANCH  10  16
ATOM     16  O   UNL     1      -0.794  12.310  20.681  0.00  0.00    +0.000 OA
ATOM     17  H   UNL     1      -0.181  12.986  21.012  0.00  0.00    +0.000 HD
ENDBRANCH  10  16
ENDBRANCH   2   5
BRANCH   1  18
ATOM     18  C   UNL     1       3.986   3.774  17.586  0.00  0.00    +0.000 C 
BRANCH  18  20
ATOM     19  C   UNL     1       3.860   1.424  18.626  0.00  0.00    +0.000 C 
ATOM     20  C   UNL     1       3.209   2.430  17.668  0.00  0.00    +0.000 C 
ATOM     21  C   UNL     1       1.760   2.636  18.152  0.00  0.00    +0.000 C 
ENDBRANCH  18  20
BRANCH  18  22
ATOM     22  C   UNL     1       4.863   3.995  16.301  0.00  0.00    +0.000 C 
BRANCH  22  23
ATOM     23  N   UNL     1       6.053   4.849  16.250  0.00  0.00    +0.000 NA
ATOM     24  C   UNL     1       7.197   4.495  17.069  0.00  0.00    +0.000 C 
ATOM     25  C   UNL     1       7.231   5.551  18.154  0.00  0.00    +0.000 C 
ATOM     26  C   UNL     1       6.718   6.800  17.458  0.00  0.00    +0.000 C 
ATOM     27  C   UNL     1       5.877   6.292  16.293  0.00  0.00    +0.000 C 
ENDBRANCH  22  23
ENDBRANCH  18  22
ENDBRANCH   1  18
TORSDOF 6
ENDMDL
MODEL 4
REMARK VINA RESULT:      -7.4      2.429      7.595
REMARK  Name = 
REMARK  8 active torsions:
REMARK  status: ('A' for Active; 'I' for Inactive)
REMARK    1  A    between atoms: C_1  and  C_2
REMARK    2  A    between atoms: C_2  and  C_3
REMARK    3  A    between atoms: C_2  and  C_4
REMARK    4  A    between atoms: C_4  and  C_5
REMARK    5  A    between atoms: C_4  and  N_11
REMARK    6  A    between atoms: C_5  and  N_6
REMARK    7  A    between atoms: C_12  and  C_14
REMARK    8  A    between atoms: C_19  and  O_20
REMARK                            x       y       z     vdW  Elec       q    Type
REMARK                         _______ _______ _______ _____ _____    ______ ____
ROOT
ATOM      1  N   UNL     1       3.116   5.204  17.680  0.00  0.00    +0.000 N 
ATOM      2  C   UNL     1       3.275   6.038  18.771  0.00  0.00    +0.000 C 
ATOM      3  O   UNL     1       4.160   5.890  19.606  0.00  0.00    +0.000 OA
ATOM      4  H   UNL     1       2.455   5.533  16.984  0.00  0.00    +0.000 HD
ENDROOT
BRANCH   2   5
ATOM      5  C   UNL     1       2.182   7.125  18.878  0.00  0.00    +0.000 C 
ATOM      6  C   UNL     1       1.928   7.463  20.357  0.00  0.00    +0.000 C 
ATOM      7  C   UNL     1       1.109   8.720  20.532  0.00  0.00    +0.000 A 
ATOM      8  C   UNL     1       0.567   9.030  21.790  0.00  0.00    +0.000 A 
ATOM      9  C   UNL     1      -0.172  10.201  21.973  0.00  0.00    +0.000 A 
ATOM     10  C   UNL     1      -0.361  11.061  20.899  0.00  0.00    +0.000 A 
ATOM     11  C   UNL     1       0.179  10.776  19.651  0.00  0.00    +0.000 A 
ATOM     12  C   UNL     1       0.931   9.608  19.457  0.00  0.00    +0.000 A 
ATOM     13  C   UNL     1       1.475   9.290  18.085  0.00  0.00    +0.000 C 
ATOM     14  N   UNL     1       2.591   8.333  18.103  0.00  0.00    +0.000 NA
ATOM     15  H   UNL     1       3.355   8.778  18.616  0.00  0.00    +0.000 HD
BRANCH  10  16
ATOM     16  O   UNL     1      -1.084  12.211  21.029  0.00  0.00    +0.000 OA
ATOM     17  H   UNL     1      -0.482  12.967  20.934  0.00  0.00    +0.000 HD
ENDBRANCH  10  16
ENDBRANCH   2   5
BRANCH   1  18
ATOM     18  C   UNL     1       4.071   4.142  17.341  0.00  0.00    +0.000 C 
BRANCH  18  20
ATOM     19  C   UNL     1       6.596   4.604  17.520  0.00  0.00    +0.000 C 
ATOM     20  C   UNL     1       5.335   4.736  16.657  0.00  0.00    +0.000 C 
ATOM     21  C   UNL     1       5.636   4.042  15.314  0.00  0.00    +0.000 C 
ENDBRANCH  18  20
BRANCH  18  22
ATOM     22  C   UNL     1       4.323   3.177  18.554  0.00  0.00    +0.000 C 
BRANCH  22  23
ATOM     23  N   UNL     1       3.279   2.384  19.209  0.00  0.00    +0.000 NA
ATOM     24  C   UNL     1       2.111   2.002  18.439  0.00  0.00    +0.000 C 
ATOM     25  C   UNL     1       0.985   2.838  19.011  0.00  0.00    +0.000 C 
ATOM     26  C   UNL     1       1.342   2.964  20.482  0.00  0.00    +0.000 C 
ATOM     27  C   UNL     1       2.852   2.764  20.547  0.00  0.00    +0.000 C 
ENDBRANCH  22  23
ENDBRANCH  18  22
ENDBRANCH   1  18
TORSDOF 6
ENDMDL
MODEL 5
REMARK VINA RESULT:      -7.3      2.342      7.388
REMARK  Name = 
REMARK  8 active torsions:
REMARK  status: ('A' for Active; 'I' for Inactive)
REMARK    1  A    between atoms: C_1  and  C_2
REMARK    2  A    between atoms: C_2  and  C_3
REMARK    3  A    between atoms: C_2  and  C_4
REMARK    4  A    between atoms: C_4  and  C_5
REMARK    5  A    between atoms: C_4  and  N_11
REMARK    6  A    between atoms: C_5  and  N_6
REMARK    7  A    between atoms: C_12  and  C_14
REMARK    8  A    between atoms: C_19  and  O_20
REMARK                            x       y       z     vdW  Elec       q    Type
REMARK                         _______ _______ _______ _____ _____    ______ ____
ROOT
ATOM      1  N   UNL     1       3.424   5.205  18.107  0.00  0.00    +0.000 N 
ATOM      2  C   UNL     1       3.401   6.455  17.518  0.00  0.00    +0.000 C 
ATOM      3  O   UNL     1       4.211   6.812  16.669  0.00  0.00    +0.000 OA
ATOM      4  H   UNL     1       2.606   4.981  18.665  0.00  0.00    +0.000 HD
ENDROOT
BRANCH   2   5
ATOM      5  C   UNL     1       2.307   7.384  18.090  0.00  0.00    +0.000 C 
ATOM      6  C   UNL     1       2.310   7.307  19.626  0.00  0.00    +0.000 C 
ATOM      7  C   UNL     1       1.491   8.405  20.264  0.00  0.00    +0.000 A 
ATOM      8  C   UNL     1       1.172   8.334  21.629  0.00  0.00    +0.000 A 
ATOM      9  C   UNL     1       0.436   9.353  22.238  0.00  0.00    +0.000 A 
ATOM     10  C   UNL     1       0.027  10.443  21.480  0.00  0.00    +0.000 A 
ATOM     11  C   UNL     1       0.346  10.535  20.130  0.00  0.00    +0.000 A 
ATOM     12  C   UNL     1       1.092   9.523  19.510  0.00  0.00    +0.000 A 
ATOM     13  C   UNL     1       1.393   9.615  18.034  0.00  0.00    +0.000 C 
ATOM     14  N   UNL     1       2.528   8.780  17.612  0.00  0.00    +0.000 NA
ATOM     15  H   UNL     1       3.354   9.139  18.094  0.00  0.00    +0.000 HD
BRANCH  10  16
ATOM     16  O   UNL     1      -0.701  11.457  22.029  0.00  0.00    +0.000 OA
ATOM     17  H   UNL     1      -1.461  11.641  21.452  0.00  0.00    +0.000 HD
ENDBRANCH  10  16
ENDBRANCH   2   5
BRANCH   1  18
ATOM     18  C   UNL     1       4.334   4.136  17.677  0.00  0.00    +0.000 C 
BRANCH  18  20
ATOM     19  C   UNL     1       6.841   4.637  17.387  0.00  0.00    +0.000 C 
ATOM     20  C   UNL     1       5.718   4.280  18.369  0.00  0.00    +0.000 C 
ATOM     21  C   UNL     1       5.704   5.377  19.452  0.00  0.00    +0.000 C 
ENDBRANCH  18  20
BRANCH  18  22
ATOM     22  C   UNL     1       3.654   2.722  17.764  0.00  0.00    +0.000 C 
BRANCH  22  23
ATOM     23  N   UNL     1       2.869   2.253  18.909  0.00  0.00    +0.000 NA
ATOM     24  C   UNL     1       1.422   2.337  18.841  0.00  0.00    +0.000 C 
ATOM     25  C   UNL     1       1.058   3.436  19.817  0.00  0.00    +0.000 C 
ATOM     26  C   UNL     1       2.104   3.309  20.911  0.00  0.00    +0.000 C 
ATOM     27  C   UNL     1       3.296   2.629  20.248  0.00  0.00    +0.000 C 
ENDBRANCH  22  23
ENDBRANCH  18  22
ENDBRANCH   1  18
TORSDOF 6
ENDMDL
MODEL 6
REMARK VINA RESULT:      -7.2      2.445      7.899
REMARK  Name = 
REMARK  8 active torsions:
REMARK  status: ('A' for Active; 'I' for Inactive)
REMARK    1  A    between atoms: C_1  and  C_2
REMARK    2  A    between atoms: C_2  and  C_3
REMARK    3  A    between atoms: C_2  and  C_4
REMARK    4  A    between atoms: C_4  and  C_5
REMARK    5  A    between atoms: C_4  and  N_11
REMARK    6  A    between atoms: C_5  and  N_6
REMARK    7  A    between atoms: C_12  and  C_14
REMARK    8  A    between atoms: C_19  and  O_20
REMARK                            x       y       z     vdW  Elec       q    Type
REMARK                         _______ _______ _______ _____ _____    ______ ____
ROOT
ATOM      1  N   UNL     1       2.900   6.447  18.067  0.00  0.00    +0.000 N 
ATOM      2  C   UNL     1       2.587   6.632  19.400  0.00  0.00    +0.000 C 
ATOM      3  O   UNL     1       3.092   5.978  20.306  0.00  0.00    +0.000 OA
ATOM      4  H   UNL     1       2.539   7.159  17.441  0.00  0.00    +0.000 HD
ENDROOT
BRANCH   2   5
ATOM      5  C   UNL     1       1.481   7.686  19.631  0.00  0.00    +0.000 C 
ATOM      6  C   UNL     1       1.290   7.917  21.140  0.00  0.00    +0.000 C 
ATOM      7  C   UNL     1       0.458   9.141  21.439  0.00  0.00    +0.000 A 
ATOM      8  C   UNL     1      -0.031   9.353  22.738  0.00  0.00    +0.000 A 
ATOM      9  C   UNL     1      -0.782  10.493  23.035  0.00  0.00    +0.000 A 
ATOM     10  C   UNL     1      -1.036  11.421  22.032  0.00  0.00    +0.000 A 
ATOM     11  C   UNL     1      -0.549  11.233  20.744  0.00  0.00    +0.000 A 
ATOM     12  C   UNL     1       0.214  10.097  20.437  0.00  0.00    +0.000 A 
ATOM     13  C   UNL     1       0.699   9.885  19.023  0.00  0.00    +0.000 C 
ATOM     14  N   UNL     1       1.832   8.953  18.924  0.00  0.00    +0.000 NA
ATOM     15  H   UNL     1       2.610   9.378  19.432  0.00  0.00    +0.000 HD
BRANCH  10  16
ATOM     16  O   UNL     1      -1.772  12.543  22.274  0.00  0.00    +0.000 OA
ATOM     17  H   UNL     1      -1.307  13.306  21.895  0.00  0.00    +0.000 HD
ENDBRANCH  10  16
ENDBRANCH   2   5
BRANCH   1  18
ATOM     18  C   UNL     1       3.966   5.545  17.615  0.00  0.00    +0.000 C 
BRANCH  18  20
ATOM     19  C   UNL     1       4.000   3.031  18.163  0.00  0.00    +0.000 C 
ATOM     20  C   UNL     1       3.395   4.137  17.288  0.00  0.00    +0.000 C 
ATOM     21  C   UNL     1       1.868   4.080  17.486  0.00  0.00    +0.000 C 
ENDBRANCH  18  20
BRANCH  18  22
ATOM     22  C   UNL     1       4.861   6.210  16.507  0.00  0.00    +0.000 C 
BRANCH  22  23
ATOM     23  N   UNL     1       6.322   6.297  16.569  0.00  0.00    +0.000 NA
ATOM     24  C   UNL     1       7.084   5.077  16.757  0.00  0.00    +0.000 C 
ATOM     25  C   UNL     1       7.626   5.178  18.167  0.00  0.00    +0.000 C 
ATOM     26  C   UNL     1       7.865   6.666  18.356  0.00  0.00    +0.000 C 
ATOM     27  C   UNL     1       6.924   7.351  17.372  0.00  0.00    +0.000 C 
ENDBRANCH  22  23
ENDBRANCH  18  22
ENDBRANCH   1  18
TORSDOF 6
ENDMDL
MODEL 7
REMARK VINA RESULT:      -7.2      2.526      7.618
REMARK  Name = 
REMARK  8 active torsions:
REMARK  status: ('A' for Active; 'I' for Inactive)
REMARK    1  A    between atoms: C_1  and  C_2
REMARK    2  A    between atoms: C_2  and  C_3
REMARK    3  A    between atoms: C_2  and  C_4
REMARK    4  A    between atoms: C_4  and  C_5
REMARK    5  A    between atoms: C_4  and  N_11
REMARK    6  A    between atoms: C_5  and  N_6
REMARK    7  A    between atoms: C_12  and  C_14
REMARK    8  A    between atoms: C_19  and  O_20
REMARK                            x       y       z     vdW  Elec       q    Type
REMARK                         _______ _______ _______ _____ _____    ______ ____
ROOT
ATOM      1  N   UNL     1       2.450   7.276  19.005  0.00  0.00    +0.000 N 
ATOM      2  C   UNL     1       1.934   8.487  18.585  0.00  0.00    +0.000 C 
ATOM      3  O   UNL     1       1.941   8.851  17.414  0.00  0.00    +0.000 OA
ATOM      4  H   UNL     1       2.232   7.030  19.965  0.00  0.00    +0.000 HD
ENDROOT
BRANCH   2   5
ATOM      5  C   UNL     1       1.419   9.372  19.743  0.00  0.00    +0.000 C 
ATOM      6  C   UNL     1       0.194  10.177  19.278  0.00  0.00    +0.000 C 
ATOM      7  C   UNL     1      -0.546  10.823  20.425  0.00  0.00    +0.000 A 
ATOM      8  C   UNL     1      -1.523  11.798  20.166  0.00  0.00    +0.000 A 
ATOM      9  C   UNL     1      -2.232  12.385  21.215  0.00  0.00    +0.000 A 
ATOM     10  C   UNL     1      -1.967  11.992  22.521  0.00  0.00    +0.000 A 
ATOM     11  C   UNL     1      -1.013  11.019  22.795  0.00  0.00    +0.000 A 
ATOM     12  C   UNL     1      -0.301  10.415  21.748  0.00  0.00    +0.000 A 
ATOM     13  C   UNL     1       0.763   9.391  22.063  0.00  0.00    +0.000 C 
ATOM     14  N   UNL     1       1.098   8.521  20.926  0.00  0.00    +0.000 NA
ATOM     15  H   UNL     1       0.252   7.993  20.700  0.00  0.00    +0.000 HD
BRANCH  10  16
ATOM     16  O   UNL     1      -2.628  12.546  23.577  0.00  0.00    +0.000 OA
ATOM     17  H   UNL     1      -2.057  12.494  24.362  0.00  0.00    +0.000 HD
ENDBRANCH  10  16
ENDBRANCH   2   5
BRANCH   1  18
ATOM     18  C   UNL     1       2.934   6.249  18.075  0.00  0.00    +0.000 C 
BRANCH  18  20
ATOM     19  C   UNL     1       5.238   5.368  18.808  0.00  0.00    +0.000 C 
ATOM     20  C   UNL     1       4.476   6.345  17.903  0.00  0.00    +0.000 C 
ATOM     21  C   UNL     1       4.909   6.043  16.454  0.00  0.00    +0.000 C 
ENDBRANCH  18  20
BRANCH  18  22
ATOM     22  C   UNL     1       2.358   4.830  18.424  0.00  0.00    +0.000 C 
BRANCH  22  23
ATOM     23  N   UNL     1       1.568   4.531  19.622  0.00  0.00    +0.000 NA
ATOM     24  C   UNL     1       2.157   4.783  20.923  0.00  0.00    +0.000 C 
ATOM     25  C   UNL     1       2.422   3.406  21.495  0.00  0.00    +0.000 C 
ATOM     26  C   UNL     1       1.286   2.562  20.945  0.00  0.00    +0.000 C 
ATOM     27  C   UNL     1       0.834   3.276  19.677  0.00  0.00    +0.000 C 
ENDBRANCH  22  23
ENDBRANCH  18  22
ENDBRANCH   1  18
TORSDOF 6
ENDMDL
MODEL 8
REMARK VINA RESULT:      -7.2      2.379      7.776
REMARK  Name = 
REMARK  8 active torsions:
REMARK  status: ('A' for Active; 'I' for Inactive)
REMARK    1  A    between atoms: C_1  and  C_2
REMARK    2  A    between atoms: C_2  and  C_3
REMARK    3  A    between atoms: C_2  and  C_4
REMARK    4  A    between atoms: C_4  and  C_5
REMARK    5  A    between atoms: C_4  and  N_11
REMARK    6  A    between atoms: C_5  and  N_6
REMARK    7  A    between atoms: C_12  and  C_14
REMARK    8  A    between atoms: C_19  and  O_20
REMARK                            x       y       z     vdW  Elec       q    Type
REMARK                         _______ _______ _______ _____ _____    ______ ____
ROOT
ATOM      1  N   UNL     1       3.323   5.807  18.061  0.00  0.00    +0.000 N 
ATOM      2  C   UNL     1       3.234   5.954  19.432  0.00  0.00    +0.000 C 
ATOM      3  O   UNL     1       3.568   5.080  20.225  0.00  0.00    +0.000 OA
ATOM      4  H   UNL     1       3.172   6.658  17.530  0.00  0.00    +0.000 HD
ENDROOT
BRANCH   2   5
ATOM      5  C   UNL     1       2.600   7.295  19.867  0.00  0.00    +0.000 C 
ATOM      6  C   UNL     1       1.926   7.967  18.659  0.00  0.00    +0.000 C 
ATOM      7  C   UNL     1       1.028   9.114  19.059  0.00  0.00    +0.000 A 
ATOM      8  C   UNL     1       0.544   9.997  18.080  0.00  0.00    +0.000 A 
ATOM      9  C   UNL     1      -0.306  11.047  18.433  0.00  0.00    +0.000 A 
ATOM     10  C   UNL     1      -0.674  11.208  19.762  0.00  0.00    +0.000 A 
ATOM     11  C   UNL     1      -0.215  10.336  20.742  0.00  0.00    +0.000 A 
ATOM     12  C   UNL     1       0.632   9.272  20.399  0.00  0.00    +0.000 A 
ATOM     13  C   UNL     1       1.158   8.359  21.480  0.00  0.00    +0.000 C 
ATOM     14  N   UNL     1       1.629   7.061  20.975  0.00  0.00    +0.000 NA
ATOM     15  H   UNL     1       0.818   6.588  20.573  0.00  0.00    +0.000 HD
BRANCH  10  16
ATOM     16  O   UNL     1      -1.494  12.225  20.154  0.00  0.00    +0.000 OA
ATOM     17  H   UNL     1      -1.880  11.998  21.016  0.00  0.00    +0.000 HD
ENDBRANCH  10  16
ENDBRANCH   2   5
BRANCH   1  18
ATOM     18  C   UNL     1       3.951   4.644  17.422  0.00  0.00    +0.000 C 
BRANCH  18  20
ATOM     19  C   UNL     1       3.190   2.227  17.870  0.00  0.00    +0.000 C 
ATOM     20  C   UNL     1       2.897   3.539  17.130  0.00  0.00    +0.000 C 
ATOM     21  C   UNL     1       1.479   3.980  17.543  0.00  0.00    +0.000 C 
ENDBRANCH  18  20
BRANCH  18  22
ATOM     22  C   UNL     1       4.870   5.066  16.219  0.00  0.00    +0.000 C 
BRANCH  22  23
ATOM     23  N   UNL     1       6.259   5.513  16.358  0.00  0.00    +0.000 NA
ATOM     24  C   UNL     1       7.263   4.544  16.753  0.00  0.00    +0.000 C 
ATOM     25  C   UNL     1       7.635   4.934  18.169  0.00  0.00    +0.000 C 
ATOM     26  C   UNL     1       7.502   6.447  18.172  0.00  0.00    +0.000 C 
ATOM     27  C   UNL     1       6.522   6.765  17.049  0.00  0.00    +0.000 C 
ENDBRANCH  22  23
ENDBRANCH  18  22
ENDBRANCH   1  18
TORSDOF 6
ENDMDL
MODEL 9
REMARK VINA RESULT:      -7.2      2.298      7.488
REMARK  Name = 
REMARK  8 active torsions:
REMARK  status: ('A' for Active; 'I' for Inactive)
REMARK    1  A    between atoms: C_1  and  C_2
REMARK    2  A    between atoms: C_2  and  C_3
REMARK    3  A    between atoms: C_2  and  C_4
REMARK    4  A    between atoms: C_4  and  C_5
REMARK    5  A    between atoms: C_4  and  N_11
REMARK    6  A    between atoms: C_5  and  N_6
REMARK    7  A    between atoms: C_12  and  C_14
REMARK    8  A    between atoms: C_19  and  O_20
REMARK                            x       y       z     vdW  Elec       q    Type
REMARK                         _______ _______ _______ _____ _____    ______ ____
ROOT
ATOM      1  N   UNL     1       4.186   6.232  18.621  0.00  0.00    +0.000 N 
ATOM      2  C   UNL     1       3.547   6.987  17.657  0.00  0.00    +0.000 C 
ATOM      3  O   UNL     1       3.954   7.089  16.504  0.00  0.00    +0.000 OA
ATOM      4  H   UNL     1       3.658   6.100  19.478  0.00  0.00    +0.000 HD
ENDROOT
BRANCH   2   5
ATOM      5  C   UNL     1       2.316   7.753  18.191  0.00  0.00    +0.000 C 
ATOM      6  C   UNL     1       2.270   7.660  19.725  0.00  0.00    +0.000 C 
ATOM      7  C   UNL     1       1.286   8.628  20.337  0.00  0.00    +0.000 A 
ATOM      8  C   UNL     1       0.927   8.499  21.688  0.00  0.00    +0.000 A 
ATOM      9  C   UNL     1       0.037   9.402  22.274  0.00  0.00    +0.000 A 
ATOM     10  C   UNL     1      -0.487  10.435  21.507  0.00  0.00    +0.000 A 
ATOM     11  C   UNL     1      -0.133  10.585  20.171  0.00  0.00    +0.000 A 
ATOM     12  C   UNL     1       0.768   9.691  19.575  0.00  0.00    +0.000 A 
ATOM     13  C   UNL     1       1.109   9.839  18.112  0.00  0.00    +0.000 C 
ATOM     14  N   UNL     1       2.362   9.172  17.730  0.00  0.00    +0.000 NA
ATOM     15  H   UNL     1       3.113   9.634  18.247  0.00  0.00    +0.000 HD
BRANCH  10  16
ATOM     16  O   UNL     1      -1.367  11.334  22.034  0.00  0.00    +0.000 OA
ATOM     17  H   UNL     1      -1.825  10.917  22.782  0.00  0.00    +0.000 HD
ENDBRANCH  10  16
ENDBRANCH   2   5
BRANCH   1  18
ATOM     18  C   UNL     1       5.337   5.370  18.328  0.00  0.00    +0.000 C 
BRANCH  18  20
ATOM     19  C   UNL     1       7.716   5.442  19.307  0.00  0.00    +0.000 C 
ATOM     20  C   UNL     1       6.667   6.165  18.452  0.00  0.00    +0.000 C 
ATOM     21  C   UNL     1       7.310   6.420  17.074  0.00  0.00    +0.000 C 
ENDBRANCH  18  20
BRANCH  18  22
ATOM     22  C   UNL     1       5.261   4.011  19.112  0.00  0.00    +0.000 C 
BRANCH  22  23
ATOM     23  N   UNL     1       4.176   3.036  18.971  0.00  0.00    +0.000 NA
ATOM     24  C   UNL     1       3.603   2.819  17.656  0.00  0.00    +0.000 C 
ATOM     25  C   UNL     1       2.222   3.435  17.735  0.00  0.00    +0.000 C 
ATOM     26  C   UNL     1       1.801   3.192  19.174  0.00  0.00    +0.000 C 
ATOM     27  C   UNL     1       3.102   3.042  19.952  0.00  0.00    +0.000 C 
ENDBRANCH  22  23
ENDBRANCH  18  22
ENDBRANCH   1  18
TORSDOF 6
ENDMDL
