MODEL 1
REMARK VINA RESULT:      -8.1      0.000      0.000
REMARK  Name = 
REMARK  5 active torsions:
REMARK  status: ('A' for Active; 'I' for Inactive)
REMARK    1  A    between atoms: C_6  and  N_7
REMARK    2  A    between atoms: N_7  and  C_8
REMARK    3  A    between atoms: C_8  and  C_9
REMARK    4  A    between atoms: C_9  and  C_10
REMARK    5  A    between atoms: C_10  and  N_11
REMARK                            x       y       z     vdW  Elec       q    Type
REMARK                         _______ _______ _______ _____ _____    ______ ____
ROOT
ATOM      1  O   UNL     1       1.882  10.458  17.448  0.00  0.00    +0.000 OA
ATOM      2  C   UNL     1       1.466  10.165  18.566  0.00  0.00    +0.000 C 
ATOM      3  C   UNL     1       1.713   8.816  19.139  0.00  0.00    +0.000 A 
ATOM      4  C   UNL     1       2.437   7.888  18.383  0.00  0.00    +0.000 A 
ATOM      5  C   UNL     1       2.690   6.624  18.900  0.00  0.00    +0.000 A 
ATOM      6  C   UNL     1       2.210   6.247  20.155  0.00  0.00    +0.000 A 
ATOM      7  C   UNL     1       1.486   7.196  20.902  0.00  0.00    +0.000 A 
ATOM      8  C   UNL     1       1.228   8.497  20.414  0.00  0.00    +0.000 A 
ATOM      9  C   UNL     1       0.485   9.510  21.189  0.00  0.00    +0.000 A 
ATOM     10  N   UNL     1       0.044   9.155  22.422  0.00  0.00    +0.000 NA
ATOM     11  C   UNL     1      -0.640  10.081  23.133  0.00  0.00    +0.000 A 
ATOM     12  C   UNL     1      -0.915  11.358  22.674  0.00  0.00    +0.000 A 
ATOM     13  C   UNL     1      -0.463  11.728  21.408  0.00  0.00    +0.000 A 
ATOM     14  C   UNL     1      -0.702  13.007  20.878  0.00  0.00    +0.000 A 
ATOM     15  C   UNL     1      -0.238  13.353  19.606  0.00  0.00    +0.000 A 
ATOM     16  C   UNL     1       0.471  12.424  18.850  0.00  0.00    +0.000 A 
ATOM     17  C   UNL     1       0.713  11.149  19.368  0.00  0.00    +0.000 A 
ATOM     18  C   UNL     1       0.256  10.784  20.642  0.00  0.00    +0.000 A 
ENDROOT
BRANCH   6  19
ATOM     19  N   UNL     1       2.501   5.022  20.736  0.00  0.00    +0.000 N 
ATOM     20  H   UNL     1       3.369   4.945  21.252  0.00  0.00    +0.000 HD
BRANCH  19  21
ATOM     21  C   UNL     1       1.491   3.981  20.900  0.00  0.00    +0.000 C 
BRANCH  21  22
ATOM     22  C   UNL     1       0.994   3.566  19.528  0.00  0.00    +0.000 C 
BRANCH  22  23
ATOM     23  C   UNL     1       1.341   2.111  19.191  0.00  0.00    +0.000 C 
BRANCH  23  24
ATOM     24  N   UNL     1       2.363   2.097  18.143  0.00  0.00    +0.000 NA
ATOM     25  C   UNL     1       3.741   1.953  18.629  0.00  0.00    +0.000 C 
ATOM     26  C   UNL     1       4.426   3.281  18.376  0.00  0.00    +0.000 C 
ATOM     27  C   UNL     1       3.730   3.782  17.130  0.00  0.00    +0.000 C 
ATOM     28  C   UNL     1       2.309   3.249  17.239  0.00  0.00    +0.000 C 
ENDBRANCH  23  24
ENDBRANCH  22  23
ENDBRANCH  21  22
ENDBRANCH  19  21
ENDBRANCH   6  19
TORSDOF 5
ENDMDL
MODEL 2
REMARK VINA RESULT:      -7.8      5.416      8.626
REMARK  Name = 
REMARK  5 active torsions:
REMARK  status: ('A' for Active; 'I' for Inactive)
REMARK    1  A    between atoms: C_6  and  N_7
REMARK    2  A    between atoms: N_7  and  C_8
REMARK    3  A    between atoms: C_8  and  C_9
REMARK    4  A    between atoms: C_9  and  C_10
REMARK    5  A    between atoms: C_10  and  N_11
REMARK                            x       y       z     vdW  Elec       q    Type
REMARK                         _______ _______ _______ _____ _____    ______ ____
ROOT
ATOM      1  O   UNL     1       4.399   2.231  16.637  0.00  0.00    +0.000 OA
ATOM      2  C   UNL     1       4.121   3.218  17.311  0.00  0.00    +0.000 C 
ATOM      3  C   UNL     1       4.984   4.428  17.280  0.00  0.00    +0.000 A 
ATOM      4  C   UNL     1       6.117   4.423  16.459  0.00  0.00    +0.000 A 
ATOM      5  C   UNL     1       6.934   5.544  16.404  0.00  0.00    +0.000 A 
ATOM      6  C   UNL     1       6.664   6.675  17.177  0.00  0.00    +0.000 A 
ATOM      7  C   UNL     1       5.517   6.662  17.994  0.00  0.00    +0.000 A 
ATOM      8  C   UNL     1       4.654   5.545  18.058  0.00  0.00    +0.000 A 
ATOM      9  C   UNL     1       3.439   5.520  18.896  0.00  0.00    +0.000 A 
ATOM     10  N   UNL     1       3.157   6.629  19.624  0.00  0.00    +0.000 NA
ATOM     11  C   UNL     1       2.046   6.606  20.395  0.00  0.00    +0.000 A 
ATOM     12  C   UNL     1       1.189   5.522  20.484  0.00  0.00    +0.000 A 
ATOM     13  C   UNL     1       1.474   4.380  19.737  0.00  0.00    +0.000 A 
ATOM     14  C   UNL     1       0.649   3.242  19.774  0.00  0.00    +0.000 A 
ATOM     15  C   UNL     1       0.956   2.110  19.016  0.00  0.00    +0.000 A 
ATOM     16  C   UNL     1       2.091   2.102  18.210  0.00  0.00    +0.000 A 
ATOM     17  C   UNL     1       2.918   3.228  18.167  0.00  0.00    +0.000 A 
ATOM     18  C   UNL     1       2.625   4.373  18.920  0.00  0.00    +0.000 A 
ENDROOT
BRANCH   6  19
ATOM     19  N   UNL     1       7.413   7.839  17.098  0.00  0.00    +0.000 N 
ATOM     20  H   UNL     1       7.170   8.501  16.370  0.00  0.00    +0.000 HD
BRANCH  19  21
ATOM     21  C   UNL     1       8.288   8.275  18.181  0.00  0.00    +0.000 C 
BRANCH  21  22
ATOM     22  C   UNL     1       8.473   9.778  18.081  0.00  0.00    +0.000 C 
BRANCH  22  23
ATOM     23  C   UNL     1       9.243  10.356  19.275  0.00  0.00    +0.000 C 
BRANCH  23  24
ATOM     24  N   UNL     1      10.409  11.089  18.778  0.00  0.00    +0.000 NA
ATOM     25  C   UNL     1      11.248  11.691  19.822  0.00  0.00    +0.000 C 
ATOM     26  C   UNL     1      11.067  13.191  19.707  0.00  0.00    +0.000 C 
ATOM     27  C   UNL     1      10.820  13.384  18.227  0.00  0.00    +0.000 C 
ATOM     28  C   UNL     1      10.089  12.123  17.789  0.00  0.00    +0.000 C 
ENDBRANCH  23  24
ENDBRANCH  22  23
ENDBRANCH  21  22
ENDBRANCH  19  21
ENDBRANCH   6  19
TORSDOF 5
ENDMDL
MODEL 3
REMARK VINA RESULT:      -7.5      1.149      2.214
REMARK  Name = 
REMARK  5 active torsions:
REMARK  status: ('A' for Active; 'I' for Inactive)
REMARK    1  A    between atoms: C_6  and  N_7
REMARK    2  A    between atoms: N_7  and  C_8
REMARK    3  A    between atoms: C_8  and  C_9
REMARK    4  A    between atoms: C_9  and  C_10
REMARK    5  A    between atoms: C_10  and  N_11
REMARK                            x       y       z     vdW  Elec       q    Type
REMARK                         _______ _______ _______ _____ _____    ______ ____
ROOT
ATOM      1  O   UNL     1       0.348  11.842  17.718  0.00  0.00    +0.000 OA
ATOM      2  C   UNL     1       0.332  11.191  18.758  0.00  0.00    +0.000 C 
ATOM      3  C   UNL     1       1.061   9.900  18.858  0.00  0.00    +0.000 A 
ATOM      4  C   UNL     1       1.774   9.444  17.745  0.00  0.00    +0.000 A 
ATOM      5  C   UNL     1       2.472   8.245  17.815  0.00  0.00    +0.000 A 
ATOM      6  C   UNL     1       2.454   7.465  18.973  0.00  0.00    +0.000 A 
ATOM      7  C   UNL     1       1.734   7.943  20.085  0.00  0.00    +0.000 A 
ATOM      8  C   UNL     1       1.030   9.168  20.052  0.00  0.00    +0.000 A 
ATOM      9  C   UNL     1       0.282   9.692  21.213  0.00  0.00    +0.000 A 
ATOM     10  N   UNL     1       0.289   8.951  22.349  0.00  0.00    +0.000 NA
ATOM     11  C   UNL     1      -0.397   9.428  23.412  0.00  0.00    +0.000 A 
ATOM     12  C   UNL     1      -1.104  10.619  23.404  0.00  0.00    +0.000 A 
ATOM     13  C   UNL     1      -1.113  11.385  22.239  0.00  0.00    +0.000 A 
ATOM     14  C   UNL     1      -1.806  12.605  22.157  0.00  0.00    +0.000 A 
ATOM     15  C   UNL     1      -1.800  13.354  20.978  0.00  0.00    +0.000 A 
ATOM     16  C   UNL     1      -1.101  12.892  19.867  0.00  0.00    +0.000 A 
ATOM     17  C   UNL     1      -0.410  11.679  19.938  0.00  0.00    +0.000 A 
ATOM     18  C   UNL     1      -0.404  10.915  21.112  0.00  0.00    +0.000 A 
ENDROOT
BRANCH   6  19
ATOM     19  N   UNL     1       3.194   6.300  19.109  0.00  0.00    +0.000 N 
ATOM     20  H   UNL     1       3.187   5.847  20.014  0.00  0.00    +0.000 HD
BRANCH  19  21
ATOM     21  C   UNL     1       3.697   5.561  17.956  0.00  0.00    +0.000 C 
BRANCH  21  22
ATOM     22  C   UNL     1       2.780   4.379  17.700  0.00  0.00    +0.000 C 
BRANCH  22  23
ATOM     23  C   UNL     1       3.365   3.058  18.216  0.00  0.00    +0.000 C 
BRANCH  23  24
ATOM     24  N   UNL     1       2.500   2.538  19.277  0.00  0.00    +0.000 NA
ATOM     25  C   UNL     1       1.126   3.057  19.259  0.00  0.00    +0.000 C 
ATOM     26  C   UNL     1       0.989   3.949  20.477  0.00  0.00    +0.000 C 
ATOM     27  C   UNL     1       1.922   3.298  21.473  0.00  0.00    +0.000 C 
ATOM     28  C   UNL     1       3.041   2.708  20.628  0.00  0.00    +0.000 C 
ENDBRANCH  23  24
ENDBRANCH  22  23
ENDBRANCH  21  22
ENDBRANCH  19  21
ENDBRANCH   6  19
TORSDOF 5
ENDMDL
MODEL 4
REMARK VINA RESULT:      -7.5      1.985      3.377
REMARK  Name = 
REMARK  5 active torsions:
REMARK  status: ('A' for Active; 'I' for Inactive)
REMARK    1  A    between atoms: C_6  and  N_7
REMARK    2  A    between atoms: N_7  and  C_8
REMARK    3  A    between atoms: C_8  and  C_9
REMARK    4  A    between atoms: C_9  and  C_10
REMARK    5  A    between atoms: C_10  and  N_11
REMARK                            x       y       z     vdW  Elec       q    Type
REMARK                         _______ _______ _______ _____ _____    ______ ____
ROOT
ATOM      1  O   UNL     1       0.213   9.538  23.586  0.00  0.00    +0.000 OA
ATOM      2  C   UNL     1       0.074   9.941  22.434  0.00  0.00    +0.000 C 
ATOM      3  C   UNL     1       0.723   9.237  21.298  0.00  0.00    +0.000 A 
ATOM      4  C   UNL     1       1.490   8.098  21.565  0.00  0.00    +0.000 A 
ATOM      5  C   UNL     1       2.099   7.415  20.520  0.00  0.00    +0.000 A 
ATOM      6  C   UNL     1       1.985   7.861  19.202  0.00  0.00    +0.000 A 
ATOM      7  C   UNL     1       1.206   9.007  18.953  0.00  0.00    +0.000 A 
ATOM      8  C   UNL     1       0.557   9.713  19.991  0.00  0.00    +0.000 A 
ATOM      9  C   UNL     1      -0.276  10.907  19.747  0.00  0.00    +0.000 A 
ATOM     10  N   UNL     1      -0.414  11.323  18.464  0.00  0.00    +0.000 NA
ATOM     11  C   UNL     1      -1.175  12.419  18.239  0.00  0.00    +0.000 A 
ATOM     12  C   UNL     1      -1.813  13.134  19.238  0.00  0.00    +0.000 A 
ATOM     13  C   UNL     1      -1.675  12.710  20.558  0.00  0.00    +0.000 A 
ATOM     14  C   UNL     1      -2.295  13.384  21.624  0.00  0.00    +0.000 A 
ATOM     15  C   UNL     1      -2.142  12.939  22.940  0.00  0.00    +0.000 A 
ATOM     16  C   UNL     1      -1.368  11.813  23.205  0.00  0.00    +0.000 A 
ATOM     17  C   UNL     1      -0.746  11.136  22.152  0.00  0.00    +0.000 A 
ATOM     18  C   UNL     1      -0.889  11.568  20.826  0.00  0.00    +0.000 A 
ENDROOT
BRANCH   6  19
ATOM     19  N   UNL     1       2.517   7.169  18.124  0.00  0.00    +0.000 N 
ATOM     20  H   UNL     1       2.717   7.698  17.284  0.00  0.00    +0.000 HD
BRANCH  19  21
ATOM     21  C   UNL     1       3.078   5.829  18.261  0.00  0.00    +0.000 C 
BRANCH  21  22
ATOM     22  C   UNL     1       2.025   4.817  17.852  0.00  0.00    +0.000 C 
BRANCH  22  23
ATOM     23  C   UNL     1       2.597   3.403  17.692  0.00  0.00    +0.000 C 
BRANCH  23  24
ATOM     24  N   UNL     1       2.196   2.595  18.846  0.00  0.00    +0.000 NA
ATOM     25  C   UNL     1       0.892   2.952  19.422  0.00  0.00    +0.000 C 
ATOM     26  C   UNL     1       1.177   3.571  20.776  0.00  0.00    +0.000 C 
ATOM     27  C   UNL     1       2.430   2.847  21.216  0.00  0.00    +0.000 C 
ATOM     28  C   UNL     1       3.185   2.561  19.926  0.00  0.00    +0.000 C 
ENDBRANCH  23  24
ENDBRANCH  22  23
ENDBRANCH  21  22
ENDBRANCH  19  21
ENDBRANCH   6  19
TORSDOF 5
ENDMDL
MODEL 5
REMARK VINA RESULT:      -7.4      2.742      7.761
REMARK  Name = 
REMARK  5 active torsions:
REMARK  status: ('A' for Active; 'I' for Inactive)
REMARK    1  A    between atoms: C_6  and  N_7
REMARK    2  A    between atoms: N_7  and  C_8
REMARK    3  A    between atoms: C_8  and  C_9
REMARK    4  A    between atoms: C_9  and  C_10
REMARK    5  A    between atoms: C_10  and  N_11
REMARK                            x       y       z     vdW  Elec       q    Type
REMARK                         _______ _______ _______ _____ _____    ______ ____
ROOT
ATOM      1  O   UNL     1       4.457   5.831  16.381  0.00  0.00    +0.000 OA
ATOM      2  C   UNL     1       3.764   5.606  17.369  0.00  0.00    +0.000 C 
ATOM      3  C   UNL     1       3.059   6.710  18.071  0.00  0.00    +0.000 A 
ATOM      4  C   UNL     1       3.194   8.012  17.578  0.00  0.00    +0.000 A 
ATOM      5  C   UNL     1       2.537   9.061  18.210  0.00  0.00    +0.000 A 
ATOM      6  C   UNL     1       1.763   8.846  19.352  0.00  0.00    +0.000 A 
ATOM      7  C   UNL     1       1.636   7.528  19.830  0.00  0.00    +0.000 A 
ATOM      8  C   UNL     1       2.275   6.436  19.199  0.00  0.00    +0.000 A 
ATOM      9  C   UNL     1       2.141   5.045  19.677  0.00  0.00    +0.000 A 
ATOM     10  N   UNL     1       1.364   4.830  20.768  0.00  0.00    +0.000 NA
ATOM     11  C   UNL     1       1.243   3.557  21.209  0.00  0.00    +0.000 A 
ATOM     12  C   UNL     1       1.865   2.471  20.615  0.00  0.00    +0.000 A 
ATOM     13  C   UNL     1       2.664   2.688  19.494  0.00  0.00    +0.000 A 
ATOM     14  C   UNL     1       3.325   1.635  18.838  0.00  0.00    +0.000 A 
ATOM     15  C   UNL     1       4.120   1.877  17.715  0.00  0.00    +0.000 A 
ATOM     16  C   UNL     1       4.264   3.175  17.235  0.00  0.00    +0.000 A 
ATOM     17  C   UNL     1       3.611   4.230  17.881  0.00  0.00    +0.000 A 
ATOM     18  C   UNL     1       2.809   4.005  19.007  0.00  0.00    +0.000 A 
ENDROOT
BRANCH   6  19
ATOM     19  N   UNL     1       1.035   9.852  19.969  0.00  0.00    +0.000 N 
ATOM     20  H   UNL     1       1.458  10.771  20.017  0.00  0.00    +0.000 HD
BRANCH  19  21
ATOM     21  C   UNL     1      -0.391   9.718  20.251  0.00  0.00    +0.000 C 
BRANCH  21  22
ATOM     22  C   UNL     1      -1.152  10.701  19.380  0.00  0.00    +0.000 C 
BRANCH  22  23
ATOM     23  C   UNL     1      -1.142  10.304  17.899  0.00  0.00    +0.000 C 
BRANCH  23  24
ATOM     24  N   UNL     1      -2.513  10.005  17.479  0.00  0.00    +0.000 NA
ATOM     25  C   UNL     1      -2.675   9.759  16.040  0.00  0.00    +0.000 C 
ATOM     26  C   UNL     1      -3.454  10.937  15.488  0.00  0.00    +0.000 C 
ATOM     27  C   UNL     1      -4.328  11.334  16.657  0.00  0.00    +0.000 C 
ATOM     28  C   UNL     1      -3.498  11.009  17.890  0.00  0.00    +0.000 C 
ENDBRANCH  23  24
ENDBRANCH  22  23
ENDBRANCH  21  22
ENDBRANCH  19  21
ENDBRANCH   6  19
TORSDOF 5
ENDMDL
MODEL 6
REMARK VINA RESULT:      -7.4      2.502      7.581
REMARK  Name = 
REMARK  5 active torsions:
REMARK  status: ('A' for Active; 'I' for Inactive)
REMARK    1  A    between atoms: C_6  and  N_7
REMARK    2  A    between atoms: N_7  and  C_8
REMARK    3  A    between atoms: C_8  and  C_9
REMARK    4  A    between atoms: C_9  and  C_10
REMARK    5  A    between atoms: C_10  and  N_11
REMARK                            x       y       z     vdW  Elec       q    Type
REMARK                         _______ _______ _______ _____ _____    ______ ____
ROOT
ATOM      1  O   UNL     1       3.972   7.209  16.419  0.00  0.00    +0.000 OA
ATOM      2  C   UNL     1       3.489   6.771  17.460  0.00  0.00    +0.000 C 
ATOM      3  C   UNL     1       2.666   7.639  18.340  0.00  0.00    +0.000 A 
ATOM      4  C   UNL     1       2.443   8.965  17.957  0.00  0.00    +0.000 A 
ATOM      5  C   UNL     1       1.669   9.795  18.758  0.00  0.00    +0.000 A 
ATOM      6  C   UNL     1       1.127   9.338  19.961  0.00  0.00    +0.000 A 
ATOM      7  C   UNL     1       1.359   7.999  20.328  0.00  0.00    +0.000 A 
ATOM      8  C   UNL     1       2.126   7.123  19.526  0.00  0.00    +0.000 A 
ATOM      9  C   UNL     1       2.366   5.712  19.886  0.00  0.00    +0.000 A 
ATOM     10  N   UNL     1       1.814   5.257  21.039  0.00  0.00    +0.000 NA
ATOM     11  C   UNL     1       2.036   3.965  21.373  0.00  0.00    +0.000 A 
ATOM     12  C   UNL     1       2.791   3.089  20.611  0.00  0.00    +0.000 A 
ATOM     13  C   UNL     1       3.359   3.551  19.425  0.00  0.00    +0.000 A 
ATOM     14  C   UNL     1       4.135   2.720  18.599  0.00  0.00    +0.000 A 
ATOM     15  C   UNL     1       4.694   3.207  17.415  0.00  0.00    +0.000 A 
ATOM     16  C   UNL     1       4.483   4.531  17.042  0.00  0.00    +0.000 A 
ATOM     17  C   UNL     1       3.713   5.367  17.857  0.00  0.00    +0.000 A 
ATOM     18  C   UNL     1       3.144   4.895  19.048  0.00  0.00    +0.000 A 
ENDROOT
BRANCH   6  19
ATOM     19  N   UNL     1       0.291  10.111  20.753  0.00  0.00    +0.000 N 
ATOM     20  H   UNL     1       0.054   9.751  21.669  0.00  0.00    +0.000 HD
BRANCH  19  21
ATOM     21  C   UNL     1       0.016  11.512  20.454  0.00  0.00    +0.000 C 
BRANCH  21  22
ATOM     22  C   UNL     1      -1.431  11.641  20.014  0.00  0.00    +0.000 C 
BRANCH  22  23
ATOM     23  C   UNL     1      -1.570  11.839  18.500  0.00  0.00    +0.000 C 
BRANCH  23  24
ATOM     24  N   UNL     1      -2.565  10.895  17.987  0.00  0.00    +0.000 NA
ATOM     25  C   UNL     1      -2.051   9.933  17.004  0.00  0.00    +0.000 C 
ATOM     26  C   UNL     1      -2.671  10.308  15.672  0.00  0.00    +0.000 C 
ATOM     27  C   UNL     1      -4.012  10.878  16.079  0.00  0.00    +0.000 C 
ATOM     28  C   UNL     1      -3.762  11.532  17.430  0.00  0.00    +0.000 C 
ENDBRANCH  23  24
ENDBRANCH  22  23
ENDBRANCH  21  22
ENDBRANCH  19  21
ENDBRANCH   6  19
TORSDOF 5
ENDMDL
MODEL 7
REMARK VINA RESULT:      -7.4      1.952      2.478
REMARK  Name = 
REMARK  5 active torsions:
REMARK  status: ('A' for Active; 'I' for Inactive)
REMARK    1  A    between atoms: C_6  and  N_7
REMARK    2  A    between atoms: N_7  and  C_8
REMARK    3  A    between atoms: C_8  and  C_9
REMARK    4  A    between atoms: C_9  and  C_10
REMARK    5  A    between atoms: C_10  and  N_11
REMARK                            x       y       z     vdW  Elec       q    Type
REMARK                         _______ _______ _______ _____ _____    ______ ____
ROOT
ATOM      1  O   UNL     1       1.214  10.535  17.347  0.00  0.00    +0.000 OA
ATOM      2  C   UNL     1       1.040  10.131  18.493  0.00  0.00    +0.000 C 
ATOM      3  C   UNL     1       1.619   8.838  18.939  0.00  0.00    +0.000 A 
ATOM      4  C   UNL     1       2.374   8.091  18.029  0.00  0.00    +0.000 A 
ATOM      5  C   UNL     1       2.934   6.882  18.424  0.00  0.00    +0.000 A 
ATOM      6  C   UNL     1       2.735   6.380  19.711  0.00  0.00    +0.000 A 
ATOM      7  C   UNL     1       1.975   7.147  20.614  0.00  0.00    +0.000 A 
ATOM      8  C   UNL     1       1.408   8.390  20.250  0.00  0.00    +0.000 A 
ATOM      9  C   UNL     1       0.622   9.216  21.187  0.00  0.00    +0.000 A 
ATOM     10  N   UNL     1       0.453   8.744  22.448  0.00  0.00    +0.000 NA
ATOM     11  C   UNL     1      -0.270   9.498  23.307  0.00  0.00    +0.000 A 
ATOM     12  C   UNL     1      -0.845  10.713  22.974  0.00  0.00    +0.000 A 
ATOM     13  C   UNL     1      -0.673  11.203  21.680  0.00  0.00    +0.000 A 
ATOM     14  C   UNL     1      -1.225  12.429  21.271  0.00  0.00    +0.000 A 
ATOM     15  C   UNL     1      -1.038  12.899  19.968  0.00  0.00    +0.000 A 
ATOM     16  C   UNL     1      -0.298  12.148  19.060  0.00  0.00    +0.000 A 
ATOM     17  C   UNL     1       0.254  10.926  19.457  0.00  0.00    +0.000 A 
ATOM     18  C   UNL     1       0.078  10.440  20.760  0.00  0.00    +0.000 A 
ENDROOT
BRANCH   6  19
ATOM     19  N   UNL     1       3.334   5.215  20.166  0.00  0.00    +0.000 N 
ATOM     20  H   UNL     1       3.415   5.094  21.169  0.00  0.00    +0.000 HD
BRANCH  19  21
ATOM     21  C   UNL     1       3.548   4.061  19.299  0.00  0.00    +0.000 C 
BRANCH  21  22
ATOM     22  C   UNL     1       4.986   4.078  18.815  0.00  0.00    +0.000 C 
BRANCH  22  23
ATOM     23  C   UNL     1       5.091   4.191  17.289  0.00  0.00    +0.000 C 
BRANCH  23  24
ATOM     24  N   UNL     1       6.356   4.845  16.947  0.00  0.00    +0.000 NA
ATOM     25  C   UNL     1       7.421   4.682  17.945  0.00  0.00    +0.000 C 
ATOM     26  C   UNL     1       7.634   6.045  18.572  0.00  0.00    +0.000 C 
ATOM     27  C   UNL     1       7.306   6.988  17.435  0.00  0.00    +0.000 C 
ATOM     28  C   UNL     1       6.228   6.271  16.636  0.00  0.00    +0.000 C 
ENDBRANCH  23  24
ENDBRANCH  22  23
ENDBRANCH  21  22
ENDBRANCH  19  21
ENDBRANCH   6  19
TORSDOF 5
ENDMDL
MODEL 8
REMARK VINA RESULT:      -7.4      1.286      1.719
REMARK  Name = 
REMARK  5 active torsions:
REMARK  status: ('A' for Active; 'I' for Inactive)
REMARK    1  A    between atoms: C_6  and  N_7
REMARK    2  A    between atoms: N_7  and  C_8
REMARK    3  A    between atoms: C_8  and  C_9
REMARK    4  A    between atoms: C_9  and  C_10
REMARK    5  A    between atoms: C_10  and  N_11
REMARK                            x       y       z     vdW  Elec       q    Type
REMARK                         _______ _______ _______ _____ _____    ______ ____
ROOT
ATOM      1  O   UNL     1       1.813  10.519  17.427  0.00  0.00    +0.000 OA
ATOM      2  C   UNL     1       1.424  10.196  18.547  0.00  0.00    +0.000 C 
ATOM      3  C   UNL     1       1.716   8.846  19.093  0.00  0.00    +0.000 A 
ATOM      4  C   UNL     1       2.452   7.950  18.310  0.00  0.00    +0.000 A 
ATOM      5  C   UNL     1       2.748   6.685  18.802  0.00  0.00    +0.000 A 
ATOM      6  C   UNL     1       2.299   6.275  20.059  0.00  0.00    +0.000 A 
ATOM      7  C   UNL     1       1.563   7.192  20.833  0.00  0.00    +0.000 A 
ATOM      8  C   UNL     1       1.262   8.493  20.371  0.00  0.00    +0.000 A 
ATOM      9  C   UNL     1       0.506   9.474  21.175  0.00  0.00    +0.000 A 
ATOM     10  N   UNL     1       0.095   9.088  22.409  0.00  0.00    +0.000 NA
ATOM     11  C   UNL     1      -0.601   9.983  23.146  0.00  0.00    +0.000 A 
ATOM     12  C   UNL     1      -0.917  11.260  22.713  0.00  0.00    +0.000 A 
ATOM     13  C   UNL     1      -0.497  11.662  21.446  0.00  0.00    +0.000 A 
ATOM     14  C   UNL     1      -0.779  12.943  20.940  0.00  0.00    +0.000 A 
ATOM     15  C   UNL     1      -0.346  13.321  19.667  0.00  0.00    +0.000 A 
ATOM     16  C   UNL     1       0.374  12.424  18.884  0.00  0.00    +0.000 A 
ATOM     17  C   UNL     1       0.659  11.147  19.378  0.00  0.00    +0.000 A 
ATOM     18  C   UNL     1       0.234  10.750  20.653  0.00  0.00    +0.000 A 
ENDROOT
BRANCH   6  19
ATOM     19  N   UNL     1       2.632   5.049  20.615  0.00  0.00    +0.000 N 
ATOM     20  H   UNL     1       2.657   4.988  21.626  0.00  0.00    +0.000 HD
BRANCH  19  21
ATOM     21  C   UNL     1       2.628   3.816  19.836  0.00  0.00    +0.000 C 
BRANCH  21  22
ATOM     22  C   UNL     1       4.026   3.580  19.294  0.00  0.00    +0.000 C 
BRANCH  22  23
ATOM     23  C   UNL     1       4.031   3.283  17.789  0.00  0.00    +0.000 C 
BRANCH  23  24
ATOM     24  N   UNL     1       5.262   3.819  17.204  0.00  0.00    +0.000 NA
ATOM     25  C   UNL     1       5.968   4.795  18.044  0.00  0.00    +0.000 C 
ATOM     26  C   UNL     1       5.826   6.137  17.356  0.00  0.00    +0.000 C 
ATOM     27  C   UNL     1       5.775   5.756  15.892  0.00  0.00    +0.000 C 
ATOM     28  C   UNL     1       5.088   4.399  15.870  0.00  0.00    +0.000 C 
ENDBRANCH  23  24
ENDBRANCH  22  23
ENDBRANCH  21  22
ENDBRANCH  19  21
ENDBRANCH   6  19
TORSDOF 5
ENDMDL
MODEL 9
REMARK VINA RESULT:      -7.3      1.387      1.853
REMARK  Name = 
REMARK  5 active torsions:
REMARK  status: ('A' for Active; 'I' for Inactive)
REMARK    1  A    between atoms: C_6  and  N_7
REMARK    2  A    between atoms: N_7  and  C_8
REMARK    3  A    between atoms: C_8  and  C_9
REMARK    4  A    between atoms: C_9  and  C_10
REMARK    5  A    between atoms: C_10  and  N_11
REMARK                            x       y       z     vdW  Elec       q    Type
REMARK                         _______ _______ _______ _____ _____    ______ ____
ROOT
ATOM      1  O   UNL     1       1.051  10.897  17.491  0.00  0.00    +0.000 OA
ATOM      2  C   UNL     1       0.865  10.445  18.617  0.00  0.00    +0.000 C 
ATOM      3  C   UNL     1       1.446   9.138  19.017  0.00  0.00    +0.000 A 
ATOM      4  C   UNL     1       2.216   8.433  18.086  0.00  0.00    +0.000 A 
ATOM      5  C   UNL     1       2.778   7.212  18.438  0.00  0.00    +0.000 A 
ATOM      6  C   UNL     1       2.566   6.656  19.700  0.00  0.00    +0.000 A 
ATOM      7  C   UNL     1       1.791   7.382  20.625  0.00  0.00    +0.000 A 
ATOM      8  C   UNL     1       1.221   8.635  20.305  0.00  0.00    +0.000 A 
ATOM      9  C   UNL     1       0.419   9.418  21.266  0.00  0.00    +0.000 A 
ATOM     10  N   UNL     1       0.238   8.893  22.504  0.00  0.00    +0.000 NA
ATOM     11  C   UNL     1      -0.500   9.607  23.385  0.00  0.00    +0.000 A 
ATOM     12  C   UNL     1      -1.077  10.832  23.095  0.00  0.00    +0.000 A 
ATOM     13  C   UNL     1      -0.893  11.376  21.825  0.00  0.00    +0.000 A 
ATOM     14  C   UNL     1      -1.446  12.615  21.459  0.00  0.00    +0.000 A 
ATOM     15  C   UNL     1      -1.247  13.139  20.179  0.00  0.00    +0.000 A 
ATOM     16  C   UNL     1      -0.491  12.430  19.250  0.00  0.00    +0.000 A 
ATOM     17  C   UNL     1       0.063  11.196  19.604  0.00  0.00    +0.000 A 
ATOM     18  C   UNL     1      -0.126  10.655  20.883  0.00  0.00    +0.000 A 
ENDROOT
BRANCH   6  19
ATOM     19  N   UNL     1       3.167   5.476  20.115  0.00  0.00    +0.000 N 
ATOM     20  H   UNL     1       4.009   5.553  20.673  0.00  0.00    +0.000 HD
BRANCH  19  21
ATOM     21  C   UNL     1       2.478   4.191  20.054  0.00  0.00    +0.000 C 
BRANCH  21  22
ATOM     22  C   UNL     1       3.099   3.360  18.947  0.00  0.00    +0.000 C 
BRANCH  22  23
ATOM     23  C   UNL     1       4.632   3.397  18.972  0.00  0.00    +0.000 C 
BRANCH  23  24
ATOM     24  N   UNL     1       5.097   4.420  18.034  0.00  0.00    +0.000 NA
ATOM     25  C   UNL     1       4.651   4.233  16.648  0.00  0.00    +0.000 C 
ATOM     26  C   UNL     1       5.883   3.863  15.847  0.00  0.00    +0.000 C 
ATOM     27  C   UNL     1       6.986   4.602  16.572  0.00  0.00    +0.000 C 
ATOM     28  C   UNL     1       6.550   4.613  18.030  0.00  0.00    +0.000 C 
ENDBRANCH  23  24
ENDBRANCH  22  23
ENDBRANCH  21  22
ENDBRANCH  19  21
ENDBRANCH   6  19
TORSDOF 5
ENDMDL
