MODEL 1
REMARK VINA RESULT:      -7.0      0.000      0.000
REMARK  Name = 
REMARK  3 active torsions:
REMARK  status: ('A' for Active; 'I' for Inactive)
REMARK    1  A    between atoms: C_4  and  N_5
REMARK    2  A    between atoms: C_7  and  C_8
REMARK    3  A    between atoms: C_10  and  C_11
REMARK                            x       y       z     vdW  Elec       q    Type
REMARK                         _______ _______ _______ _____ _____    ______ ____
ROOT
ATOM      1  N   UNL     1       8.704   9.567  18.469  0.00  0.00    +0.000 N 
ATOM      2  C   UNL     1       8.593   8.219  18.727  0.00  0.00    +0.000 A 
ATOM      3  C   UNL     1       7.598   7.786  17.880  0.00  0.00    +0.000 A 
ATOM      4  N   UNL     1       7.144   8.834  17.135  0.00  0.00    +0.000 NA
ATOM      5  N   UNL     1       7.799   9.920  17.520  0.00  0.00    +0.000 NA
ENDROOT
BRANCH   1   9
ATOM      6  C   UNL     1      11.313  12.386  20.215  0.00  0.00    +0.000 A 
ATOM      7  C   UNL     1      11.478  12.023  18.879  0.00  0.00    +0.000 A 
ATOM      8  C   UNL     1      10.624  11.086  18.292  0.00  0.00    +0.000 A 
ATOM      9  C   UNL     1       9.587  10.517  19.044  0.00  0.00    +0.000 A 
ATOM     10  C   UNL     1       9.418  10.895  20.386  0.00  0.00    +0.000 A 
ATOM     11  C   UNL     1      10.285  11.821  20.969  0.00  0.00    +0.000 A 
ENDBRANCH   1   9
BRANCH   3  12
ATOM     12  C   UNL     1       7.061   6.407  17.769  0.00  0.00    +0.000 A 
ATOM     13  N   UNL     1       5.897   6.004  18.243  0.00  0.00    +0.000 NA
ATOM     14  C   UNL     1       5.849   4.687  17.842  0.00  0.00    +0.000 A 
ATOM     15  N   UNL     1       6.948   4.266  17.202  0.00  0.00    +0.000 NA
ATOM     16  O   UNL     1       7.738   5.407  17.125  0.00  0.00    +0.000 OA
BRANCH  14  17
ATOM     17  C   UNL     1       4.661   3.797  18.045  0.00  0.00    +0.000 A 
ATOM     18  C   UNL     1       3.675   3.600  17.097  0.00  0.00    +0.000 A 
ATOM     19  C   UNL     1       2.622   2.769  17.577  0.00  0.00    +0.000 A 
ATOM     20  C   UNL     1       2.845   2.357  18.873  0.00  0.00    +0.000 A 
ATOM     21  S   UNL     1       4.338   2.938  19.483  0.00  0.00    +0.000 S 
ENDBRANCH  14  17
ENDBRANCH   3  12
TORSDOF 3
ENDMDL
MODEL 2
REMARK VINA RESULT:      -6.9      7.895      9.933
REMARK  Name = 
REMARK  3 active torsions:
REMARK  status: ('A' for Active; 'I' for Inactive)
REMARK    1  A    between atoms: C_4  and  N_5
REMARK    2  A    between atoms: C_7  and  C_8
REMARK    3  A    between atoms: C_10  and  C_11
REMARK                            x       y       z     vdW  Elec       q    Type
REMARK                         _______ _______ _______ _____ _____    ______ ____
ROOT
ATOM      1  N   UNL     1       2.270   7.089  19.302  0.00  0.00    +0.000 N 
ATOM      2  C   UNL     1       1.739   7.376  20.540  0.00  0.00    +0.000 A 
ATOM      3  C   UNL     1       1.275   8.667  20.426  0.00  0.00    +0.000 A 
ATOM      4  N   UNL     1       1.507   9.125  19.163  0.00  0.00    +0.000 NA
ATOM      5  N   UNL     1       2.141   8.173  18.494  0.00  0.00    +0.000 NA
ENDROOT
BRANCH   1   9
ATOM      6  C   UNL     1       4.037   3.516  17.919  0.00  0.00    +0.000 A 
ATOM      7  C   UNL     1       4.738   4.341  18.797  0.00  0.00    +0.000 A 
ATOM      8  C   UNL     1       4.165   5.530  19.258  0.00  0.00    +0.000 A 
ATOM      9  C   UNL     1       2.874   5.890  18.846  0.00  0.00    +0.000 A 
ATOM     10  C   UNL     1       2.169   5.048  17.970  0.00  0.00    +0.000 A 
ATOM     11  C   UNL     1       2.755   3.870  17.504  0.00  0.00    +0.000 A 
ENDBRANCH   1   9
BRANCH   3  12
ATOM     12  C   UNL     1       0.627   9.477  21.486  0.00  0.00    +0.000 A 
ATOM     13  N   UNL     1      -0.028  10.607  21.287  0.00  0.00    +0.000 NA
ATOM     14  C   UNL     1      -0.469  10.925  22.552  0.00  0.00    +0.000 A 
ATOM     15  N   UNL     1      -0.066  10.075  23.507  0.00  0.00    +0.000 NA
ATOM     16  O   UNL     1       0.633   9.102  22.802  0.00  0.00    +0.000 OA
BRANCH  14  17
ATOM     17  C   UNL     1      -1.368  12.084  22.853  0.00  0.00    +0.000 A 
ATOM     18  C   UNL     1      -2.670  11.955  23.297  0.00  0.00    +0.000 A 
ATOM     19  C   UNL     1      -3.324  13.214  23.430  0.00  0.00    +0.000 A 
ATOM     20  C   UNL     1      -2.494  14.260  23.088  0.00  0.00    +0.000 A 
ATOM     21  S   UNL     1      -0.927  13.721  22.653  0.00  0.00    +0.000 S 
ENDBRANCH  14  17
ENDBRANCH   3  12
TORSDOF 3
ENDMDL
MODEL 3
REMARK VINA RESULT:      -6.9      2.905      8.585
REMARK  Name = 
REMARK  3 active torsions:
REMARK  status: ('A' for Active; 'I' for Inactive)
REMARK    1  A    between atoms: C_4  and  N_5
REMARK    2  A    between atoms: C_7  and  C_8
REMARK    3  A    between atoms: C_10  and  C_11
REMARK                            x       y       z     vdW  Elec       q    Type
REMARK                         _______ _______ _______ _____ _____    ______ ____
ROOT
ATOM      1  N   UNL     1       4.882   5.254  17.279  0.00  0.00    +0.000 N 
ATOM      2  C   UNL     1       5.501   6.153  18.120  0.00  0.00    +0.000 A 
ATOM      3  C   UNL     1       6.456   6.758  17.336  0.00  0.00    +0.000 A 
ATOM      4  N   UNL     1       6.399   6.251  16.072  0.00  0.00    +0.000 NA
ATOM      5  N   UNL     1       5.462   5.315  16.052  0.00  0.00    +0.000 NA
ENDROOT
BRANCH   1   9
ATOM      6  C   UNL     1       1.665   2.649  18.090  0.00  0.00    +0.000 A 
ATOM      7  C   UNL     1       2.922   2.126  17.790  0.00  0.00    +0.000 A 
ATOM      8  C   UNL     1       3.994   2.979  17.514  0.00  0.00    +0.000 A 
ATOM      9  C   UNL     1       3.810   4.368  17.551  0.00  0.00    +0.000 A 
ATOM     10  C   UNL     1       2.544   4.889  17.865  0.00  0.00    +0.000 A 
ATOM     11  C   UNL     1       1.475   4.029  18.126  0.00  0.00    +0.000 A 
ENDBRANCH   1   9
BRANCH   3  12
ATOM     12  C   UNL     1       7.427   7.798  17.760  0.00  0.00    +0.000 A 
ATOM     13  N   UNL     1       7.478   9.029  17.286  0.00  0.00    +0.000 NA
ATOM     14  C   UNL     1       8.494   9.594  18.024  0.00  0.00    +0.000 A 
ATOM     15  N   UNL     1       9.092   8.749  18.875  0.00  0.00    +0.000 NA
ATOM     16  O   UNL     1       8.369   7.571  18.725  0.00  0.00    +0.000 OA
BRANCH  14  17
ATOM     17  C   UNL     1       8.882  11.038  17.939  0.00  0.00    +0.000 A 
ATOM     18  C   UNL     1       8.000  12.056  17.628  0.00  0.00    +0.000 A 
ATOM     19  C   UNL     1       8.647  13.322  17.538  0.00  0.00    +0.000 A 
ATOM     20  C   UNL     1       9.998  13.226  17.789  0.00  0.00    +0.000 A 
ATOM     21  S   UNL     1      10.468  11.623  18.172  0.00  0.00    +0.000 S 
ENDBRANCH  14  17
ENDBRANCH   3  12
TORSDOF 3
ENDMDL
MODEL 4
REMARK VINA RESULT:      -6.9      7.180      9.823
REMARK  Name = 
REMARK  3 active torsions:
REMARK  status: ('A' for Active; 'I' for Inactive)
REMARK    1  A    between atoms: C_4  and  N_5
REMARK    2  A    between atoms: C_7  and  C_8
REMARK    3  A    between atoms: C_10  and  C_11
REMARK                            x       y       z     vdW  Elec       q    Type
REMARK                         _______ _______ _______ _____ _____    ______ ____
ROOT
ATOM      1  N   UNL     1       2.426   5.837  19.303  0.00  0.00    +0.000 N 
ATOM      2  C   UNL     1       1.791   6.351  20.412  0.00  0.00    +0.000 A 
ATOM      3  C   UNL     1       1.704   7.702  20.165  0.00  0.00    +0.000 A 
ATOM      4  N   UNL     1       2.251   7.980  18.947  0.00  0.00    +0.000 NA
ATOM      5  N   UNL     1       2.716   6.846  18.443  0.00  0.00    +0.000 NA
ENDROOT
BRANCH   1   9
ATOM      6  C   UNL     1       3.410   1.834  18.403  0.00  0.00    +0.000 A 
ATOM      7  C   UNL     1       4.065   2.492  19.443  0.00  0.00    +0.000 A 
ATOM      8  C   UNL     1       3.751   3.819  19.747  0.00  0.00    +0.000 A 
ATOM      9  C   UNL     1       2.764   4.491  19.011  0.00  0.00    +0.000 A 
ATOM     10  C   UNL     1       2.101   3.819  17.972  0.00  0.00    +0.000 A 
ATOM     11  C   UNL     1       2.430   2.498  17.666  0.00  0.00    +0.000 A 
ENDBRANCH   1   9
BRANCH   3  12
ATOM     12  C   UNL     1       1.123   8.735  21.058  0.00  0.00    +0.000 A 
ATOM     13  N   UNL     1       0.160   9.574  20.725  0.00  0.00    +0.000 NA
ATOM     14  C   UNL     1      -0.048  10.272  21.893  0.00  0.00    +0.000 A 
ATOM     15  N   UNL     1       0.779   9.934  22.892  0.00  0.00    +0.000 NA
ATOM     16  O   UNL     1       1.533   8.898  22.353  0.00  0.00    +0.000 OA
BRANCH  14  17
ATOM     17  C   UNL     1      -1.132  11.290  22.074  0.00  0.00    +0.000 A 
ATOM     18  C   UNL     1      -1.782  11.519  23.273  0.00  0.00    +0.000 A 
ATOM     19  C   UNL     1      -2.823  12.484  23.147  0.00  0.00    +0.000 A 
ATOM     20  C   UNL     1      -2.927  12.960  21.858  0.00  0.00    +0.000 A 
ATOM     21  S   UNL     1      -1.745  12.276  20.824  0.00  0.00    +0.000 S 
ENDBRANCH  14  17
ENDBRANCH   3  12
TORSDOF 3
ENDMDL
MODEL 5
REMARK VINA RESULT:      -6.8      7.246      9.181
REMARK  Name = 
REMARK  3 active torsions:
REMARK  status: ('A' for Active; 'I' for Inactive)
REMARK    1  A    between atoms: C_4  and  N_5
REMARK    2  A    between atoms: C_7  and  C_8
REMARK    3  A    between atoms: C_10  and  C_11
REMARK                            x       y       z     vdW  Elec       q    Type
REMARK                         _______ _______ _______ _____ _____    ______ ____
ROOT
ATOM      1  N   UNL     1       2.837   6.368  18.956  0.00  0.00    +0.000 N 
ATOM      2  C   UNL     1       2.518   7.664  19.294  0.00  0.00    +0.000 A 
ATOM      3  C   UNL     1       1.741   7.545  20.425  0.00  0.00    +0.000 A 
ATOM      4  N   UNL     1       1.615   6.229  20.755  0.00  0.00    +0.000 NA
ATOM      5  N   UNL     1       2.257   5.516  19.840  0.00  0.00    +0.000 NA
ENDROOT
BRANCH   1   9
ATOM      6  C   UNL     1       5.187   4.924  15.763  0.00  0.00    +0.000 A 
ATOM      7  C   UNL     1       5.149   6.291  16.033  0.00  0.00    +0.000 A 
ATOM      8  C   UNL     1       4.369   6.781  17.084  0.00  0.00    +0.000 A 
ATOM      9  C   UNL     1       3.632   5.895  17.881  0.00  0.00    +0.000 A 
ATOM     10  C   UNL     1       3.684   4.517  17.611  0.00  0.00    +0.000 A 
ATOM     11  C   UNL     1       4.454   4.038  16.550  0.00  0.00    +0.000 A 
ENDBRANCH   1   9
BRANCH   3  12
ATOM     12  C   UNL     1       1.109   8.648  21.191  0.00  0.00    +0.000 A 
ATOM     13  N   UNL     1       0.212   9.490  20.711  0.00  0.00    +0.000 NA
ATOM     14  C   UNL     1      -0.088  10.266  21.808  0.00  0.00    +0.000 A 
ATOM     15  N   UNL     1       0.625   9.970  22.904  0.00  0.00    +0.000 NA
ATOM     16  O   UNL     1       1.394   8.882  22.508  0.00  0.00    +0.000 OA
BRANCH  14  17
ATOM     17  C   UNL     1      -1.151  11.321  21.817  0.00  0.00    +0.000 A 
ATOM     18  C   UNL     1      -1.836  11.715  22.950  0.00  0.00    +0.000 A 
ATOM     19  C   UNL     1      -2.846  12.678  22.663  0.00  0.00    +0.000 A 
ATOM     20  C   UNL     1      -2.892  12.989  21.322  0.00  0.00    +0.000 A 
ATOM     21  S   UNL     1      -1.693  12.152  20.428  0.00  0.00    +0.000 S 
ENDBRANCH  14  17
ENDBRANCH   3  12
TORSDOF 3
ENDMDL
MODEL 6
REMARK VINA RESULT:      -6.8      6.458      8.282
REMARK  Name = 
REMARK  3 active torsions:
REMARK  status: ('A' for Active; 'I' for Inactive)
REMARK    1  A    between atoms: C_4  and  N_5
REMARK    2  A    between atoms: C_7  and  C_8
REMARK    3  A    between atoms: C_10  and  C_11
REMARK                            x       y       z     vdW  Elec       q    Type
REMARK                         _______ _______ _______ _____ _____    ______ ____
ROOT
ATOM      1  N   UNL     1       4.069   6.321  18.004  0.00  0.00    +0.000 N 
ATOM      2  C   UNL     1       3.400   7.508  17.798  0.00  0.00    +0.000 A 
ATOM      3  C   UNL     1       2.492   7.576  18.829  0.00  0.00    +0.000 A 
ATOM      4  N   UNL     1       2.624   6.479  19.628  0.00  0.00    +0.000 NA
ATOM      5  N   UNL     1       3.563   5.705  19.103  0.00  0.00    +0.000 NA
ENDROOT
BRANCH   1   9
ATOM      6  C   UNL     1       7.197   4.632  15.731  0.00  0.00    +0.000 A 
ATOM      7  C   UNL     1       7.248   4.586  17.123  0.00  0.00    +0.000 A 
ATOM      8  C   UNL     1       6.220   5.147  17.887  0.00  0.00    +0.000 A 
ATOM      9  C   UNL     1       5.125   5.749  17.251  0.00  0.00    +0.000 A 
ATOM     10  C   UNL     1       5.074   5.783  15.848  0.00  0.00    +0.000 A 
ATOM     11  C   UNL     1       6.112   5.232  15.094  0.00  0.00    +0.000 A 
ENDBRANCH   1   9
BRANCH   3  12
ATOM     12  C   UNL     1       1.496   8.650  19.068  0.00  0.00    +0.000 A 
ATOM     13  N   UNL     1       1.033   9.008  20.252  0.00  0.00    +0.000 NA
ATOM     14  C   UNL     1       0.196  10.056  19.943  0.00  0.00    +0.000 A 
ATOM     15  N   UNL     1       0.090  10.309  18.631  0.00  0.00    +0.000 NA
ATOM     16  O   UNL     1       0.971   9.402  18.053  0.00  0.00    +0.000 OA
BRANCH  14  17
ATOM     17  C   UNL     1      -0.505  10.892  20.969  0.00  0.00    +0.000 A 
ATOM     18  C   UNL     1      -0.581  10.565  22.310  0.00  0.00    +0.000 A 
ATOM     19  C   UNL     1      -1.372  11.491  23.049  0.00  0.00    +0.000 A 
ATOM     20  C   UNL     1      -1.868  12.495  22.246  0.00  0.00    +0.000 A 
ATOM     21  S   UNL     1      -1.342  12.339  20.623  0.00  0.00    +0.000 S 
ENDBRANCH  14  17
ENDBRANCH   3  12
TORSDOF 3
ENDMDL
MODEL 7
REMARK VINA RESULT:      -6.8      7.994      9.725
REMARK  Name = 
REMARK  3 active torsions:
REMARK  status: ('A' for Active; 'I' for Inactive)
REMARK    1  A    between atoms: C_4  and  N_5
REMARK    2  A    between atoms: C_7  and  C_8
REMARK    3  A    between atoms: C_10  and  C_11
REMARK                            x       y       z     vdW  Elec       q    Type
REMARK                         _______ _______ _______ _____ _____    ______ ____
ROOT
ATOM      1  N   UNL     1       2.303   7.821  18.333  0.00  0.00    +0.000 N 
ATOM      2  C   UNL     1       1.744   8.126  19.554  0.00  0.00    +0.000 A 
ATOM      3  C   UNL     1       1.268   9.409  19.405  0.00  0.00    +0.000 A 
ATOM      4  N   UNL     1       1.520   9.845  18.138  0.00  0.00    +0.000 NA
ATOM      5  N   UNL     1       2.177   8.887  17.501  0.00  0.00    +0.000 NA
ENDROOT
BRANCH   1   9
ATOM      6  C   UNL     1       4.134   4.229  17.088  0.00  0.00    +0.000 A 
ATOM      7  C   UNL     1       4.810   5.440  16.940  0.00  0.00    +0.000 A 
ATOM      8  C   UNL     1       4.211   6.636  17.344  0.00  0.00    +0.000 A 
ATOM      9  C   UNL     1       2.930   6.620  17.912  0.00  0.00    +0.000 A 
ATOM     10  C   UNL     1       2.258   5.397  18.068  0.00  0.00    +0.000 A 
ATOM     11  C   UNL     1       2.858   4.208  17.649  0.00  0.00    +0.000 A 
ENDBRANCH   1   9
BRANCH   3  12
ATOM     12  C   UNL     1       0.589  10.232  20.437  0.00  0.00    +0.000 A 
ATOM     13  N   UNL     1      -0.606  10.777  20.309  0.00  0.00    +0.000 NA
ATOM     14  C   UNL     1      -0.795  11.378  21.534  0.00  0.00    +0.000 A 
ATOM     15  N   UNL     1       0.249  11.269  22.368  0.00  0.00    +0.000 NA
ATOM     16  O   UNL     1       1.152  10.487  21.657  0.00  0.00    +0.000 OA
BRANCH  14  17
ATOM     17  C   UNL     1      -2.066  12.055  21.942  0.00  0.00    +0.000 A 
ATOM     18  C   UNL     1      -2.557  12.058  23.234  0.00  0.00    +0.000 A 
ATOM     19  C   UNL     1      -3.822  12.707  23.331  0.00  0.00    +0.000 A 
ATOM     20  C   UNL     1      -4.248  13.182  22.109  0.00  0.00    +0.000 A 
ATOM     21  S   UNL     1      -3.105  12.880  20.869  0.00  0.00    +0.000 S 
ENDBRANCH  14  17
ENDBRANCH   3  12
TORSDOF 3
ENDMDL
MODEL 8
REMARK VINA RESULT:      -6.7      5.707      7.413
REMARK  Name = 
REMARK  3 active torsions:
REMARK  status: ('A' for Active; 'I' for Inactive)
REMARK    1  A    between atoms: C_4  and  N_5
REMARK    2  A    between atoms: C_7  and  C_8
REMARK    3  A    between atoms: C_10  and  C_11
REMARK                            x       y       z     vdW  Elec       q    Type
REMARK                         _______ _______ _______ _____ _____    ______ ____
ROOT
ATOM      1  N   UNL     1       5.874   4.752  15.813  0.00  0.00    +0.000 N 
ATOM      2  C   UNL     1       4.762   5.433  16.256  0.00  0.00    +0.000 A 
ATOM      3  C   UNL     1       4.790   5.289  17.624  0.00  0.00    +0.000 A 
ATOM      4  N   UNL     1       5.887   4.562  17.984  0.00  0.00    +0.000 NA
ATOM      5  N   UNL     1       6.524   4.212  16.876  0.00  0.00    +0.000 NA
ENDROOT
BRANCH   1   9
ATOM      6  C   UNL     1       7.258   4.230  11.862  0.00  0.00    +0.000 A 
ATOM      7  C   UNL     1       7.894   5.140  12.704  0.00  0.00    +0.000 A 
ATOM      8  C   UNL     1       7.441   5.325  14.013  0.00  0.00    +0.000 A 
ATOM      9  C   UNL     1       6.350   4.585  14.488  0.00  0.00    +0.000 A 
ATOM     10  C   UNL     1       5.720   3.661  13.637  0.00  0.00    +0.000 A 
ATOM     11  C   UNL     1       6.170   3.492  12.327  0.00  0.00    +0.000 A 
ENDBRANCH   1   9
BRANCH   3  12
ATOM     12  C   UNL     1       3.799   5.813  18.596  0.00  0.00    +0.000 A 
ATOM     13  N   UNL     1       3.341   7.051  18.621  0.00  0.00    +0.000 NA
ATOM     14  C   UNL     1       2.428   7.013  19.652  0.00  0.00    +0.000 A 
ATOM     15  N   UNL     1       2.358   5.833  20.282  0.00  0.00    +0.000 NA
ATOM     16  O   UNL     1       3.240   5.030  19.568  0.00  0.00    +0.000 OA
BRANCH  14  17
ATOM     17  C   UNL     1       1.542   8.162  20.022  0.00  0.00    +0.000 A 
ATOM     18  C   UNL     1       0.899   8.278  21.240  0.00  0.00    +0.000 A 
ATOM     19  C   UNL     1       0.057   9.426  21.300  0.00  0.00    +0.000 A 
ATOM     20  C   UNL     1       0.092  10.148  20.127  0.00  0.00    +0.000 A 
ATOM     21  S   UNL     1       1.168   9.463  18.983  0.00  0.00    +0.000 S 
ENDBRANCH  14  17
ENDBRANCH   3  12
TORSDOF 3
ENDMDL
MODEL 9
REMARK VINA RESULT:      -6.7      6.401      7.492
REMARK  Name = 
REMARK  3 active torsions:
REMARK  status: ('A' for Active; 'I' for Inactive)
REMARK    1  A    between atoms: C_4  and  N_5
REMARK    2  A    between atoms: C_7  and  C_8
REMARK    3  A    between atoms: C_10  and  C_11
REMARK                            x       y       z     vdW  Elec       q    Type
REMARK                         _______ _______ _______ _____ _____    ______ ____
ROOT
ATOM      1  N   UNL     1       0.766   9.858  19.966  0.00  0.00    +0.000 N 
ATOM      2  C   UNL     1       1.409   8.642  20.040  0.00  0.00    +0.000 A 
ATOM      3  C   UNL     1       1.891   8.427  18.769  0.00  0.00    +0.000 A 
ATOM      4  N   UNL     1       1.561   9.483  17.971  0.00  0.00    +0.000 NA
ATOM      5  N   UNL     1       0.851  10.334  18.697  0.00  0.00    +0.000 NA
ENDROOT
BRANCH   1   9
ATOM      6  C   UNL     1      -1.223  11.972  23.027  0.00  0.00    +0.000 A 
ATOM      7  C   UNL     1      -0.756  12.654  21.905  0.00  0.00    +0.000 A 
ATOM      8  C   UNL     1      -0.091  11.965  20.887  0.00  0.00    +0.000 A 
ATOM      9  C   UNL     1       0.098  10.580  20.987  0.00  0.00    +0.000 A 
ATOM     10  C   UNL     1      -0.385   9.897  22.115  0.00  0.00    +0.000 A 
ATOM     11  C   UNL     1      -1.036  10.595  23.134  0.00  0.00    +0.000 A 
ENDBRANCH   1   9
BRANCH   3  12
ATOM     12  C   UNL     1       2.646   7.242  18.292  0.00  0.00    +0.000 A 
ATOM     13  N   UNL     1       3.709   7.283  17.510  0.00  0.00    +0.000 NA
ATOM     14  C   UNL     1       4.057   5.955  17.406  0.00  0.00    +0.000 A 
ATOM     15  N   UNL     1       3.224   5.116  18.039  0.00  0.00    +0.000 NA
ATOM     16  O   UNL     1       2.309   5.966  18.650  0.00  0.00    +0.000 OA
BRANCH  14  17
ATOM     17  C   UNL     1       5.283   5.467  16.698  0.00  0.00    +0.000 A 
ATOM     18  C   UNL     1       5.439   5.488  15.325  0.00  0.00    +0.000 A 
ATOM     19  C   UNL     1       6.667   4.894  14.912  0.00  0.00    +0.000 A 
ATOM     20  C   UNL     1       7.406   4.446  15.985  0.00  0.00    +0.000 A 
ATOM     21  S   UNL     1       6.637   4.782  17.479  0.00  0.00    +0.000 S 
ENDBRANCH  14  17
ENDBRANCH   3  12
TORSDOF 3
ENDMDL
