MODEL 1
REMARK VINA RESULT:      -8.6      0.000      0.000
REMARK  Name = 
REMARK  9 active torsions:
REMARK  status: ('A' for Active; 'I' for Inactive)
REMARK    1  A    between atoms: C_1  and  C_2
REMARK    2  A    between atoms: C_2  and  O_3
REMARK    3  A    between atoms: O_3  and  C_4
REMARK    4  A    between atoms: C_4  and  O_5
REMARK    5  A    between atoms: C_7  and  C_8
REMARK    6  A    between atoms: C_15  and  C_16
REMARK    7  A    between atoms: C_15  and  C_17
REMARK    8  A    between atoms: C_19  and  C_20
REMARK    9  A    between atoms: N_29  and  C_30
REMARK                            x       y       z     vdW  Elec       q    Type
REMARK                         _______ _______ _______ _____ _____    ______ ____
ROOT
ATOM      1  C   UNL     1       5.883   6.900  16.936  0.00  0.00    +0.000 C 
ATOM      2  C   UNL     1       5.272   6.016  17.750  0.00  0.00    +0.000 C 
ATOM      3  C   UNL     1       5.923   5.230  18.855  0.00  0.00    +0.000 C 
ATOM      4  C   UNL     1       7.368   5.461  19.281  0.00  0.00    +0.000 C 
ATOM      5  N   UNL     1       5.355   4.258  19.511  0.00  0.00    +0.000 NA
ATOM      6  C   UNL     1       4.078   3.862  19.197  0.00  0.00    +0.000 C 
ATOM      7  C   UNL     1       3.309   4.513  18.312  0.00  0.00    +0.000 C 
ATOM      8  C   UNL     1       1.946   4.004  17.995  0.00  0.00    +0.000 C 
ATOM      9  O   UNL     1       1.226   4.588  17.187  0.00  0.00    +0.000 OA
ATOM     10  C   UNL     1       1.505   2.696  18.608  0.00  0.00    +0.000 C 
ATOM     11  C   UNL     1       2.078   2.473  20.013  0.00  0.00    +0.000 C 
ATOM     12  C   UNL     1       1.446   3.455  21.020  0.00  0.00    +0.000 C 
ATOM     13  C   UNL     1       1.741   1.041  20.465  0.00  0.00    +0.000 C 
ATOM     14  C   UNL     1       3.611   2.645  19.963  0.00  0.00    +0.000 C 
ATOM     15  C   UNL     1       3.765   5.771  17.623  0.00  0.00    +0.000 C 
ENDROOT
BRANCH  15  16
ATOM     16  C   UNL     1       2.982   6.978  18.152  0.00  0.00    +0.000 A 
ATOM     17  C   UNL     1       2.650   8.045  17.312  0.00  0.00    +0.000 A 
ATOM     18  C   UNL     1       1.915   9.136  17.797  0.00  0.00    +0.000 A 
ATOM     19  C   UNL     1       1.451   9.191  19.121  0.00  0.00    +0.000 A 
ATOM     20  C   UNL     1       1.791   8.109  19.960  0.00  0.00    +0.000 A 
ATOM     21  C   UNL     1       2.560   7.034  19.484  0.00  0.00    +0.000 A 
ATOM     22  C   UNL     1       1.267   8.014  21.368  0.00  0.00    +0.000 C 
ATOM     23  C   UNL     1       0.874   9.377  21.902  0.00  0.00    +0.000 C 
ATOM     24  C   UNL     1       0.001  10.082  20.878  0.00  0.00    +0.000 C 
ATOM     25  N   UNL     1       0.730  10.281  19.623  0.00  0.00    +0.000 N 
ATOM     26  C   UNL     1       0.159  11.255  18.697  0.00  0.00    +0.000 C 
ENDBRANCH  15  16
BRANCH   1  27
ATOM     27  O   UNL     1       5.155   7.510  15.931  0.00  0.00    +0.000 OA
ATOM     28  H   UNL     1       4.320   7.785  16.344  0.00  0.00    +0.000 HD
ENDBRANCH   1  27
BRANCH   1  29
ATOM     29  O   UNL     1       7.171   7.313  17.135  0.00  0.00    +0.000 OA
BRANCH  29  31
ATOM     30  C   UNL     1       8.559   8.751  18.401  0.00  0.00    +0.000 C 
ATOM     31  C   UNL     1       7.353   8.685  17.480  0.00  0.00    +0.000 C 
ENDBRANCH  29  31
ENDBRANCH   1  29
TORSDOF 4
ENDMDL
MODEL 2
REMARK VINA RESULT:      -7.3      4.208      7.857
REMARK  Name = 
REMARK  9 active torsions:
REMARK  status: ('A' for Active; 'I' for Inactive)
REMARK    1  A    between atoms: C_1  and  C_2
REMARK    2  A    between atoms: C_2  and  O_3
REMARK    3  A    between atoms: O_3  and  C_4
REMARK    4  A    between atoms: C_4  and  O_5
REMARK    5  A    between atoms: C_7  and  C_8
REMARK    6  A    between atoms: C_15  and  C_16
REMARK    7  A    between atoms: C_15  and  C_17
REMARK    8  A    between atoms: C_19  and  C_20
REMARK    9  A    between atoms: N_29  and  C_30
REMARK                            x       y       z     vdW  Elec       q    Type
REMARK                         _______ _______ _______ _____ _____    ______ ____
ROOT
ATOM      1  C   UNL     1       1.382   9.398  18.717  0.00  0.00    +0.000 C 
ATOM      2  C   UNL     1       0.769   9.986  19.764  0.00  0.00    +0.000 C 
ATOM      3  C   UNL     1       0.659   9.428  21.156  0.00  0.00    +0.000 C 
ATOM      4  C   UNL     1       1.375   8.153  21.586  0.00  0.00    +0.000 C 
ATOM      5  N   UNL     1      -0.084   9.930  22.102  0.00  0.00    +0.000 NA
ATOM      6  C   UNL     1      -0.863  11.034  21.860  0.00  0.00    +0.000 C 
ATOM      7  C   UNL     1      -0.814  11.724  20.711  0.00  0.00    +0.000 C 
ATOM      8  C   UNL     1      -1.715  12.892  20.506  0.00  0.00    +0.000 C 
ATOM      9  O   UNL     1      -1.685  13.538  19.459  0.00  0.00    +0.000 OA
ATOM     10  C   UNL     1      -2.744  13.204  21.568  0.00  0.00    +0.000 C 
ATOM     11  C   UNL     1      -2.255  12.877  22.984  0.00  0.00    +0.000 C 
ATOM     12  C   UNL     1      -1.139  13.850  23.413  0.00  0.00    +0.000 C 
ATOM     13  C   UNL     1      -3.431  13.036  23.965  0.00  0.00    +0.000 C 
ATOM     14  C   UNL     1      -1.756  11.416  23.019  0.00  0.00    +0.000 C 
ATOM     15  C   UNL     1       0.143  11.375  19.603  0.00  0.00    +0.000 C 
ENDROOT
BRANCH  15  16
ATOM     16  C   UNL     1       1.236  12.444  19.491  0.00  0.00    +0.000 A 
ATOM     17  C   UNL     1       1.468  13.112  18.285  0.00  0.00    +0.000 A 
ATOM     18  C   UNL     1       2.454  14.104  18.195  0.00  0.00    +0.000 A 
ATOM     19  C   UNL     1       3.220  14.494  19.305  0.00  0.00    +0.000 A 
ATOM     20  C   UNL     1       2.978  13.814  20.517  0.00  0.00    +0.000 A 
ATOM     21  C   UNL     1       2.016  12.794  20.597  0.00  0.00    +0.000 A 
ATOM     22  C   UNL     1       3.670  14.215  21.792  0.00  0.00    +0.000 C 
ATOM     23  C   UNL     1       4.961  14.955  21.509  0.00  0.00    +0.000 C 
ATOM     24  C   UNL     1       4.698  16.046  20.485  0.00  0.00    +0.000 C 
ATOM     25  N   UNL     1       4.220  15.472  19.225  0.00  0.00    +0.000 N 
ATOM     26  C   UNL     1       4.280  16.347  18.058  0.00  0.00    +0.000 C 
ENDBRANCH  15  16
BRANCH   1  27
ATOM     27  O   UNL     1       1.357  10.018  17.482  0.00  0.00    +0.000 OA
ATOM     28  H   UNL     1       2.231   9.853  17.090  0.00  0.00    +0.000 HD
ENDBRANCH   1  27
BRANCH   1  29
ATOM     29  O   UNL     1       2.134   8.264  18.850  0.00  0.00    +0.000 OA
BRANCH  29  31
ATOM     30  C   UNL     1       3.451   6.500  17.984  0.00  0.00    +0.000 C 
ATOM     31  C   UNL     1       2.964   7.918  17.743  0.00  0.00    +0.000 C 
ENDBRANCH  29  31
ENDBRANCH   1  29
TORSDOF 4
ENDMDL
MODEL 3
REMARK VINA RESULT:      -7.3      0.599      1.624
REMARK  Name = 
REMARK  9 active torsions:
REMARK  status: ('A' for Active; 'I' for Inactive)
REMARK    1  A    between atoms: C_1  and  C_2
REMARK    2  A    between atoms: C_2  and  O_3
REMARK    3  A    between atoms: O_3  and  C_4
REMARK    4  A    between atoms: C_4  and  O_5
REMARK    5  A    between atoms: C_7  and  C_8
REMARK    6  A    between atoms: C_15  and  C_16
REMARK    7  A    between atoms: C_15  and  C_17
REMARK    8  A    between atoms: C_19  and  C_20
REMARK    9  A    between atoms: N_29  and  C_30
REMARK                            x       y       z     vdW  Elec       q    Type
REMARK                         _______ _______ _______ _____ _____    ______ ____
ROOT
ATOM      1  C   UNL     1       5.728   6.964  16.958  0.00  0.00    +0.000 C 
ATOM      2  C   UNL     1       5.201   5.946  17.668  0.00  0.00    +0.000 C 
ATOM      3  C   UNL     1       5.952   5.023  18.588  0.00  0.00    +0.000 C 
ATOM      4  C   UNL     1       7.419   5.233  18.939  0.00  0.00    +0.000 C 
ATOM      5  N   UNL     1       5.456   3.944  19.125  0.00  0.00    +0.000 NA
ATOM      6  C   UNL     1       4.168   3.559  18.847  0.00  0.00    +0.000 C 
ATOM      7  C   UNL     1       3.319   4.311  18.132  0.00  0.00    +0.000 C 
ATOM      8  C   UNL     1       1.947   3.813  17.840  0.00  0.00    +0.000 C 
ATOM      9  O   UNL     1       1.154   4.489  17.186  0.00  0.00    +0.000 OA
ATOM     10  C   UNL     1       1.582   2.412  18.273  0.00  0.00    +0.000 C 
ATOM     11  C   UNL     1       2.266   1.996  19.581  0.00  0.00    +0.000 C 
ATOM     12  C   UNL     1       1.693   2.791  20.771  0.00  0.00    +0.000 C 
ATOM     13  C   UNL     1       1.995   0.501  19.830  0.00  0.00    +0.000 C 
ATOM     14  C   UNL     1       3.787   2.224  19.447  0.00  0.00    +0.000 C 
ATOM     15  C   UNL     1       3.694   5.674  17.614  0.00  0.00    +0.000 C 
ENDROOT
BRANCH  15  16
ATOM     16  C   UNL     1       2.928   6.760  18.380  0.00  0.00    +0.000 A 
ATOM     17  C   UNL     1       2.570   6.580  19.719  0.00  0.00    +0.000 A 
ATOM     18  C   UNL     1       1.890   7.586  20.419  0.00  0.00    +0.000 A 
ATOM     19  C   UNL     1       1.571   8.818  19.828  0.00  0.00    +0.000 A 
ATOM     20  C   UNL     1       1.936   8.990  18.476  0.00  0.00    +0.000 A 
ATOM     21  C   UNL     1       2.585   7.968  17.764  0.00  0.00    +0.000 A 
ATOM     22  C   UNL     1       1.733  10.303  17.769  0.00  0.00    +0.000 C 
ATOM     23  C   UNL     1       0.652  11.128  18.440  0.00  0.00    +0.000 C 
ATOM     24  C   UNL     1       0.913  11.173  19.936  0.00  0.00    +0.000 C 
ATOM     25  N   UNL     1       0.877   9.825  20.511  0.00  0.00    +0.000 N 
ATOM     26  C   UNL     1       0.743   9.751  21.962  0.00  0.00    +0.000 C 
ENDBRANCH  15  16
BRANCH   1  27
ATOM     27  O   UNL     1       4.913   7.696  16.116  0.00  0.00    +0.000 OA
ATOM     28  H   UNL     1       4.582   8.437  16.651  0.00  0.00    +0.000 HD
ENDBRANCH   1  27
BRANCH   1  29
ATOM     29  O   UNL     1       7.018   7.383  17.125  0.00  0.00    +0.000 OA
BRANCH  29  31
ATOM     30  C   UNL     1       8.509   8.785  18.313  0.00  0.00    +0.000 C 
ATOM     31  C   UNL     1       7.199   8.734  17.546  0.00  0.00    +0.000 C 
ENDBRANCH  29  31
ENDBRANCH   1  29
TORSDOF 4
ENDMDL
MODEL 4
REMARK VINA RESULT:      -7.2      6.518     12.021
REMARK  Name = 
REMARK  9 active torsions:
REMARK  status: ('A' for Active; 'I' for Inactive)
REMARK    1  A    between atoms: C_1  and  C_2
REMARK    2  A    between atoms: C_2  and  O_3
REMARK    3  A    between atoms: O_3  and  C_4
REMARK    4  A    between atoms: C_4  and  O_5
REMARK    5  A    between atoms: C_7  and  C_8
REMARK    6  A    between atoms: C_15  and  C_16
REMARK    7  A    between atoms: C_15  and  C_17
REMARK    8  A    between atoms: C_19  and  C_20
REMARK    9  A    between atoms: N_29  and  C_30
REMARK                            x       y       z     vdW  Elec       q    Type
REMARK                         _______ _______ _______ _____ _____    ______ ____
ROOT
ATOM      1  C   UNL     1      -5.677  12.278  20.944  0.00  0.00    +0.000 C 
ATOM      2  C   UNL     1      -5.110  13.047  21.896  0.00  0.00    +0.000 C 
ATOM      3  C   UNL     1      -5.612  13.234  23.302  0.00  0.00    +0.000 C 
ATOM      4  C   UNL     1      -6.781  12.436  23.866  0.00  0.00    +0.000 C 
ATOM      5  N   UNL     1      -5.150  14.113  24.145  0.00  0.00    +0.000 NA
ATOM      6  C   UNL     1      -4.148  14.975  23.771  0.00  0.00    +0.000 C 
ATOM      7  C   UNL     1      -3.511  14.886  22.595  0.00  0.00    +0.000 C 
ATOM      8  C   UNL     1      -2.458  15.878  22.243  0.00  0.00    +0.000 C 
ATOM      9  O   UNL     1      -1.861  15.812  21.169  0.00  0.00    +0.000 OA
ATOM     10  C   UNL     1      -2.209  17.031  23.187  0.00  0.00    +0.000 C 
ATOM     11  C   UNL     1      -2.416  16.652  24.658  0.00  0.00    +0.000 C 
ATOM     12  C   UNL     1      -1.310  15.689  25.132  0.00  0.00    +0.000 C 
ATOM     13  C   UNL     1      -2.340  17.928  25.515  0.00  0.00    +0.000 C 
ATOM     14  C   UNL     1      -3.812  16.011  24.820  0.00  0.00    +0.000 C 
ATOM     15  C   UNL     1      -3.806  13.794  21.601  0.00  0.00    +0.000 C 
ENDROOT
BRANCH  15  16
ATOM     16  C   UNL     1      -2.631  12.811  21.530  0.00  0.00    +0.000 A 
ATOM     17  C   UNL     1      -2.135  12.198  22.684  0.00  0.00    +0.000 A 
ATOM     18  C   UNL     1      -1.076  11.283  22.609  0.00  0.00    +0.000 A 
ATOM     19  C   UNL     1      -0.494  10.917  21.385  0.00  0.00    +0.000 A 
ATOM     20  C   UNL     1      -1.002  11.542  20.227  0.00  0.00    +0.000 A 
ATOM     21  C   UNL     1      -2.038  12.486  20.306  0.00  0.00    +0.000 A 
ATOM     22  C   UNL     1      -0.522  11.155  18.853  0.00  0.00    +0.000 C 
ATOM     23  C   UNL     1       0.852  10.519  18.909  0.00  0.00    +0.000 C 
ATOM     24  C   UNL     1       0.862   9.442  19.981  0.00  0.00    +0.000 C 
ATOM     25  N   UNL     1       0.575  10.017  21.298  0.00  0.00    +0.000 N 
ATOM     26  C   UNL     1       0.912   9.184  22.448  0.00  0.00    +0.000 C 
ENDBRANCH  15  16
BRANCH   1  27
ATOM     27  O   UNL     1      -5.120  12.246  19.680  0.00  0.00    +0.000 OA
ATOM     28  H   UNL     1      -4.168  12.110  19.817  0.00  0.00    +0.000 HD
ENDBRANCH   1  27
BRANCH   1  29
ATOM     29  O   UNL     1      -6.716  11.430  21.209  0.00  0.00    +0.000 OA
BRANCH  29  31
ATOM     30  C   UNL     1      -7.276   9.429  20.078  0.00  0.00    +0.000 C 
ATOM     31  C   UNL     1      -7.439  10.939  20.082  0.00  0.00    +0.000 C 
ENDBRANCH  29  31
ENDBRANCH   1  29
TORSDOF 4
ENDMDL
MODEL 5
REMARK VINA RESULT:      -7.1      6.304     11.685
REMARK  Name = 
REMARK  9 active torsions:
REMARK  status: ('A' for Active; 'I' for Inactive)
REMARK    1  A    between atoms: C_1  and  C_2
REMARK    2  A    between atoms: C_2  and  O_3
REMARK    3  A    between atoms: O_3  and  C_4
REMARK    4  A    between atoms: C_4  and  O_5
REMARK    5  A    between atoms: C_7  and  C_8
REMARK    6  A    between atoms: C_15  and  C_16
REMARK    7  A    between atoms: C_15  and  C_17
REMARK    8  A    between atoms: C_19  and  C_20
REMARK    9  A    between atoms: N_29  and  C_30
REMARK                            x       y       z     vdW  Elec       q    Type
REMARK                         _______ _______ _______ _____ _____    ______ ____
ROOT
ATOM      1  C   UNL     1      -5.709  12.550  19.689  0.00  0.00    +0.000 C 
ATOM      2  C   UNL     1      -5.220  13.144  20.796  0.00  0.00    +0.000 C 
ATOM      3  C   UNL     1      -5.887  13.197  22.144  0.00  0.00    +0.000 C 
ATOM      4  C   UNL     1      -7.171  12.437  22.452  0.00  0.00    +0.000 C 
ATOM      5  N   UNL     1      -5.479  13.922  23.147  0.00  0.00    +0.000 NA
ATOM      6  C   UNL     1      -4.381  14.735  23.015  0.00  0.00    +0.000 C 
ATOM      7  C   UNL     1      -3.603  14.739  21.923  0.00  0.00    +0.000 C 
ATOM      8  C   UNL     1      -2.448  15.675  21.835  0.00  0.00    +0.000 C 
ATOM      9  O   UNL     1      -1.723  15.693  20.842  0.00  0.00    +0.000 OA
ATOM     10  C   UNL     1      -2.247  16.677  22.948  0.00  0.00    +0.000 C 
ATOM     11  C   UNL     1      -2.669  16.137  24.320  0.00  0.00    +0.000 C 
ATOM     12  C   UNL     1      -1.702  15.031  24.790  0.00  0.00    +0.000 C 
ATOM     13  C   UNL     1      -2.617  17.285  25.343  0.00  0.00    +0.000 C 
ATOM     14  C   UNL     1      -4.114  15.601  24.226  0.00  0.00    +0.000 C 
ATOM     15  C   UNL     1      -3.841  13.809  20.763  0.00  0.00    +0.000 C 
ENDROOT
BRANCH  15  16
ATOM     16  C   UNL     1      -2.737  12.746  20.703  0.00  0.00    +0.000 A 
ATOM     17  C   UNL     1      -2.120  12.418  19.492  0.00  0.00    +0.000 A 
ATOM     18  C   UNL     1      -1.096  11.461  19.447  0.00  0.00    +0.000 A 
ATOM     19  C   UNL     1      -0.624  10.823  20.605  0.00  0.00    +0.000 A 
ATOM     20  C   UNL     1      -1.253  11.161  21.821  0.00  0.00    +0.000 A 
ATOM     21  C   UNL     1      -2.303  12.092  21.860  0.00  0.00    +0.000 A 
ATOM     22  C   UNL     1      -0.765  10.614  23.136  0.00  0.00    +0.000 C 
ATOM     23  C   UNL     1       0.010   9.326  22.942  0.00  0.00    +0.000 C 
ATOM     24  C   UNL     1       1.040   9.523  21.842  0.00  0.00    +0.000 C 
ATOM     25  N   UNL     1       0.387   9.853  20.572  0.00  0.00    +0.000 N 
ATOM     26  C   UNL     1       1.205   9.706  19.373  0.00  0.00    +0.000 C 
ENDBRANCH  15  16
BRANCH   1  27
ATOM     27  O   UNL     1      -4.997  12.628  18.508  0.00  0.00    +0.000 OA
ATOM     28  H   UNL     1      -4.772  11.712  18.277  0.00  0.00    +0.000 HD
ENDBRANCH   1  27
BRANCH   1  29
ATOM     29  O   UNL     1      -6.830  11.767  19.711  0.00  0.00    +0.000 OA
BRANCH  29  31
ATOM     30  C   UNL     1      -7.178   9.429  19.809  0.00  0.00    +0.000 C 
ATOM     31  C   UNL     1      -6.799  10.590  18.907  0.00  0.00    +0.000 C 
ENDBRANCH  29  31
ENDBRANCH   1  29
TORSDOF 4
ENDMDL
MODEL 6
REMARK VINA RESULT:      -7.0      4.485      8.444
REMARK  Name = 
REMARK  9 active torsions:
REMARK  status: ('A' for Active; 'I' for Inactive)
REMARK    1  A    between atoms: C_1  and  C_2
REMARK    2  A    between atoms: C_2  and  O_3
REMARK    3  A    between atoms: O_3  and  C_4
REMARK    4  A    between atoms: C_4  and  O_5
REMARK    5  A    between atoms: C_7  and  C_8
REMARK    6  A    between atoms: C_15  and  C_16
REMARK    7  A    between atoms: C_15  and  C_17
REMARK    8  A    between atoms: C_19  and  C_20
REMARK    9  A    between atoms: N_29  and  C_30
REMARK                            x       y       z     vdW  Elec       q    Type
REMARK                         _______ _______ _______ _____ _____    ______ ____
ROOT
ATOM      1  C   UNL     1       1.218   9.907  18.892  0.00  0.00    +0.000 C 
ATOM      2  C   UNL     1       0.578  10.454  19.946  0.00  0.00    +0.000 C 
ATOM      3  C   UNL     1       0.344   9.798  21.280  0.00  0.00    +0.000 C 
ATOM      4  C   UNL     1       0.948   8.448  21.645  0.00  0.00    +0.000 C 
ATOM      5  N   UNL     1      -0.424  10.276  22.218  0.00  0.00    +0.000 NA
ATOM      6  C   UNL     1      -1.114  11.447  22.021  0.00  0.00    +0.000 C 
ATOM      7  C   UNL     1      -0.948  12.218  20.938  0.00  0.00    +0.000 C 
ATOM      8  C   UNL     1      -1.757  13.458  20.776  0.00  0.00    +0.000 C 
ATOM      9  O   UNL     1      -1.619  14.179  19.789  0.00  0.00    +0.000 OA
ATOM     10  C   UNL     1      -2.829  13.757  21.798  0.00  0.00    +0.000 C 
ATOM     11  C   UNL     1      -2.454  13.289  23.209  0.00  0.00    +0.000 C 
ATOM     12  C   UNL     1      -1.307  14.147  23.780  0.00  0.00    +0.000 C 
ATOM     13  C   UNL     1      -3.677  13.452  24.129  0.00  0.00    +0.000 C 
ATOM     14  C   UNL     1      -2.053  11.799  23.154  0.00  0.00    +0.000 C 
ATOM     15  C   UNL     1       0.053  11.891  19.863  0.00  0.00    +0.000 C 
ENDROOT
BRANCH  15  16
ATOM     16  C   UNL     1       1.218  12.887  19.902  0.00  0.00    +0.000 A 
ATOM     17  C   UNL     1       2.033  12.997  21.032  0.00  0.00    +0.000 A 
ATOM     18  C   UNL     1       3.110  13.895  21.053  0.00  0.00    +0.000 A 
ATOM     19  C   UNL     1       3.438  14.689  19.943  0.00  0.00    +0.000 A 
ATOM     20  C   UNL     1       2.608  14.571  18.808  0.00  0.00    +0.000 A 
ATOM     21  C   UNL     1       1.508  13.699  18.800  0.00  0.00    +0.000 A 
ATOM     22  C   UNL     1       2.922  15.300  17.528  0.00  0.00    +0.000 C 
ATOM     23  C   UNL     1       3.797  16.510  17.784  0.00  0.00    +0.000 C 
ATOM     24  C   UNL     1       4.969  16.104  18.661  0.00  0.00    +0.000 C 
ATOM     25  N   UNL     1       4.500  15.602  19.956  0.00  0.00    +0.000 N 
ATOM     26  C   UNL     1       5.501  15.527  21.015  0.00  0.00    +0.000 C 
ENDBRANCH  15  16
BRANCH   1  27
ATOM     27  O   UNL     1       1.311  10.621  17.712  0.00  0.00    +0.000 OA
ATOM     28  H   UNL     1       2.170  11.074  17.749  0.00  0.00    +0.000 HD
ENDBRANCH   1  27
BRANCH   1  29
ATOM     29  O   UNL     1       1.885   8.717  18.976  0.00  0.00    +0.000 OA
BRANCH  29  31
ATOM     30  C   UNL     1       3.049   6.864  18.076  0.00  0.00    +0.000 C 
ATOM     31  C   UNL     1       2.515   8.255  17.782  0.00  0.00    +0.000 C 
ENDBRANCH  29  31
ENDBRANCH   1  29
TORSDOF 4
ENDMDL
MODEL 7
REMARK VINA RESULT:      -7.0      4.863      9.452
REMARK  Name = 
REMARK  9 active torsions:
REMARK  status: ('A' for Active; 'I' for Inactive)
REMARK    1  A    between atoms: C_1  and  C_2
REMARK    2  A    between atoms: C_2  and  O_3
REMARK    3  A    between atoms: O_3  and  C_4
REMARK    4  A    between atoms: C_4  and  O_5
REMARK    5  A    between atoms: C_7  and  C_8
REMARK    6  A    between atoms: C_15  and  C_16
REMARK    7  A    between atoms: C_15  and  C_17
REMARK    8  A    between atoms: C_19  and  C_20
REMARK    9  A    between atoms: N_29  and  C_30
REMARK                            x       y       z     vdW  Elec       q    Type
REMARK                         _______ _______ _______ _____ _____    ______ ____
ROOT
ATOM      1  C   UNL     1       0.607   9.857  21.301  0.00  0.00    +0.000 C 
ATOM      2  C   UNL     1       0.641  11.046  20.665  0.00  0.00    +0.000 C 
ATOM      3  C   UNL     1       0.913  11.262  19.202  0.00  0.00    +0.000 C 
ATOM      4  C   UNL     1       1.046  10.109  18.214  0.00  0.00    +0.000 C 
ATOM      5  N   UNL     1       1.113  12.424  18.647  0.00  0.00    +0.000 NA
ATOM      6  C   UNL     1       1.111  13.567  19.409  0.00  0.00    +0.000 C 
ATOM      7  C   UNL     1       0.785  13.576  20.709  0.00  0.00    +0.000 C 
ATOM      8  C   UNL     1       0.840  14.848  21.481  0.00  0.00    +0.000 C 
ATOM      9  O   UNL     1       0.544  14.877  22.675  0.00  0.00    +0.000 OA
ATOM     10  C   UNL     1       1.369  16.086  20.793  0.00  0.00    +0.000 C 
ATOM     11  C   UNL     1       1.023  16.132  19.301  0.00  0.00    +0.000 C 
ATOM     12  C   UNL     1      -0.490  16.352  19.100  0.00  0.00    +0.000 C 
ATOM     13  C   UNL     1       1.768  17.313  18.653  0.00  0.00    +0.000 C 
ATOM     14  C   UNL     1       1.480  14.814  18.638  0.00  0.00    +0.000 C 
ATOM     15  C   UNL     1       0.341  12.335  21.436  0.00  0.00    +0.000 C 
ENDROOT
BRANCH  15  16
ATOM     16  C   UNL     1      -1.153  12.423  21.768  0.00  0.00    +0.000 A 
ATOM     17  C   UNL     1      -1.598  12.410  23.093  0.00  0.00    +0.000 A 
ATOM     18  C   UNL     1      -2.964  12.514  23.391  0.00  0.00    +0.000 A 
ATOM     19  C   UNL     1      -3.934  12.668  22.388  0.00  0.00    +0.000 A 
ATOM     20  C   UNL     1      -3.475  12.679  21.054  0.00  0.00    +0.000 A 
ATOM     21  C   UNL     1      -2.110  12.539  20.755  0.00  0.00    +0.000 A 
ATOM     22  C   UNL     1      -4.412  12.937  19.905  0.00  0.00    +0.000 C 
ATOM     23  C   UNL     1      -5.844  12.611  20.279  0.00  0.00    +0.000 C 
ATOM     24  C   UNL     1      -6.175  13.265  21.610  0.00  0.00    +0.000 C 
ATOM     25  N   UNL     1      -5.303  12.755  22.671  0.00  0.00    +0.000 N 
ATOM     26  C   UNL     1      -5.741  13.010  24.039  0.00  0.00    +0.000 C 
ENDBRANCH  15  16
BRANCH   1  27
ATOM     27  O   UNL     1       0.390   9.824  22.665  0.00  0.00    +0.000 OA
ATOM     28  H   UNL     1      -0.457  10.278  22.806  0.00  0.00    +0.000 HD
ENDBRANCH   1  27
BRANCH   1  29
ATOM     29  O   UNL     1       0.659   8.666  20.631  0.00  0.00    +0.000 OA
BRANCH  29  31
ATOM     30  C   UNL     1       2.237   7.097  19.827  0.00  0.00    +0.000 C 
ATOM     31  C   UNL     1       1.642   7.731  21.072  0.00  0.00    +0.000 C 
ENDBRANCH  29  31
ENDBRANCH   1  29
TORSDOF 4
ENDMDL
MODEL 8
REMARK VINA RESULT:      -7.0      6.828     12.275
REMARK  Name = 
REMARK  9 active torsions:
REMARK  status: ('A' for Active; 'I' for Inactive)
REMARK    1  A    between atoms: C_1  and  C_2
REMARK    2  A    between atoms: C_2  and  O_3
REMARK    3  A    between atoms: O_3  and  C_4
REMARK    4  A    between atoms: C_4  and  O_5
REMARK    5  A    between atoms: C_7  and  C_8
REMARK    6  A    between atoms: C_15  and  C_16
REMARK    7  A    between atoms: C_15  and  C_17
REMARK    8  A    between atoms: C_19  and  C_20
REMARK    9  A    between atoms: N_29  and  C_30
REMARK                            x       y       z     vdW  Elec       q    Type
REMARK                         _______ _______ _______ _____ _____    ______ ____
ROOT
ATOM      1  C   UNL     1      -5.809  12.399  19.698  0.00  0.00    +0.000 C 
ATOM      2  C   UNL     1      -5.632  13.140  20.811  0.00  0.00    +0.000 C 
ATOM      3  C   UNL     1      -6.586  13.240  21.970  0.00  0.00    +0.000 C 
ATOM      4  C   UNL     1      -7.836  12.377  22.079  0.00  0.00    +0.000 C 
ATOM      5  N   UNL     1      -6.476  14.092  22.950  0.00  0.00    +0.000 NA
ATOM      6  C   UNL     1      -5.450  15.004  22.966  0.00  0.00    +0.000 C 
ATOM      7  C   UNL     1      -4.451  14.994  22.072  0.00  0.00    +0.000 C 
ATOM      8  C   UNL     1      -3.390  16.037  22.131  0.00  0.00    +0.000 C 
ATOM      9  O   UNL     1      -2.465  16.044  21.319  0.00  0.00    +0.000 OA
ATOM     10  C   UNL     1      -3.529  17.151  23.142  0.00  0.00    +0.000 C 
ATOM     11  C   UNL     1      -4.199  16.693  24.443  0.00  0.00    +0.000 C 
ATOM     12  C   UNL     1      -3.271  15.745  25.229  0.00  0.00    +0.000 C 
ATOM     13  C   UNL     1      -4.476  17.927  25.320  0.00  0.00    +0.000 C 
ATOM     14  C   UNL     1      -5.535  15.999  24.102  0.00  0.00    +0.000 C 
ATOM     15  C   UNL     1      -4.342  13.944  20.999  0.00  0.00    +0.000 C 
ENDROOT
BRANCH  15  16
ATOM     16  C   UNL     1      -3.166  13.005  21.295  0.00  0.00    +0.000 A 
ATOM     17  C   UNL     1      -2.994  12.445  22.564  0.00  0.00    +0.000 A 
ATOM     18  C   UNL     1      -1.929  11.570  22.821  0.00  0.00    +0.000 A 
ATOM     19  C   UNL     1      -1.019  11.192  21.822  0.00  0.00    +0.000 A 
ATOM     20  C   UNL     1      -1.202  11.762  20.544  0.00  0.00    +0.000 A 
ATOM     21  C   UNL     1      -2.247  12.668  20.297  0.00  0.00    +0.000 A 
ATOM     22  C   UNL     1      -0.348  11.355  19.374  0.00  0.00    +0.000 C 
ATOM     23  C   UNL     1       0.975  10.775  19.833  0.00  0.00    +0.000 C 
ATOM     24  C   UNL     1       0.717   9.731  20.906  0.00  0.00    +0.000 C 
ATOM     25  N   UNL     1       0.058  10.332  22.069  0.00  0.00    +0.000 N 
ATOM     26  C   UNL     1       0.086   9.546  23.299  0.00  0.00    +0.000 C 
ENDBRANCH  15  16
BRANCH   1  27
ATOM     27  O   UNL     1      -4.860  12.448  18.695  0.00  0.00    +0.000 OA
ATOM     28  H   UNL     1      -4.183  11.796  18.943  0.00  0.00    +0.000 HD
ENDBRANCH   1  27
BRANCH   1  29
ATOM     29  O   UNL     1      -6.835  11.505  19.567  0.00  0.00    +0.000 OA
BRANCH  29  31
ATOM     30  C   UNL     1      -7.158   9.165  19.695  0.00  0.00    +0.000 C 
ATOM     31  C   UNL     1      -6.535  10.288  18.885  0.00  0.00    +0.000 C 
ENDBRANCH  29  31
ENDBRANCH   1  29
TORSDOF 4
ENDMDL
MODEL 9
REMARK VINA RESULT:      -6.9      4.850      9.278
REMARK  Name = 
REMARK  9 active torsions:
REMARK  status: ('A' for Active; 'I' for Inactive)
REMARK    1  A    between atoms: C_1  and  C_2
REMARK    2  A    between atoms: C_2  and  O_3
REMARK    3  A    between atoms: O_3  and  C_4
REMARK    4  A    between atoms: C_4  and  O_5
REMARK    5  A    between atoms: C_7  and  C_8
REMARK    6  A    between atoms: C_15  and  C_16
REMARK    7  A    between atoms: C_15  and  C_17
REMARK    8  A    between atoms: C_19  and  C_20
REMARK    9  A    between atoms: N_29  and  C_30
REMARK                            x       y       z     vdW  Elec       q    Type
REMARK                         _______ _______ _______ _____ _____    ______ ____
ROOT
ATOM      1  C   UNL     1       0.439   9.815  21.219  0.00  0.00    +0.000 C 
ATOM      2  C   UNL     1       0.647  10.992  20.593  0.00  0.00    +0.000 C 
ATOM      3  C   UNL     1       1.149  11.172  19.187  0.00  0.00    +0.000 C 
ATOM      4  C   UNL     1       1.352  10.001  18.233  0.00  0.00    +0.000 C 
ATOM      5  N   UNL     1       1.506  12.312  18.666  0.00  0.00    +0.000 NA
ATOM      6  C   UNL     1       1.466  13.461  19.416  0.00  0.00    +0.000 C 
ATOM      7  C   UNL     1       0.949  13.508  20.653  0.00  0.00    +0.000 C 
ATOM      8  C   UNL     1       0.972  14.783  21.421  0.00  0.00    +0.000 C 
ATOM      9  O   UNL     1       0.502  14.845  22.556  0.00  0.00    +0.000 OA
ATOM     10  C   UNL     1       1.678  15.975  20.818  0.00  0.00    +0.000 C 
ATOM     11  C   UNL     1       1.564  16.025  19.290  0.00  0.00    +0.000 C 
ATOM     12  C   UNL     1       0.116  16.341  18.863  0.00  0.00    +0.000 C 
ATOM     13  C   UNL     1       2.474  17.147  18.760  0.00  0.00    +0.000 C 
ATOM     14  C   UNL     1       2.028  14.673  18.707  0.00  0.00    +0.000 C 
ATOM     15  C   UNL     1       0.320  12.307  21.307  0.00  0.00    +0.000 C 
ENDROOT
BRANCH  15  16
ATOM     16  C   UNL     1      -1.198  12.496  21.410  0.00  0.00    +0.000 A 
ATOM     17  C   UNL     1      -1.986  12.633  20.263  0.00  0.00    +0.000 A 
ATOM     18  C   UNL     1      -3.376  12.782  20.364  0.00  0.00    +0.000 A 
ATOM     19  C   UNL     1      -4.038  12.766  21.602  0.00  0.00    +0.000 A 
ATOM     20  C   UNL     1      -3.234  12.628  22.753  0.00  0.00    +0.000 A 
ATOM     21  C   UNL     1      -1.838  12.515  22.653  0.00  0.00    +0.000 A 
ATOM     22  C   UNL     1      -3.843  12.499  24.123  0.00  0.00    +0.000 C 
ATOM     23  C   UNL     1      -5.240  13.085  24.163  0.00  0.00    +0.000 C 
ATOM     24  C   UNL     1      -6.041  12.546  22.989  0.00  0.00    +0.000 C 
ATOM     25  N   UNL     1      -5.424  12.931  21.717  0.00  0.00    +0.000 N 
ATOM     26  C   UNL     1      -6.266  12.806  20.532  0.00  0.00    +0.000 C 
ENDBRANCH  15  16
BRANCH   1  27
ATOM     27  O   UNL     1       0.018   9.813  22.535  0.00  0.00    +0.000 OA
ATOM     28  H   UNL     1       0.730  10.243  23.037  0.00  0.00    +0.000 HD
ENDBRANCH   1  27
BRANCH   1  29
ATOM     29  O   UNL     1       0.513   8.615  20.567  0.00  0.00    +0.000 OA
BRANCH  29  31
ATOM     30  C   UNL     1       2.134   6.999  19.971  0.00  0.00    +0.000 C 
ATOM     31  C   UNL     1       1.389   7.640  21.129  0.00  0.00    +0.000 C 
ENDBRANCH  29  31
ENDBRANCH   1  29
TORSDOF 4
ENDMDL
