MODEL 1
REMARK VINA RESULT:      -7.7      0.000      0.000
REMARK  Name = 
REMARK  13 active torsions:
REMARK  status: ('A' for Active; 'I' for Inactive)
REMARK    1  A    between atoms: C_1  and  O_2
REMARK    2  A    between atoms: O_2  and  C_3
REMARK    3  A    between atoms: C_3  and  C_5
REMARK    4  A    between atoms: C_5  and  C_6
REMARK    5  A    between atoms: C_6  and  C_7
REMARK    6  A    between atoms: C_7  and  N_8
REMARK    7  A    between atoms: C_7  and  C_23
REMARK    8  A    between atoms: C_9  and  C_11
REMARK    9  A    between atoms: C_11  and  N_12
REMARK   10  A    between atoms: C_11  and  C_13
REMARK   11  A    between atoms: C_13  and  C_14
REMARK   12  A    between atoms: C_23  and  O_25
REMARK   13  A    between atoms: O_25  and  C_26
REMARK                            x       y       z     vdW  Elec       q    Type
REMARK                         _______ _______ _______ _____ _____    ______ ____
ROOT
ATOM      1  N   UNL     1       5.108   3.960  17.215  0.00  0.00    +0.000 N 
ATOM      2  C   UNL     1       4.674   3.144  18.244  0.00  0.00    +0.000 C 
ATOM      3  O   UNL     1       5.070   3.276  19.400  0.00  0.00    +0.000 OA
ATOM      4  H   UNL     1       4.987   3.635  16.264  0.00  0.00    +0.000 HD
ENDROOT
BRANCH   1   5
ATOM      5  C   UNL     1       6.049   5.050  17.477  0.00  0.00    +0.000 C 
BRANCH   5   6
ATOM      6  C   UNL     1       7.496   4.584  17.746  0.00  0.00    +0.000 C 
ATOM      7  O   UNL     1       8.206   4.063  16.892  0.00  0.00    +0.000 OA
BRANCH   6   8
ATOM      8  O   UNL     1       7.875   4.777  19.042  0.00  0.00    +0.000 OA
ATOM      9  C   UNL     1       8.046   6.153  19.394  0.00  0.00    +0.000 C 
ENDBRANCH   6   8
ENDBRANCH   5   6
BRANCH   5  10
ATOM     10  C   UNL     1       6.058   6.048  16.311  0.00  0.00    +0.000 C 
BRANCH  10  11
ATOM     11  C   UNL     1       5.466   5.466  15.025  0.00  0.00    +0.000 C 
BRANCH  11  12
ATOM     12  C   UNL     1       6.513   4.762  14.191  0.00  0.00    +0.000 C 
ATOM     13  O   UNL     1       6.366   3.688  13.630  0.00  0.00    +0.000 OA
BRANCH  12  15
ATOM     14  C   UNL     1       8.247   5.597  12.850  0.00  0.00    +0.000 C 
ATOM     15  O   UNL     1       7.639   5.528  14.141  0.00  0.00    +0.000 OA
ENDBRANCH  12  15
ENDBRANCH  11  12
ENDBRANCH  10  11
ENDBRANCH   5  10
ENDBRANCH   1   5
BRANCH   2  16
ATOM     16  C   UNL     1       3.751   1.994  17.782  0.00  0.00    +0.000 C 
BRANCH  16  17
ATOM     17  N   UNL     1       3.977   0.839  18.687  0.00  0.00    +0.000 NA
ATOM     18  H   UNL     1       3.175   0.777  19.320  0.00  0.00    +0.000 HD
ATOM     19  H   UNL     1       4.772   1.042  19.294  0.00  0.00    +0.000 HD
ENDBRANCH  16  17
BRANCH  16  20
ATOM     20  C   UNL     1       2.273   2.426  17.798  0.00  0.00    +0.000 C 
BRANCH  20  21
ATOM     21  C   UNL     1       1.942   3.316  18.962  0.00  0.00    +0.000 A 
ATOM     22  C   UNL     1       1.490   2.896  20.198  0.00  0.00    +0.000 A 
ATOM     23  N   UNL     1       1.349   3.990  21.005  0.00  0.00    +0.000 N 
ATOM     24  C   UNL     1       1.671   5.132  20.314  0.00  0.00    +0.000 A 
ATOM     25  C   UNL     1       1.665   6.468  20.731  0.00  0.00    +0.000 A 
ATOM     26  C   UNL     1       2.029   7.441  19.797  0.00  0.00    +0.000 A 
ATOM     27  C   UNL     1       2.384   7.087  18.497  0.00  0.00    +0.000 A 
ATOM     28  C   UNL     1       2.395   5.745  18.098  0.00  0.00    +0.000 A 
ATOM     29  C   UNL     1       2.033   4.744  19.022  0.00  0.00    +0.000 A 
ATOM     30  H   UNL     1       1.044   3.967  21.969  0.00  0.00    +0.000 HD
ENDBRANCH  20  21
ENDBRANCH  16  20
ENDBRANCH   2  16
TORSDOF 11
ENDMDL
MODEL 2
REMARK VINA RESULT:      -7.3      2.596      6.929
REMARK  Name = 
REMARK  13 active torsions:
REMARK  status: ('A' for Active; 'I' for Inactive)
REMARK    1  A    between atoms: C_1  and  O_2
REMARK    2  A    between atoms: O_2  and  C_3
REMARK    3  A    between atoms: C_3  and  C_5
REMARK    4  A    between atoms: C_5  and  C_6
REMARK    5  A    between atoms: C_6  and  C_7
REMARK    6  A    between atoms: C_7  and  N_8
REMARK    7  A    between atoms: C_7  and  C_23
REMARK    8  A    between atoms: C_9  and  C_11
REMARK    9  A    between atoms: C_11  and  N_12
REMARK   10  A    between atoms: C_11  and  C_13
REMARK   11  A    between atoms: C_13  and  C_14
REMARK   12  A    between atoms: C_23  and  O_25
REMARK   13  A    between atoms: O_25  and  C_26
REMARK                            x       y       z     vdW  Elec       q    Type
REMARK                         _______ _______ _______ _____ _____    ______ ____
ROOT
ATOM      1  N   UNL     1       3.156   5.094  18.926  0.00  0.00    +0.000 N 
ATOM      2  C   UNL     1       4.508   4.810  18.990  0.00  0.00    +0.000 C 
ATOM      3  O   UNL     1       5.244   5.305  19.840  0.00  0.00    +0.000 OA
ATOM      4  H   UNL     1       2.668   4.903  18.060  0.00  0.00    +0.000 HD
ENDROOT
BRANCH   1   5
ATOM      5  C   UNL     1       2.536   5.988  19.906  0.00  0.00    +0.000 C 
BRANCH   5   6
ATOM      6  C   UNL     1       2.272   7.415  19.380  0.00  0.00    +0.000 C 
ATOM      7  O   UNL     1       2.708   7.831  18.311  0.00  0.00    +0.000 OA
BRANCH   6   8
ATOM      8  O   UNL     1       1.542   8.166  20.253  0.00  0.00    +0.000 OA
ATOM      9  C   UNL     1       1.085   9.406  19.704  0.00  0.00    +0.000 C 
ENDBRANCH   6   8
ENDBRANCH   5   6
BRANCH   5  10
ATOM     10  C   UNL     1       1.216   5.396  20.418  0.00  0.00    +0.000 C 
BRANCH  10  11
ATOM     11  C   UNL     1       1.390   4.012  21.048  0.00  0.00    +0.000 C 
BRANCH  11  12
ATOM     12  C   UNL     1       1.310   2.909  20.017  0.00  0.00    +0.000 C 
ATOM     13  O   UNL     1       0.372   2.711  19.262  0.00  0.00    +0.000 OA
BRANCH  12  15
ATOM     14  C   UNL     1       3.199   2.291  21.264  0.00  0.00    +0.000 C 
ATOM     15  O   UNL     1       2.464   2.184  20.043  0.00  0.00    +0.000 OA
ENDBRANCH  12  15
ENDBRANCH  11  12
ENDBRANCH  10  11
ENDBRANCH   5  10
ENDBRANCH   1   5
BRANCH   2  16
ATOM     16  C   UNL     1       5.014   3.919  17.833  0.00  0.00    +0.000 C 
BRANCH  16  17
ATOM     17  N   UNL     1       4.477   2.552  18.044  0.00  0.00    +0.000 NA
ATOM     18  H   UNL     1       3.591   2.639  18.549  0.00  0.00    +0.000 HD
ATOM     19  H   UNL     1       5.092   2.047  18.684  0.00  0.00    +0.000 HD
ENDBRANCH  16  17
BRANCH  16  20
ATOM     20  C   UNL     1       4.576   4.479  16.467  0.00  0.00    +0.000 C 
BRANCH  20  21
ATOM     21  C   UNL     1       5.739   4.790  15.568  0.00  0.00    +0.000 A 
ATOM     22  C   UNL     1       6.830   5.570  15.898  0.00  0.00    +0.000 A 
ATOM     23  N   UNL     1       7.696   5.578  14.840  0.00  0.00    +0.000 N 
ATOM     24  C   UNL     1       7.181   4.839  13.803  0.00  0.00    +0.000 A 
ATOM     25  C   UNL     1       7.712   4.579  12.534  0.00  0.00    +0.000 A 
ATOM     26  C   UNL     1       6.952   3.798  11.661  0.00  0.00    +0.000 A 
ATOM     27  C   UNL     1       5.710   3.298  12.045  0.00  0.00    +0.000 A 
ATOM     28  C   UNL     1       5.197   3.558  13.322  0.00  0.00    +0.000 A 
ATOM     29  C   UNL     1       5.946   4.343  14.223  0.00  0.00    +0.000 A 
ATOM     30  H   UNL     1       8.583   6.062  14.818  0.00  0.00    +0.000 HD
ENDBRANCH  20  21
ENDBRANCH  16  20
ENDBRANCH   2  16
TORSDOF 11
ENDMDL
MODEL 3
REMARK VINA RESULT:      -7.0      2.251      4.404
REMARK  Name = 
REMARK  13 active torsions:
REMARK  status: ('A' for Active; 'I' for Inactive)
REMARK    1  A    between atoms: C_1  and  O_2
REMARK    2  A    between atoms: O_2  and  C_3
REMARK    3  A    between atoms: C_3  and  C_5
REMARK    4  A    between atoms: C_5  and  C_6
REMARK    5  A    between atoms: C_6  and  C_7
REMARK    6  A    between atoms: C_7  and  N_8
REMARK    7  A    between atoms: C_7  and  C_23
REMARK    8  A    between atoms: C_9  and  C_11
REMARK    9  A    between atoms: C_11  and  N_12
REMARK   10  A    between atoms: C_11  and  C_13
REMARK   11  A    between atoms: C_13  and  C_14
REMARK   12  A    between atoms: C_23  and  O_25
REMARK   13  A    between atoms: O_25  and  C_26
REMARK                            x       y       z     vdW  Elec       q    Type
REMARK                         _______ _______ _______ _____ _____    ______ ____
ROOT
ATOM      1  N   UNL     1       4.348   4.990  17.178  0.00  0.00    +0.000 N 
ATOM      2  C   UNL     1       3.500   4.299  18.024  0.00  0.00    +0.000 C 
ATOM      3  O   UNL     1       3.637   3.101  18.259  0.00  0.00    +0.000 OA
ATOM      4  H   UNL     1       4.030   5.872  16.797  0.00  0.00    +0.000 HD
ENDROOT
BRANCH   1   5
ATOM      5  C   UNL     1       5.481   4.312  16.544  0.00  0.00    +0.000 C 
BRANCH   5   6
ATOM      6  C   UNL     1       5.681   4.674  15.058  0.00  0.00    +0.000 C 
ATOM      7  O   UNL     1       5.701   5.828  14.641  0.00  0.00    +0.000 OA
BRANCH   6   8
ATOM      8  O   UNL     1       5.789   3.572  14.261  0.00  0.00    +0.000 OA
ATOM      9  C   UNL     1       6.417   3.830  13.002  0.00  0.00    +0.000 C 
ENDBRANCH   6   8
ENDBRANCH   5   6
BRANCH   5  10
ATOM     10  C   UNL     1       6.781   4.605  17.306  0.00  0.00    +0.000 C 
BRANCH  10  11
ATOM     11  C   UNL     1       6.811   6.009  17.913  0.00  0.00    +0.000 C 
BRANCH  11  12
ATOM     12  C   UNL     1       7.904   6.152  18.948  0.00  0.00    +0.000 C 
ATOM     13  O   UNL     1       8.232   5.296  19.754  0.00  0.00    +0.000 OA
BRANCH  12  15
ATOM     14  C   UNL     1       7.970   8.168  17.749  0.00  0.00    +0.000 C 
ATOM     15  O   UNL     1       8.484   7.379  18.824  0.00  0.00    +0.000 OA
ENDBRANCH  12  15
ENDBRANCH  11  12
ENDBRANCH  10  11
ENDBRANCH   5  10
ENDBRANCH   1   5
BRANCH   2  16
ATOM     16  C   UNL     1       2.311   5.141  18.540  0.00  0.00    +0.000 C 
BRANCH  16  17
ATOM     17  N   UNL     1       1.369   4.223  19.228  0.00  0.00    +0.000 NA
ATOM     18  H   UNL     1       0.936   4.741  19.998  0.00  0.00    +0.000 HD
ATOM     19  H   UNL     1       1.900   3.479  19.683  0.00  0.00    +0.000 HD
ENDBRANCH  16  17
BRANCH  16  20
ATOM     20  C   UNL     1       2.789   6.254  19.491  0.00  0.00    +0.000 C 
BRANCH  20  21
ATOM     21  C   UNL     1       2.147   7.581  19.199  0.00  0.00    +0.000 A 
ATOM     22  C   UNL     1       2.146   8.227  17.978  0.00  0.00    +0.000 A 
ATOM     23  N   UNL     1       1.421   9.380  18.096  0.00  0.00    +0.000 N 
ATOM     24  C   UNL     1       0.969   9.524  19.385  0.00  0.00    +0.000 A 
ATOM     25  C   UNL     1       0.203  10.544  19.961  0.00  0.00    +0.000 A 
ATOM     26  C   UNL     1      -0.101  10.439  21.319  0.00  0.00    +0.000 A 
ATOM     27  C   UNL     1       0.344   9.354  22.070  0.00  0.00    +0.000 A 
ATOM     28  C   UNL     1       1.101   8.335  21.477  0.00  0.00    +0.000 A 
ATOM     29  C   UNL     1       1.421   8.417  20.107  0.00  0.00    +0.000 A 
ATOM     30  H   UNL     1       1.249  10.038  17.349  0.00  0.00    +0.000 HD
ENDBRANCH  20  21
ENDBRANCH  16  20
ENDBRANCH   2  16
TORSDOF 11
ENDMDL
MODEL 4
REMARK VINA RESULT:      -6.9      2.515      6.894
REMARK  Name = 
REMARK  13 active torsions:
REMARK  status: ('A' for Active; 'I' for Inactive)
REMARK    1  A    between atoms: C_1  and  O_2
REMARK    2  A    between atoms: O_2  and  C_3
REMARK    3  A    between atoms: C_3  and  C_5
REMARK    4  A    between atoms: C_5  and  C_6
REMARK    5  A    between atoms: C_6  and  C_7
REMARK    6  A    between atoms: C_7  and  N_8
REMARK    7  A    between atoms: C_7  and  C_23
REMARK    8  A    between atoms: C_9  and  C_11
REMARK    9  A    between atoms: C_11  and  N_12
REMARK   10  A    between atoms: C_11  and  C_13
REMARK   11  A    between atoms: C_13  and  C_14
REMARK   12  A    between atoms: C_23  and  O_25
REMARK   13  A    between atoms: O_25  and  C_26
REMARK                            x       y       z     vdW  Elec       q    Type
REMARK                         _______ _______ _______ _____ _____    ______ ____
ROOT
ATOM      1  N   UNL     1       3.166   4.816  18.919  0.00  0.00    +0.000 N 
ATOM      2  C   UNL     1       4.486   4.425  18.786  0.00  0.00    +0.000 C 
ATOM      3  O   UNL     1       5.375   4.850  19.520  0.00  0.00    +0.000 OA
ATOM      4  H   UNL     1       2.544   4.675  18.134  0.00  0.00    +0.000 HD
ENDROOT
BRANCH   1   5
ATOM      5  C   UNL     1       2.769   5.745  19.980  0.00  0.00    +0.000 C 
BRANCH   5   6
ATOM      6  C   UNL     1       2.254   7.106  19.466  0.00  0.00    +0.000 C 
ATOM      7  O   UNL     1       1.738   7.949  20.193  0.00  0.00    +0.000 OA
BRANCH   6   8
ATOM      8  O   UNL     1       2.400   7.245  18.117  0.00  0.00    +0.000 OA
ATOM      9  C   UNL     1       2.319   8.599  17.665  0.00  0.00    +0.000 C 
ENDBRANCH   6   8
ENDBRANCH   5   6
BRANCH   5  10
ATOM     10  C   UNL     1       1.694   5.114  20.876  0.00  0.00    +0.000 C 
BRANCH  10  11
ATOM     11  C   UNL     1       2.255   4.037  21.808  0.00  0.00    +0.000 C 
BRANCH  11  12
ATOM     12  C   UNL     1       2.372   2.698  21.117  0.00  0.00    +0.000 C 
ATOM     13  O   UNL     1       1.754   2.359  20.121  0.00  0.00    +0.000 OA
BRANCH  12  15
ATOM     14  C   UNL     1       4.518   1.752  21.045  0.00  0.00    +0.000 C 
ATOM     15  O   UNL     1       3.297   1.936  21.765  0.00  0.00    +0.000 OA
ENDBRANCH  12  15
ENDBRANCH  11  12
ENDBRANCH  10  11
ENDBRANCH   5  10
ENDBRANCH   1   5
BRANCH   2  16
ATOM     16  C   UNL     1       4.746   3.511  17.568  0.00  0.00    +0.000 C 
BRANCH  16  17
ATOM     17  N   UNL     1       3.933   2.281  17.740  0.00  0.00    +0.000 NA
ATOM     18  H   UNL     1       4.448   1.652  18.362  0.00  0.00    +0.000 HD
ATOM     19  H   UNL     1       3.887   1.784  16.850  0.00  0.00    +0.000 HD
ENDBRANCH  16  17
BRANCH  16  20
ATOM     20  C   UNL     1       4.391   4.225  16.250  0.00  0.00    +0.000 C 
BRANCH  20  21
ATOM     21  C   UNL     1       5.606   4.665  15.484  0.00  0.00    +0.000 A 
ATOM     22  C   UNL     1       6.613   5.480  15.963  0.00  0.00    +0.000 A 
ATOM     23  N   UNL     1       7.565   5.613  14.992  0.00  0.00    +0.000 N 
ATOM     24  C   UNL     1       7.191   4.923  13.865  0.00  0.00    +0.000 A 
ATOM     25  C   UNL     1       7.845   4.785  12.635  0.00  0.00    +0.000 A 
ATOM     26  C   UNL     1       7.215   4.027  11.646  0.00  0.00    +0.000 A 
ATOM     27  C   UNL     1       5.978   3.431  11.881  0.00  0.00    +0.000 A 
ATOM     28  C   UNL     1       5.341   3.569  13.121  0.00  0.00    +0.000 A 
ATOM     29  C   UNL     1       5.957   4.328  14.136  0.00  0.00    +0.000 A 
ATOM     30  H   UNL     1       8.419   6.147  15.083  0.00  0.00    +0.000 HD
ENDBRANCH  20  21
ENDBRANCH  16  20
ENDBRANCH   2  16
TORSDOF 11
ENDMDL
MODEL 5
REMARK VINA RESULT:      -6.8      1.533      2.872
REMARK  Name = 
REMARK  13 active torsions:
REMARK  status: ('A' for Active; 'I' for Inactive)
REMARK    1  A    between atoms: C_1  and  O_2
REMARK    2  A    between atoms: O_2  and  C_3
REMARK    3  A    between atoms: C_3  and  C_5
REMARK    4  A    between atoms: C_5  and  C_6
REMARK    5  A    between atoms: C_6  and  C_7
REMARK    6  A    between atoms: C_7  and  N_8
REMARK    7  A    between atoms: C_7  and  C_23
REMARK    8  A    between atoms: C_9  and  C_11
REMARK    9  A    between atoms: C_11  and  N_12
REMARK   10  A    between atoms: C_11  and  C_13
REMARK   11  A    between atoms: C_13  and  C_14
REMARK   12  A    between atoms: C_23  and  O_25
REMARK   13  A    between atoms: O_25  and  C_26
REMARK                            x       y       z     vdW  Elec       q    Type
REMARK                         _______ _______ _______ _____ _____    ______ ____
ROOT
ATOM      1  N   UNL     1       4.809   3.484  17.347  0.00  0.00    +0.000 N 
ATOM      2  C   UNL     1       4.409   2.860  18.514  0.00  0.00    +0.000 C 
ATOM      3  O   UNL     1       4.984   3.039  19.586  0.00  0.00    +0.000 OA
ATOM      4  H   UNL     1       4.503   3.091  16.466  0.00  0.00    +0.000 HD
ENDROOT
BRANCH   1   5
ATOM      5  C   UNL     1       5.935   4.420  17.352  0.00  0.00    +0.000 C 
BRANCH   5   6
ATOM      6  C   UNL     1       6.652   4.551  15.992  0.00  0.00    +0.000 C 
ATOM      7  O   UNL     1       7.871   4.633  15.877  0.00  0.00    +0.000 OA
BRANCH   6   8
ATOM      8  O   UNL     1       5.780   4.609  14.944  0.00  0.00    +0.000 OA
ATOM      9  C   UNL     1       6.283   4.017  13.743  0.00  0.00    +0.000 C 
ENDBRANCH   6   8
ENDBRANCH   5   6
BRANCH   5  10
ATOM     10  C   UNL     1       5.477   5.813  17.808  0.00  0.00    +0.000 C 
BRANCH  10  11
ATOM     11  C   UNL     1       6.188   6.946  17.064  0.00  0.00    +0.000 C 
BRANCH  11  12
ATOM     12  C   UNL     1       7.428   7.410  17.795  0.00  0.00    +0.000 C 
ATOM     13  O   UNL     1       8.055   6.755  18.612  0.00  0.00    +0.000 OA
BRANCH  12  15
ATOM     14  C   UNL     1       8.518   9.420  18.321  0.00  0.00    +0.000 C 
ATOM     15  O   UNL     1       7.752   8.667  17.379  0.00  0.00    +0.000 OA
ENDBRANCH  12  15
ENDBRANCH  11  12
ENDBRANCH  10  11
ENDBRANCH   5  10
ENDBRANCH   1   5
BRANCH   2  16
ATOM     16  C   UNL     1       3.263   1.842  18.318  0.00  0.00    +0.000 C 
BRANCH  16  17
ATOM     17  N   UNL     1       3.768   0.507  18.724  0.00  0.00    +0.000 NA
ATOM     18  H   UNL     1       4.577   0.651  19.334  0.00  0.00    +0.000 HD
ATOM     19  H   UNL     1       4.143   0.028  17.904  0.00  0.00    +0.000 HD
ENDBRANCH  16  17
BRANCH  16  20
ATOM     20  C   UNL     1       2.022   2.235  19.140  0.00  0.00    +0.000 C 
BRANCH  20  21
ATOM     21  C   UNL     1       2.158   3.584  19.787  0.00  0.00    +0.000 A 
ATOM     22  C   UNL     1       2.341   3.819  21.136  0.00  0.00    +0.000 A 
ATOM     23  N   UNL     1       2.470   5.166  21.329  0.00  0.00    +0.000 N 
ATOM     24  C   UNL     1       2.345   5.830  20.134  0.00  0.00    +0.000 A 
ATOM     25  C   UNL     1       2.400   7.201  19.856  0.00  0.00    +0.000 A 
ATOM     26  C   UNL     1       2.221   7.601  18.530  0.00  0.00    +0.000 A 
ATOM     27  C   UNL     1       1.996   6.665  17.524  0.00  0.00    +0.000 A 
ATOM     28  C   UNL     1       1.955   5.296  17.816  0.00  0.00    +0.000 A 
ATOM     29  C   UNL     1       2.134   4.865  19.146  0.00  0.00    +0.000 A 
ATOM     30  H   UNL     1       2.626   5.613  22.223  0.00  0.00    +0.000 HD
ENDBRANCH  20  21
ENDBRANCH  16  20
ENDBRANCH   2  16
TORSDOF 11
ENDMDL
MODEL 6
REMARK VINA RESULT:      -6.8      1.417      1.721
REMARK  Name = 
REMARK  13 active torsions:
REMARK  status: ('A' for Active; 'I' for Inactive)
REMARK    1  A    between atoms: C_1  and  O_2
REMARK    2  A    between atoms: O_2  and  C_3
REMARK    3  A    between atoms: C_3  and  C_5
REMARK    4  A    between atoms: C_5  and  C_6
REMARK    5  A    between atoms: C_6  and  C_7
REMARK    6  A    between atoms: C_7  and  N_8
REMARK    7  A    between atoms: C_7  and  C_23
REMARK    8  A    between atoms: C_9  and  C_11
REMARK    9  A    between atoms: C_11  and  N_12
REMARK   10  A    between atoms: C_11  and  C_13
REMARK   11  A    between atoms: C_13  and  C_14
REMARK   12  A    between atoms: C_23  and  O_25
REMARK   13  A    between atoms: O_25  and  C_26
REMARK                            x       y       z     vdW  Elec       q    Type
REMARK                         _______ _______ _______ _____ _____    ______ ____
ROOT
ATOM      1  N   UNL     1       5.343   3.572  18.093  0.00  0.00    +0.000 N 
ATOM      2  C   UNL     1       4.237   3.036  17.459  0.00  0.00    +0.000 C 
ATOM      3  O   UNL     1       3.787   3.503  16.415  0.00  0.00    +0.000 OA
ATOM      4  H   UNL     1       5.491   3.346  19.069  0.00  0.00    +0.000 HD
ENDROOT
BRANCH   1   5
ATOM      5  C   UNL     1       6.049   4.717  17.517  0.00  0.00    +0.000 C 
BRANCH   5   6
ATOM      6  C   UNL     1       6.567   5.729  18.560  0.00  0.00    +0.000 C 
ATOM      7  O   UNL     1       6.857   5.422  19.712  0.00  0.00    +0.000 OA
BRANCH   6   8
ATOM      8  O   UNL     1       6.624   7.001  18.071  0.00  0.00    +0.000 OA
ATOM      9  C   UNL     1       7.946   7.548  18.038  0.00  0.00    +0.000 C 
ENDBRANCH   6   8
ENDBRANCH   5   6
BRANCH   5  10
ATOM     10  C   UNL     1       7.229   4.247  16.654  0.00  0.00    +0.000 C 
BRANCH  10  11
ATOM     11  C   UNL     1       7.269   4.925  15.282  0.00  0.00    +0.000 C 
BRANCH  11  12
ATOM     12  C   UNL     1       5.892   5.345  14.820  0.00  0.00    +0.000 C 
ATOM     13  O   UNL     1       5.340   6.395  15.104  0.00  0.00    +0.000 OA
BRANCH  12  15
ATOM     14  C   UNL     1       6.326   3.762  13.142  0.00  0.00    +0.000 C 
ATOM     15  O   UNL     1       5.374   4.377  14.013  0.00  0.00    +0.000 OA
ENDBRANCH  12  15
ENDBRANCH  11  12
ENDBRANCH  10  11
ENDBRANCH   5  10
ENDBRANCH   1   5
BRANCH   2  16
ATOM     16  C   UNL     1       3.563   1.888  18.243  0.00  0.00    +0.000 C 
BRANCH  16  17
ATOM     17  N   UNL     1       4.360   1.646  19.471  0.00  0.00    +0.000 NA
ATOM     18  H   UNL     1       5.171   2.271  19.445  0.00  0.00    +0.000 HD
ATOM     19  H   UNL     1       4.757   0.706  19.432  0.00  0.00    +0.000 HD
ENDBRANCH  16  17
BRANCH  16  20
ATOM     20  C   UNL     1       2.104   2.235  18.593  0.00  0.00    +0.000 C 
BRANCH  20  21
ATOM     21  C   UNL     1       1.996   3.355  19.587  0.00  0.00    +0.000 A 
ATOM     22  C   UNL     1       1.840   3.213  20.952  0.00  0.00    +0.000 A 
ATOM     23  N   UNL     1       1.833   4.456  21.521  0.00  0.00    +0.000 N 
ATOM     24  C   UNL     1       1.951   5.421  20.552  0.00  0.00    +0.000 A 
ATOM     25  C   UNL     1       1.982   6.815  20.669  0.00  0.00    +0.000 A 
ATOM     26  C   UNL     1       2.094   7.563  19.495  0.00  0.00    +0.000 A 
ATOM     27  C   UNL     1       2.174   6.937  18.253  0.00  0.00    +0.000 A 
ATOM     28  C   UNL     1       2.153   5.540  18.153  0.00  0.00    +0.000 A 
ATOM     29  C   UNL     1       2.041   4.763  19.323  0.00  0.00    +0.000 A 
ATOM     30  H   UNL     1       1.745   4.642  22.511  0.00  0.00    +0.000 HD
ENDBRANCH  20  21
ENDBRANCH  16  20
ENDBRANCH   2  16
TORSDOF 11
ENDMDL
MODEL 7
REMARK VINA RESULT:      -6.8      4.348      6.608
REMARK  Name = 
REMARK  13 active torsions:
REMARK  status: ('A' for Active; 'I' for Inactive)
REMARK    1  A    between atoms: C_1  and  O_2
REMARK    2  A    between atoms: O_2  and  C_3
REMARK    3  A    between atoms: C_3  and  C_5
REMARK    4  A    between atoms: C_5  and  C_6
REMARK    5  A    between atoms: C_6  and  C_7
REMARK    6  A    between atoms: C_7  and  N_8
REMARK    7  A    between atoms: C_7  and  C_23
REMARK    8  A    between atoms: C_9  and  C_11
REMARK    9  A    between atoms: C_11  and  N_12
REMARK   10  A    between atoms: C_11  and  C_13
REMARK   11  A    between atoms: C_13  and  C_14
REMARK   12  A    between atoms: C_23  and  O_25
REMARK   13  A    between atoms: O_25  and  C_26
REMARK                            x       y       z     vdW  Elec       q    Type
REMARK                         _______ _______ _______ _____ _____    ______ ____
ROOT
ATOM      1  N   UNL     1       2.383   7.351  18.078  0.00  0.00    +0.000 N 
ATOM      2  C   UNL     1       2.007   8.220  19.086  0.00  0.00    +0.000 C 
ATOM      3  O   UNL     1       1.997   7.891  20.270  0.00  0.00    +0.000 OA
ATOM      4  H   UNL     1       2.100   7.566  17.131  0.00  0.00    +0.000 HD
ENDROOT
BRANCH   1   5
ATOM      5  C   UNL     1       2.822   5.991  18.395  0.00  0.00    +0.000 C 
BRANCH   5   6
ATOM      6  C   UNL     1       1.697   4.936  18.341  0.00  0.00    +0.000 C 
ATOM      7  O   UNL     1       1.236   4.494  17.293  0.00  0.00    +0.000 OA
BRANCH   6   8
ATOM      8  O   UNL     1       1.248   4.587  19.581  0.00  0.00    +0.000 OA
ATOM      9  C   UNL     1       2.287   4.466  20.557  0.00  0.00    +0.000 C 
ENDBRANCH   6   8
ENDBRANCH   5   6
BRANCH   5  10
ATOM     10  C   UNL     1       3.955   5.556  17.455  0.00  0.00    +0.000 C 
BRANCH  10  11
ATOM     11  C   UNL     1       5.344   5.889  18.004  0.00  0.00    +0.000 C 
BRANCH  11  12
ATOM     12  C   UNL     1       5.799   4.883  19.037  0.00  0.00    +0.000 C 
ATOM     13  O   UNL     1       5.401   3.732  19.127  0.00  0.00    +0.000 OA
BRANCH  12  15
ATOM     14  C   UNL     1       7.975   5.750  19.175  0.00  0.00    +0.000 C 
ATOM     15  O   UNL     1       6.743   5.454  19.836  0.00  0.00    +0.000 OA
ENDBRANCH  12  15
ENDBRANCH  11  12
ENDBRANCH  10  11
ENDBRANCH   5  10
ENDBRANCH   1   5
BRANCH   2  16
ATOM     16  C   UNL     1       1.492   9.584  18.574  0.00  0.00    +0.000 C 
BRANCH  16  17
ATOM     17  N   UNL     1       2.235   9.914  17.332  0.00  0.00    +0.000 NA
ATOM     18  H   UNL     1       2.110   9.136  16.678  0.00  0.00    +0.000 HD
ATOM     19  H   UNL     1       3.236   9.923  17.535  0.00  0.00    +0.000 HD
ENDBRANCH  16  17
BRANCH  16  20
ATOM     20  C   UNL     1      -0.026   9.545  18.314  0.00  0.00    +0.000 C 
BRANCH  20  21
ATOM     21  C   UNL     1      -0.757  10.678  18.974  0.00  0.00    +0.000 A 
ATOM     22  C   UNL     1      -1.443  11.686  18.324  0.00  0.00    +0.000 A 
ATOM     23  N   UNL     1      -2.014  12.499  19.262  0.00  0.00    +0.000 N 
ATOM     24  C   UNL     1      -1.692  12.064  20.524  0.00  0.00    +0.000 A 
ATOM     25  C   UNL     1      -2.046  12.587  21.774  0.00  0.00    +0.000 A 
ATOM     26  C   UNL     1      -1.555  11.941  22.910  0.00  0.00    +0.000 A 
ATOM     27  C   UNL     1      -0.743  10.815  22.798  0.00  0.00    +0.000 A 
ATOM     28  C   UNL     1      -0.407  10.296  21.540  0.00  0.00    +0.000 A 
ATOM     29  C   UNL     1      -0.891  10.930  20.378  0.00  0.00    +0.000 A 
ATOM     30  H   UNL     1      -2.585  13.309  19.060  0.00  0.00    +0.000 HD
ENDBRANCH  20  21
ENDBRANCH  16  20
ENDBRANCH   2  16
TORSDOF 11
ENDMDL
MODEL 8
REMARK VINA RESULT:      -6.7      3.746      5.812
REMARK  Name = 
REMARK  13 active torsions:
REMARK  status: ('A' for Active; 'I' for Inactive)
REMARK    1  A    between atoms: C_1  and  O_2
REMARK    2  A    between atoms: O_2  and  C_3
REMARK    3  A    between atoms: C_3  and  C_5
REMARK    4  A    between atoms: C_5  and  C_6
REMARK    5  A    between atoms: C_6  and  C_7
REMARK    6  A    between atoms: C_7  and  N_8
REMARK    7  A    between atoms: C_7  and  C_23
REMARK    8  A    between atoms: C_9  and  C_11
REMARK    9  A    between atoms: C_11  and  N_12
REMARK   10  A    between atoms: C_11  and  C_13
REMARK   11  A    between atoms: C_13  and  C_14
REMARK   12  A    between atoms: C_23  and  O_25
REMARK   13  A    between atoms: O_25  and  C_26
REMARK                            x       y       z     vdW  Elec       q    Type
REMARK                         _______ _______ _______ _____ _____    ______ ____
ROOT
ATOM      1  N   UNL     1       2.886   6.543  18.009  0.00  0.00    +0.000 N 
ATOM      2  C   UNL     1       2.408   7.431  18.956  0.00  0.00    +0.000 C 
ATOM      3  O   UNL     1       2.148   7.088  20.107  0.00  0.00    +0.000 OA
ATOM      4  H   UNL     1       2.806   6.797  17.033  0.00  0.00    +0.000 HD
ENDROOT
BRANCH   1   5
ATOM      5  C   UNL     1       3.133   5.143  18.359  0.00  0.00    +0.000 C 
BRANCH   5   6
ATOM      6  C   UNL     1       1.924   4.212  18.129  0.00  0.00    +0.000 C 
ATOM      7  O   UNL     1       1.646   3.726  17.037  0.00  0.00    +0.000 OA
BRANCH   6   8
ATOM      8  O   UNL     1       1.183   4.028  19.259  0.00  0.00    +0.000 OA
ATOM      9  C   UNL     1       0.848   2.660  19.512  0.00  0.00    +0.000 C 
ENDBRANCH   6   8
ENDBRANCH   5   6
BRANCH   5  10
ATOM     10  C   UNL     1       4.337   4.595  17.581  0.00  0.00    +0.000 C 
BRANCH  10  11
ATOM     11  C   UNL     1       5.572   5.494  17.685  0.00  0.00    +0.000 C 
BRANCH  11  12
ATOM     12  C   UNL     1       5.867   6.200  16.381  0.00  0.00    +0.000 C 
ATOM     13  O   UNL     1       5.136   7.009  15.832  0.00  0.00    +0.000 OA
BRANCH  12  15
ATOM     14  C   UNL     1       7.064   4.680  15.054  0.00  0.00    +0.000 C 
ATOM     15  O   UNL     1       7.092   5.811  15.926  0.00  0.00    +0.000 OA
ENDBRANCH  12  15
ENDBRANCH  11  12
ENDBRANCH  10  11
ENDBRANCH   5  10
ENDBRANCH   1   5
BRANCH   2  16
ATOM     16  C   UNL     1       2.124   8.844  18.399  0.00  0.00    +0.000 C 
BRANCH  16  17
ATOM     17  N   UNL     1       2.819   8.967  17.093  0.00  0.00    +0.000 NA
ATOM     18  H   UNL     1       2.270   9.601  16.506  0.00  0.00    +0.000 HD
ATOM     19  H   UNL     1       2.780   8.068  16.609  0.00  0.00    +0.000 HD
ENDBRANCH  16  17
BRANCH  16  20
ATOM     20  C   UNL     1       0.611   9.087  18.243  0.00  0.00    +0.000 C 
BRANCH  20  21
ATOM     21  C   UNL     1       0.104  10.180  19.140  0.00  0.00    +0.000 A 
ATOM     22  C   UNL     1      -0.169  11.479  18.757  0.00  0.00    +0.000 A 
ATOM     23  N   UNL     1      -0.657  12.158  19.838  0.00  0.00    +0.000 N 
ATOM     24  C   UNL     1      -0.684  11.338  20.939  0.00  0.00    +0.000 A 
ATOM     25  C   UNL     1      -1.095  11.605  22.250  0.00  0.00    +0.000 A 
ATOM     26  C   UNL     1      -0.995  10.572  23.184  0.00  0.00    +0.000 A 
ATOM     27  C   UNL     1      -0.503   9.322  22.819  0.00  0.00    +0.000 A 
ATOM     28  C   UNL     1      -0.106   9.066  21.500  0.00  0.00    +0.000 A 
ATOM     29  C   UNL     1      -0.198  10.092  20.537  0.00  0.00    +0.000 A 
ATOM     30  H   UNL     1      -0.950  13.126  19.833  0.00  0.00    +0.000 HD
ENDBRANCH  20  21
ENDBRANCH  16  20
ENDBRANCH   2  16
TORSDOF 11
ENDMDL
MODEL 9
REMARK VINA RESULT:      -6.7      2.695      6.845
REMARK  Name = 
REMARK  13 active torsions:
REMARK  status: ('A' for Active; 'I' for Inactive)
REMARK    1  A    between atoms: C_1  and  O_2
REMARK    2  A    between atoms: O_2  and  C_3
REMARK    3  A    between atoms: C_3  and  C_5
REMARK    4  A    between atoms: C_5  and  C_6
REMARK    5  A    between atoms: C_6  and  C_7
REMARK    6  A    between atoms: C_7  and  N_8
REMARK    7  A    between atoms: C_7  and  C_23
REMARK    8  A    between atoms: C_9  and  C_11
REMARK    9  A    between atoms: C_11  and  N_12
REMARK   10  A    between atoms: C_11  and  C_13
REMARK   11  A    between atoms: C_13  and  C_14
REMARK   12  A    between atoms: C_23  and  O_25
REMARK   13  A    between atoms: O_25  and  C_26
REMARK                            x       y       z     vdW  Elec       q    Type
REMARK                         _______ _______ _______ _____ _____    ______ ____
ROOT
ATOM      1  N   UNL     1       3.791   5.896  18.594  0.00  0.00    +0.000 N 
ATOM      2  C   UNL     1       4.984   5.307  18.970  0.00  0.00    +0.000 C 
ATOM      3  O   UNL     1       5.252   5.052  20.142  0.00  0.00    +0.000 OA
ATOM      4  H   UNL     1       3.744   6.342  17.687  0.00  0.00    +0.000 HD
ENDROOT
BRANCH   1   5
ATOM      5  C   UNL     1       2.772   6.216  19.595  0.00  0.00    +0.000 C 
BRANCH   5   6
ATOM      6  C   UNL     1       2.081   7.579  19.379  0.00  0.00    +0.000 C 
ATOM      7  O   UNL     1       1.560   8.222  20.285  0.00  0.00    +0.000 OA
BRANCH   6   8
ATOM      8  O   UNL     1       2.081   7.964  18.070  0.00  0.00    +0.000 OA
ATOM      9  C   UNL     1       1.825   9.358  17.879  0.00  0.00    +0.000 C 
ENDBRANCH   6   8
ENDBRANCH   5   6
BRANCH   5  10
ATOM     10  C   UNL     1       1.699   5.119  19.643  0.00  0.00    +0.000 C 
BRANCH  10  11
ATOM     11  C   UNL     1       1.623   4.304  18.349  0.00  0.00    +0.000 C 
BRANCH  11  12
ATOM     12  C   UNL     1       1.387   2.836  18.620  0.00  0.00    +0.000 C 
ATOM     13  O   UNL     1       0.333   2.245  18.449  0.00  0.00    +0.000 OA
BRANCH  12  15
ATOM     14  C   UNL     1       3.471   1.936  18.024  0.00  0.00    +0.000 C 
ATOM     15  O   UNL     1       2.545   2.268  19.061  0.00  0.00    +0.000 OA
ENDBRANCH  12  15
ENDBRANCH  11  12
ENDBRANCH  10  11
ENDBRANCH   5  10
ENDBRANCH   1   5
BRANCH   2  16
ATOM     16  C   UNL     1       5.981   5.115  17.805  0.00  0.00    +0.000 C 
BRANCH  16  17
ATOM     17  N   UNL     1       6.847   3.955  18.134  0.00  0.00    +0.000 NA
ATOM     18  H   UNL     1       7.100   4.025  19.123  0.00  0.00    +0.000 HD
ATOM     19  H   UNL     1       7.732   4.046  17.633  0.00  0.00    +0.000 HD
ENDBRANCH  16  17
BRANCH  16  20
ATOM     20  C   UNL     1       5.243   4.891  16.472  0.00  0.00    +0.000 C 
BRANCH  20  21
ATOM     21  C   UNL     1       6.158   4.961  15.283  0.00  0.00    +0.000 A 
ATOM     22  C   UNL     1       7.356   5.647  15.225  0.00  0.00    +0.000 A 
ATOM     23  N   UNL     1       7.920   5.433  13.998  0.00  0.00    +0.000 N 
ATOM     24  C   UNL     1       7.101   4.641  13.232  0.00  0.00    +0.000 A 
ATOM     25  C   UNL     1       7.267   4.175  11.923  0.00  0.00    +0.000 A 
ATOM     26  C   UNL     1       6.250   3.388  11.380  0.00  0.00    +0.000 A 
ATOM     27  C   UNL     1       5.111   3.079  12.121  0.00  0.00    +0.000 A 
ATOM     28  C   UNL     1       4.964   3.543  13.434  0.00  0.00    +0.000 A 
ATOM     29  C   UNL     1       5.978   4.339  14.005  0.00  0.00    +0.000 A 
ATOM     30  H   UNL     1       8.808   5.808  13.693  0.00  0.00    +0.000 HD
ENDBRANCH  20  21
ENDBRANCH  16  20
ENDBRANCH   2  16
TORSDOF 11
ENDMDL
