MODEL 1
REMARK VINA RESULT:      -6.7      0.000      0.000
REMARK  Name = 
REMARK  8 active torsions:
REMARK  status: ('A' for Active; 'I' for Inactive)
REMARK    1  A    between atoms: C_1  and  C_2
REMARK    2  A    between atoms: C_2  and  C_3
REMARK    3  A    between atoms: C_2  and  C_4
REMARK    4  A    between atoms: C_4  and  C_5
REMARK    5  A    between atoms: C_11  and  C_12
REMARK    6  A    between atoms: N_13  and  C_14
REMARK    7  A    between atoms: C_14  and  C_15
REMARK    8  A    between atoms: C_14  and  C_16
REMARK                            x       y       z     vdW  Elec       q    Type
REMARK                         _______ _______ _______ _____ _____    ______ ____
ROOT
ATOM      1  C   UNL     1       4.794   6.452  17.140  0.00  0.00    +0.000 C 
ATOM      2  C   UNL     1       5.224   6.667  15.646  0.00  0.00    +0.000 C 
ATOM      3  N   UNL     1       5.916   5.440  15.353  0.00  0.00    +0.000 N 
ATOM      4  C   UNL     1       5.530   4.432  16.192  0.00  0.00    +0.000 C 
ATOM      5  N   UNL     1       5.660   3.217  15.770  0.00  0.00    +0.000 NA
ATOM      6  C   UNL     1       6.246   3.395  14.398  0.00  0.00    +0.000 C 
ATOM      7  C   UNL     1       6.057   4.885  14.033  0.00  0.00    +0.000 C 
ATOM      8  C   UNL     1       7.236   5.503  13.308  0.00  0.00    +0.000 C 
ATOM      9  N   UNL     1       5.003   4.992  17.336  0.00  0.00    +0.000 N 
ENDROOT
BRANCH   9  10
ATOM     10  C   UNL     1       4.983   4.339  18.658  0.00  0.00    +0.000 C 
ATOM     11  C   UNL     1       5.660   5.257  19.686  0.00  0.00    +0.000 C 
BRANCH  10  12
ATOM     12  C   UNL     1       3.568   3.791  19.127  0.00  0.00    +0.000 C 
ATOM     13  C   UNL     1       3.132   4.491  20.448  0.00  0.00    +0.000 C 
ATOM     14  C   UNL     1       1.787   3.951  20.961  0.00  0.00    +0.000 C 
ATOM     15  C   UNL     1       0.691   4.257  19.932  0.00  0.00    +0.000 C 
ATOM     16  C   UNL     1       1.053   3.600  18.589  0.00  0.00    +0.000 C 
ATOM     17  C   UNL     1       1.104   2.079  18.797  0.00  0.00    +0.000 C 
ATOM     18  C   UNL     1       2.199   1.742  19.821  0.00  0.00    +0.000 C 
ATOM     19  C   UNL     1       1.904   2.431  21.163  0.00  0.00    +0.000 C 
ATOM     20  C   UNL     1       3.553   2.249  19.312  0.00  0.00    +0.000 C 
ATOM     21  C   UNL     1       2.427   4.108  18.095  0.00  0.00    +0.000 C 
ENDBRANCH  10  12
ENDBRANCH   9  10
BRANCH   1  22
ATOM     22  C   UNL     1       3.332   6.918  17.243  0.00  0.00    +0.000 C 
BRANCH  22  24
ATOM     23  C   UNL     1       2.131   9.141  17.587  0.00  0.00    +0.000 C 
ATOM     24  C   UNL     1       3.009   8.061  18.218  0.00  0.00    +0.000 C 
ATOM     25  C   UNL     1       2.304   7.488  19.455  0.00  0.00    +0.000 C 
ENDBRANCH  22  24
ENDBRANCH   1  22
TORSDOF 4
ENDMDL
MODEL 2
REMARK VINA RESULT:      -6.7      0.056      1.489
REMARK  Name = 
REMARK  8 active torsions:
REMARK  status: ('A' for Active; 'I' for Inactive)
REMARK    1  A    between atoms: C_1  and  C_2
REMARK    2  A    between atoms: C_2  and  C_3
REMARK    3  A    between atoms: C_2  and  C_4
REMARK    4  A    between atoms: C_4  and  C_5
REMARK    5  A    between atoms: C_11  and  C_12
REMARK    6  A    between atoms: N_13  and  C_14
REMARK    7  A    between atoms: C_14  and  C_15
REMARK    8  A    between atoms: C_14  and  C_16
REMARK                            x       y       z     vdW  Elec       q    Type
REMARK                         _______ _______ _______ _____ _____    ______ ____
ROOT
ATOM      1  C   UNL     1       4.796   6.451  17.141  0.00  0.00    +0.000 C 
ATOM      2  C   UNL     1       5.228   6.666  15.647  0.00  0.00    +0.000 C 
ATOM      3  N   UNL     1       5.920   5.439  15.356  0.00  0.00    +0.000 N 
ATOM      4  C   UNL     1       5.533   4.430  16.194  0.00  0.00    +0.000 C 
ATOM      5  N   UNL     1       5.662   3.216  15.772  0.00  0.00    +0.000 NA
ATOM      6  C   UNL     1       6.249   3.394  14.400  0.00  0.00    +0.000 C 
ATOM      7  C   UNL     1       6.061   4.884  14.035  0.00  0.00    +0.000 C 
ATOM      8  C   UNL     1       7.241   5.502  13.311  0.00  0.00    +0.000 C 
ATOM      9  N   UNL     1       5.005   4.991  17.338  0.00  0.00    +0.000 N 
ENDROOT
BRANCH   9  10
ATOM     10  C   UNL     1       4.984   4.338  18.660  0.00  0.00    +0.000 C 
ATOM     11  C   UNL     1       5.693   5.239  19.681  0.00  0.00    +0.000 C 
BRANCH  10  12
ATOM     12  C   UNL     1       3.561   3.822  19.144  0.00  0.00    +0.000 C 
ATOM     13  C   UNL     1       3.619   2.298  19.456  0.00  0.00    +0.000 C 
ATOM     14  C   UNL     1       2.247   1.751  19.881  0.00  0.00    +0.000 C 
ATOM     15  C   UNL     1       1.806   2.439  21.180  0.00  0.00    +0.000 C 
ATOM     16  C   UNL     1       1.729   3.958  20.954  0.00  0.00    +0.000 C 
ATOM     17  C   UNL     1       0.663   4.230  19.882  0.00  0.00    +0.000 C 
ATOM     18  C   UNL     1       1.082   3.557  18.566  0.00  0.00    +0.000 C 
ATOM     19  C   UNL     1       1.228   2.040  18.766  0.00  0.00    +0.000 C 
ATOM     20  C   UNL     1       2.436   4.111  18.112  0.00  0.00    +0.000 C 
ATOM     21  C   UNL     1       3.098   4.502  20.482  0.00  0.00    +0.000 C 
ENDBRANCH  10  12
ENDBRANCH   9  10
BRANCH   1  22
ATOM     22  C   UNL     1       3.334   6.918  17.244  0.00  0.00    +0.000 C 
BRANCH  22  24
ATOM     23  C   UNL     1       2.122   9.134  17.591  0.00  0.00    +0.000 C 
ATOM     24  C   UNL     1       3.011   8.061  18.218  0.00  0.00    +0.000 C 
ATOM     25  C   UNL     1       2.319   7.486  19.462  0.00  0.00    +0.000 C 
ENDBRANCH  22  24
ENDBRANCH   1  22
TORSDOF 4
ENDMDL
MODEL 3
REMARK VINA RESULT:      -6.7      0.067      1.510
REMARK  Name = 
REMARK  8 active torsions:
REMARK  status: ('A' for Active; 'I' for Inactive)
REMARK    1  A    between atoms: C_1  and  C_2
REMARK    2  A    between atoms: C_2  and  C_3
REMARK    3  A    between atoms: C_2  and  C_4
REMARK    4  A    between atoms: C_4  and  C_5
REMARK    5  A    between atoms: C_11  and  C_12
REMARK    6  A    between atoms: N_13  and  C_14
REMARK    7  A    between atoms: C_14  and  C_15
REMARK    8  A    between atoms: C_14  and  C_16
REMARK                            x       y       z     vdW  Elec       q    Type
REMARK                         _______ _______ _______ _____ _____    ______ ____
ROOT
ATOM      1  C   UNL     1       4.769   6.443  17.176  0.00  0.00    +0.000 C 
ATOM      2  C   UNL     1       5.193   6.662  15.681  0.00  0.00    +0.000 C 
ATOM      3  N   UNL     1       5.896   5.443  15.387  0.00  0.00    +0.000 N 
ATOM      4  C   UNL     1       5.522   4.430  16.226  0.00  0.00    +0.000 C 
ATOM      5  N   UNL     1       5.662   3.217  15.804  0.00  0.00    +0.000 NA
ATOM      6  C   UNL     1       6.242   3.401  14.430  0.00  0.00    +0.000 C 
ATOM      7  C   UNL     1       6.038   4.889  14.066  0.00  0.00    +0.000 C 
ATOM      8  C   UNL     1       7.211   5.518  13.338  0.00  0.00    +0.000 C 
ATOM      9  N   UNL     1       4.993   4.985  17.372  0.00  0.00    +0.000 N 
ENDROOT
BRANCH   9  10
ATOM     10  C   UNL     1       4.982   4.332  18.694  0.00  0.00    +0.000 C 
ATOM     11  C   UNL     1       5.688   5.238  19.712  0.00  0.00    +0.000 C 
BRANCH  10  12
ATOM     12  C   UNL     1       3.565   3.805  19.183  0.00  0.00    +0.000 C 
ATOM     13  C   UNL     1       2.486   4.077  18.094  0.00  0.00    +0.000 C 
ATOM     14  C   UNL     1       1.089   3.625  18.551  0.00  0.00    +0.000 C 
ATOM     15  C   UNL     1       1.096   2.108  18.780  0.00  0.00    +0.000 C 
ATOM     16  C   UNL     1       2.147   1.756  19.846  0.00  0.00    +0.000 C 
ATOM     17  C   UNL     1       1.743   2.437  21.162  0.00  0.00    +0.000 C 
ATOM     18  C   UNL     1       1.733   3.961  20.964  0.00  0.00    +0.000 C 
ATOM     19  C   UNL     1       0.735   4.349  19.862  0.00  0.00    +0.000 C 
ATOM     20  C   UNL     1       3.126   4.433  20.534  0.00  0.00    +0.000 C 
ATOM     21  C   UNL     1       3.545   2.251  19.407  0.00  0.00    +0.000 C 
ENDBRANCH  10  12
ENDBRANCH   9  10
BRANCH   1  22
ATOM     22  C   UNL     1       3.303   6.896  17.283  0.00  0.00    +0.000 C 
BRANCH  22  24
ATOM     23  C   UNL     1       2.055   9.094  17.617  0.00  0.00    +0.000 C 
ATOM     24  C   UNL     1       2.975   8.048  18.245  0.00  0.00    +0.000 C 
ATOM     25  C   UNL     1       2.315   7.481  19.510  0.00  0.00    +0.000 C 
ENDBRANCH  22  24
ENDBRANCH   1  22
TORSDOF 4
ENDMDL
MODEL 4
REMARK VINA RESULT:      -6.5      2.018      5.981
REMARK  Name = 
REMARK  8 active torsions:
REMARK  status: ('A' for Active; 'I' for Inactive)
REMARK    1  A    between atoms: C_1  and  C_2
REMARK    2  A    between atoms: C_2  and  C_3
REMARK    3  A    between atoms: C_2  and  C_4
REMARK    4  A    between atoms: C_4  and  C_5
REMARK    5  A    between atoms: C_11  and  C_12
REMARK    6  A    between atoms: N_13  and  C_14
REMARK    7  A    between atoms: C_14  and  C_15
REMARK    8  A    between atoms: C_14  and  C_16
REMARK                            x       y       z     vdW  Elec       q    Type
REMARK                         _______ _______ _______ _____ _____    ______ ____
ROOT
ATOM      1  C   UNL     1       2.127   5.307  20.396  0.00  0.00    +0.000 C 
ATOM      2  C   UNL     1       1.559   6.710  20.809  0.00  0.00    +0.000 C 
ATOM      3  N   UNL     1       2.042   7.553  19.748  0.00  0.00    +0.000 N 
ATOM      4  C   UNL     1       2.321   6.833  18.620  0.00  0.00    +0.000 C 
ATOM      5  N   UNL     1       2.276   7.452  17.486  0.00  0.00    +0.000 NA
ATOM      6  C   UNL     1       1.909   8.855  17.880  0.00  0.00    +0.000 C 
ATOM      7  C   UNL     1       1.413   8.782  19.341  0.00  0.00    +0.000 C 
ATOM      8  C   UNL     1       1.868   9.938  20.212  0.00  0.00    +0.000 C 
ATOM      9  N   UNL     1       2.536   5.520  18.981  0.00  0.00    +0.000 N 
ENDROOT
BRANCH   9  10
ATOM     10  C   UNL     1       3.366   4.566  18.222  0.00  0.00    +0.000 C 
ATOM     11  C   UNL     1       2.580   4.075  16.998  0.00  0.00    +0.000 C 
BRANCH  10  12
ATOM     12  C   UNL     1       4.836   5.061  17.880  0.00  0.00    +0.000 C 
ATOM     13  C   UNL     1       5.557   4.019  16.976  0.00  0.00    +0.000 C 
ATOM     14  C   UNL     1       7.002   4.439  16.663  0.00  0.00    +0.000 C 
ATOM     15  C   UNL     1       6.988   5.755  15.874  0.00  0.00    +0.000 C 
ATOM     16  C   UNL     1       6.283   6.842  16.703  0.00  0.00    +0.000 C 
ATOM     17  C   UNL     1       7.091   7.063  17.990  0.00  0.00    +0.000 C 
ATOM     18  C   UNL     1       7.118   5.761  18.805  0.00  0.00    +0.000 C 
ATOM     19  C   UNL     1       7.763   4.632  17.985  0.00  0.00    +0.000 C 
ATOM     20  C   UNL     1       5.685   5.341  19.150  0.00  0.00    +0.000 C 
ATOM     21  C   UNL     1       4.844   6.399  17.057  0.00  0.00    +0.000 C 
ENDBRANCH  10  12
ENDBRANCH   9  10
BRANCH   1  22
ATOM     22  C   UNL     1       0.983   4.298  20.596  0.00  0.00    +0.000 C 
BRANCH  22  24
ATOM     23  C   UNL     1       1.324   1.975  19.602  0.00  0.00    +0.000 C 
ATOM     24  C   UNL     1       1.355   2.832  20.866  0.00  0.00    +0.000 C 
ATOM     25  C   UNL     1       2.757   2.773  21.490  0.00  0.00    +0.000 C 
ENDBRANCH  22  24
ENDBRANCH   1  22
TORSDOF 4
ENDMDL
MODEL 5
REMARK VINA RESULT:      -6.4      9.625     11.632
REMARK  Name = 
REMARK  8 active torsions:
REMARK  status: ('A' for Active; 'I' for Inactive)
REMARK    1  A    between atoms: C_1  and  C_2
REMARK    2  A    between atoms: C_2  and  C_3
REMARK    3  A    between atoms: C_2  and  C_4
REMARK    4  A    between atoms: C_4  and  C_5
REMARK    5  A    between atoms: C_11  and  C_12
REMARK    6  A    between atoms: N_13  and  C_14
REMARK    7  A    between atoms: C_14  and  C_15
REMARK    8  A    between atoms: C_14  and  C_16
REMARK                            x       y       z     vdW  Elec       q    Type
REMARK                         _______ _______ _______ _____ _____    ______ ____
ROOT
ATOM      1  C   UNL     1       7.003  14.685  21.525  0.00  0.00    +0.000 C 
ATOM      2  C   UNL     1       5.440  14.765  21.412  0.00  0.00    +0.000 C 
ATOM      3  N   UNL     1       5.261  15.270  20.077  0.00  0.00    +0.000 N 
ATOM      4  C   UNL     1       6.351  15.014  19.292  0.00  0.00    +0.000 C 
ATOM      5  N   UNL     1       6.167  14.944  18.015  0.00  0.00    +0.000 NA
ATOM      6  C   UNL     1       4.693  15.201  17.869  0.00  0.00    +0.000 C 
ATOM      7  C   UNL     1       4.082  15.049  19.280  0.00  0.00    +0.000 C 
ATOM      8  C   UNL     1       3.009  16.069  19.607  0.00  0.00    +0.000 C 
ATOM      9  N   UNL     1       7.443  14.819  20.109  0.00  0.00    +0.000 N 
ENDROOT
BRANCH   9  10
ATOM     10  C   UNL     1       8.842  15.060  19.713  0.00  0.00    +0.000 C 
ATOM     11  C   UNL     1       9.481  16.057  20.691  0.00  0.00    +0.000 C 
BRANCH  10  12
ATOM     12  C   UNL     1       9.717  13.757  19.470  0.00  0.00    +0.000 C 
ATOM     13  C   UNL     1       8.899  12.702  18.667  0.00  0.00    +0.000 C 
ATOM     14  C   UNL     1       9.696  11.405  18.454  0.00  0.00    +0.000 C 
ATOM     15  C   UNL     1      10.944  11.709  17.616  0.00  0.00    +0.000 C 
ATOM     16  C   UNL     1      11.808  12.752  18.343  0.00  0.00    +0.000 C 
ATOM     17  C   UNL     1      12.264  12.151  19.680  0.00  0.00    +0.000 C 
ATOM     18  C   UNL     1      11.032  11.842  20.545  0.00  0.00    +0.000 C 
ATOM     19  C   UNL     1      10.112  10.844  19.825  0.00  0.00    +0.000 C 
ATOM     20  C   UNL     1      10.240  13.130  20.791  0.00  0.00    +0.000 C 
ATOM     21  C   UNL     1      10.993  14.041  18.598  0.00  0.00    +0.000 C 
ENDBRANCH  10  12
ENDBRANCH   9  10
BRANCH   1  22
ATOM     22  C   UNL     1       7.324  13.331  22.180  0.00  0.00    +0.000 C 
BRANCH  22  24
ATOM     23  C   UNL     1       8.338  11.982  24.091  0.00  0.00    +0.000 C 
ATOM     24  C   UNL     1       7.769  13.330  23.650  0.00  0.00    +0.000 C 
ATOM     25  C   UNL     1       8.826  14.424  23.860  0.00  0.00    +0.000 C 
ENDBRANCH  22  24
ENDBRANCH   1  22
TORSDOF 4
ENDMDL
MODEL 6
REMARK VINA RESULT:      -6.3      2.023      5.974
REMARK  Name = 
REMARK  8 active torsions:
REMARK  status: ('A' for Active; 'I' for Inactive)
REMARK    1  A    between atoms: C_1  and  C_2
REMARK    2  A    between atoms: C_2  and  C_3
REMARK    3  A    between atoms: C_2  and  C_4
REMARK    4  A    between atoms: C_4  and  C_5
REMARK    5  A    between atoms: C_11  and  C_12
REMARK    6  A    between atoms: N_13  and  C_14
REMARK    7  A    between atoms: C_14  and  C_15
REMARK    8  A    between atoms: C_14  and  C_16
REMARK                            x       y       z     vdW  Elec       q    Type
REMARK                         _______ _______ _______ _____ _____    ______ ____
ROOT
ATOM      1  C   UNL     1       2.111   5.257  20.403  0.00  0.00    +0.000 C 
ATOM      2  C   UNL     1       1.568   6.664  20.838  0.00  0.00    +0.000 C 
ATOM      3  N   UNL     1       2.029   7.508  19.769  0.00  0.00    +0.000 N 
ATOM      4  C   UNL     1       2.272   6.791  18.630  0.00  0.00    +0.000 C 
ATOM      5  N   UNL     1       2.202   7.415  17.501  0.00  0.00    +0.000 NA
ATOM      6  C   UNL     1       1.857   8.820  17.911  0.00  0.00    +0.000 C 
ATOM      7  C   UNL     1       1.400   8.744  19.385  0.00  0.00    +0.000 C 
ATOM      8  C   UNL     1       1.888   9.891  20.248  0.00  0.00    +0.000 C 
ATOM      9  N   UNL     1       2.484   5.474  18.979  0.00  0.00    +0.000 N 
ENDROOT
BRANCH   9  10
ATOM     10  C   UNL     1       3.284   4.516  18.194  0.00  0.00    +0.000 C 
ATOM     11  C   UNL     1       2.457   4.028  16.996  0.00  0.00    +0.000 C 
BRANCH  10  12
ATOM     12  C   UNL     1       4.745   5.006  17.803  0.00  0.00    +0.000 C 
ATOM     13  C   UNL     1       5.555   5.354  19.086  0.00  0.00    +0.000 C 
ATOM     14  C   UNL     1       6.959   5.879  18.748  0.00  0.00    +0.000 C 
ATOM     15  C   UNL     1       7.751   4.781  18.025  0.00  0.00    +0.000 C 
ATOM     16  C   UNL     1       7.009   4.375  16.741  0.00  0.00    +0.000 C 
ATOM     17  C   UNL     1       6.939   5.601  15.819  0.00  0.00    +0.000 C 
ATOM     18  C   UNL     1       6.145   6.718  16.515  0.00  0.00    +0.000 C 
ATOM     19  C   UNL     1       6.825   7.111  17.836  0.00  0.00    +0.000 C 
ATOM     20  C   UNL     1       4.732   6.220  16.836  0.00  0.00    +0.000 C 
ATOM     21  C   UNL     1       5.579   3.890  17.078  0.00  0.00    +0.000 C 
ENDBRANCH  10  12
ENDBRANCH   9  10
BRANCH   1  22
ATOM     22  C   UNL     1       0.964   4.258  20.629  0.00  0.00    +0.000 C 
BRANCH  22  24
ATOM     23  C   UNL     1       1.269   1.948  19.593  0.00  0.00    +0.000 C 
ATOM     24  C   UNL     1       1.330   2.785  20.870  0.00  0.00    +0.000 C 
ATOM     25  C   UNL     1       2.743   2.705  21.466  0.00  0.00    +0.000 C 
ENDBRANCH  22  24
ENDBRANCH   1  22
TORSDOF 4
ENDMDL
MODEL 7
REMARK VINA RESULT:      -6.3      1.751      4.153
REMARK  Name = 
REMARK  8 active torsions:
REMARK  status: ('A' for Active; 'I' for Inactive)
REMARK    1  A    between atoms: C_1  and  C_2
REMARK    2  A    between atoms: C_2  and  C_3
REMARK    3  A    between atoms: C_2  and  C_4
REMARK    4  A    between atoms: C_4  and  C_5
REMARK    5  A    between atoms: C_11  and  C_12
REMARK    6  A    between atoms: N_13  and  C_14
REMARK    7  A    between atoms: C_14  and  C_15
REMARK    8  A    between atoms: C_14  and  C_16
REMARK                            x       y       z     vdW  Elec       q    Type
REMARK                         _______ _______ _______ _____ _____    ______ ____
ROOT
ATOM      1  C   UNL     1       4.989   4.443  15.630  0.00  0.00    +0.000 C 
ATOM      2  C   UNL     1       6.087   5.553  15.787  0.00  0.00    +0.000 C 
ATOM      3  N   UNL     1       6.205   5.658  17.217  0.00  0.00    +0.000 N 
ATOM      4  C   UNL     1       5.777   4.520  17.842  0.00  0.00    +0.000 C 
ATOM      5  N   UNL     1       6.260   4.260  19.012  0.00  0.00    +0.000 NA
ATOM      6  C   UNL     1       7.186   5.417  19.262  0.00  0.00    +0.000 C 
ATOM      7  C   UNL     1       7.386   6.117  17.899  0.00  0.00    +0.000 C 
ATOM      8  C   UNL     1       7.413   7.632  17.975  0.00  0.00    +0.000 C 
ATOM      9  N   UNL     1       4.924   3.848  16.993  0.00  0.00    +0.000 N 
ENDROOT
BRANCH   9  10
ATOM     10  C   UNL     1       3.856   2.930  17.429  0.00  0.00    +0.000 C 
ATOM     11  C   UNL     1       4.428   1.512  17.557  0.00  0.00    +0.000 C 
BRANCH  10  12
ATOM     12  C   UNL     1       3.028   3.402  18.701  0.00  0.00    +0.000 C 
ATOM     13  C   UNL     1       1.558   2.897  18.602  0.00  0.00    +0.000 C 
ATOM     14  C   UNL     1       0.711   3.375  19.792  0.00  0.00    +0.000 C 
ATOM     15  C   UNL     1       1.281   2.786  21.090  0.00  0.00    +0.000 C 
ATOM     16  C   UNL     1       2.741   3.237  21.258  0.00  0.00    +0.000 C 
ATOM     17  C   UNL     1       2.761   4.767  21.378  0.00  0.00    +0.000 C 
ATOM     18  C   UNL     1       2.200   5.386  20.089  0.00  0.00    +0.000 C 
ATOM     19  C   UNL     1       0.758   4.912  19.853  0.00  0.00    +0.000 C 
ATOM     20  C   UNL     1       3.050   4.942  18.894  0.00  0.00    +0.000 C 
ATOM     21  C   UNL     1       3.584   2.796  20.039  0.00  0.00    +0.000 C 
ENDBRANCH  10  12
ENDBRANCH   9  10
BRANCH   1  22
ATOM     22  C   UNL     1       5.487   3.491  14.529  0.00  0.00    +0.000 C 
BRANCH  22  24
ATOM     23  C   UNL     1       7.029   3.910  12.543  0.00  0.00    +0.000 C 
ATOM     24  C   UNL     1       5.614   4.045  13.102  0.00  0.00    +0.000 C 
ATOM     25  C   UNL     1       4.628   3.310  12.183  0.00  0.00    +0.000 C 
ENDBRANCH  22  24
ENDBRANCH   1  22
TORSDOF 4
ENDMDL
MODEL 8
REMARK VINA RESULT:      -6.3      2.027      5.973
REMARK  Name = 
REMARK  8 active torsions:
REMARK  status: ('A' for Active; 'I' for Inactive)
REMARK    1  A    between atoms: C_1  and  C_2
REMARK    2  A    between atoms: C_2  and  C_3
REMARK    3  A    between atoms: C_2  and  C_4
REMARK    4  A    between atoms: C_4  and  C_5
REMARK    5  A    between atoms: C_11  and  C_12
REMARK    6  A    between atoms: N_13  and  C_14
REMARK    7  A    between atoms: C_14  and  C_15
REMARK    8  A    between atoms: C_14  and  C_16
REMARK                            x       y       z     vdW  Elec       q    Type
REMARK                         _______ _______ _______ _____ _____    ______ ____
ROOT
ATOM      1  C   UNL     1       2.116   5.272  20.412  0.00  0.00    +0.000 C 
ATOM      2  C   UNL     1       1.570   6.678  20.850  0.00  0.00    +0.000 C 
ATOM      3  N   UNL     1       2.032   7.524  19.783  0.00  0.00    +0.000 N 
ATOM      4  C   UNL     1       2.276   6.810  18.642  0.00  0.00    +0.000 C 
ATOM      5  N   UNL     1       2.206   7.437  17.514  0.00  0.00    +0.000 NA
ATOM      6  C   UNL     1       1.860   8.840  17.927  0.00  0.00    +0.000 C 
ATOM      7  C   UNL     1       1.402   8.761  19.401  0.00  0.00    +0.000 C 
ATOM      8  C   UNL     1       1.888   9.906  20.267  0.00  0.00    +0.000 C 
ATOM      9  N   UNL     1       2.489   5.493  18.988  0.00  0.00    +0.000 N 
ENDROOT
BRANCH   9  10
ATOM     10  C   UNL     1       3.291   4.538  18.201  0.00  0.00    +0.000 C 
ATOM     11  C   UNL     1       2.490   4.102  16.966  0.00  0.00    +0.000 C 
BRANCH  10  12
ATOM     12  C   UNL     1       4.774   5.002  17.870  0.00  0.00    +0.000 C 
ATOM     13  C   UNL     1       4.751   6.317  17.036  0.00  0.00    +0.000 C 
ATOM     14  C   UNL     1       6.168   6.772  16.653  0.00  0.00    +0.000 C 
ATOM     15  C   UNL     1       6.963   7.085  17.927  0.00  0.00    +0.000 C 
ATOM     16  C   UNL     1       7.027   5.829  18.812  0.00  0.00    +0.000 C 
ATOM     17  C   UNL     1       7.775   4.734  18.038  0.00  0.00    +0.000 C 
ATOM     18  C   UNL     1       6.998   4.395  16.757  0.00  0.00    +0.000 C 
ATOM     19  C   UNL     1       6.861   5.643  15.871  0.00  0.00    +0.000 C 
ATOM     20  C   UNL     1       5.590   3.912  17.122  0.00  0.00    +0.000 C 
ATOM     21  C   UNL     1       5.601   5.344  19.160  0.00  0.00    +0.000 C 
ENDBRANCH  10  12
ENDBRANCH   9  10
BRANCH   1  22
ATOM     22  C   UNL     1       0.969   4.271  20.635  0.00  0.00    +0.000 C 
BRANCH  22  24
ATOM     23  C   UNL     1       1.287   1.968  19.588  0.00  0.00    +0.000 C 
ATOM     24  C   UNL     1       1.337   2.798  20.870  0.00  0.00    +0.000 C 
ATOM     25  C   UNL     1       2.744   2.718  21.477  0.00  0.00    +0.000 C 
ENDBRANCH  22  24
ENDBRANCH   1  22
TORSDOF 4
ENDMDL
MODEL 9
REMARK VINA RESULT:      -6.2      1.734      3.971
REMARK  Name = 
REMARK  8 active torsions:
REMARK  status: ('A' for Active; 'I' for Inactive)
REMARK    1  A    between atoms: C_1  and  C_2
REMARK    2  A    between atoms: C_2  and  C_3
REMARK    3  A    between atoms: C_2  and  C_4
REMARK    4  A    between atoms: C_4  and  C_5
REMARK    5  A    between atoms: C_11  and  C_12
REMARK    6  A    between atoms: N_13  and  C_14
REMARK    7  A    between atoms: C_14  and  C_15
REMARK    8  A    between atoms: C_14  and  C_16
REMARK                            x       y       z     vdW  Elec       q    Type
REMARK                         _______ _______ _______ _____ _____    ______ ____
ROOT
ATOM      1  C   UNL     1       5.030   4.468  15.613  0.00  0.00    +0.000 C 
ATOM      2  C   UNL     1       6.128   5.578  15.773  0.00  0.00    +0.000 C 
ATOM      3  N   UNL     1       6.245   5.680  17.203  0.00  0.00    +0.000 N 
ATOM      4  C   UNL     1       5.816   4.541  17.826  0.00  0.00    +0.000 C 
ATOM      5  N   UNL     1       6.298   4.278  18.996  0.00  0.00    +0.000 NA
ATOM      6  C   UNL     1       7.223   5.435  19.249  0.00  0.00    +0.000 C 
ATOM      7  C   UNL     1       7.425   6.138  17.888  0.00  0.00    +0.000 C 
ATOM      8  C   UNL     1       7.452   7.652  17.967  0.00  0.00    +0.000 C 
ATOM      9  N   UNL     1       4.964   3.871  16.975  0.00  0.00    +0.000 N 
ENDROOT
BRANCH   9  10
ATOM     10  C   UNL     1       3.896   2.951  17.408  0.00  0.00    +0.000 C 
ATOM     11  C   UNL     1       4.483   1.546  17.597  0.00  0.00    +0.000 C 
BRANCH  10  12
ATOM     12  C   UNL     1       3.024   3.450  18.639  0.00  0.00    +0.000 C 
ATOM     13  C   UNL     1       3.561   2.830  19.963  0.00  0.00    +0.000 C 
ATOM     14  C   UNL     1       2.713   3.250  21.174  0.00  0.00    +0.000 C 
ATOM     15  C   UNL     1       2.796   4.772  21.348  0.00  0.00    +0.000 C 
ATOM     16  C   UNL     1       2.285   5.462  20.072  0.00  0.00    +0.000 C 
ATOM     17  C   UNL     1       0.809   5.082  19.879  0.00  0.00    +0.000 C 
ATOM     18  C   UNL     1       0.696   3.561  19.696  0.00  0.00    +0.000 C 
ATOM     19  C   UNL     1       1.253   2.832  20.929  0.00  0.00    +0.000 C 
ATOM     20  C   UNL     1       1.514   3.127  18.475  0.00  0.00    +0.000 C 
ATOM     21  C   UNL     1       3.109   5.004  18.846  0.00  0.00    +0.000 C 
ENDBRANCH  10  12
ENDBRANCH   9  10
BRANCH   1  22
ATOM     22  C   UNL     1       5.529   3.518  14.511  0.00  0.00    +0.000 C 
BRANCH  22  24
ATOM     23  C   UNL     1       7.014   3.896  12.473  0.00  0.00    +0.000 C 
ATOM     24  C   UNL     1       5.621   4.065  13.078  0.00  0.00    +0.000 C 
ATOM     25  C   UNL     1       4.590   3.349  12.195  0.00  0.00    +0.000 C 
ENDBRANCH  22  24
ENDBRANCH   1  22
TORSDOF 4
ENDMDL
