MODEL 1
REMARK VINA RESULT:      -8.2      0.000      0.000
REMARK  Name = 
REMARK  8 active torsions:
REMARK  status: ('A' for Active; 'I' for Inactive)
REMARK    1  A    between atoms: C_1  and  C_2
REMARK    2  A    between atoms: C_5  and  C_6
REMARK    3  A    between atoms: C_7  and  S_8
REMARK    4  A    between atoms: S_8  and  N_11
REMARK    5  A    between atoms: C_15  and  C_16
REMARK    6  A    between atoms: C_16  and  N_17
REMARK    7  A    between atoms: C_18  and  C_20
REMARK    8  A    between atoms: N_22  and  C_23
REMARK                            x       y       z     vdW  Elec       q    Type
REMARK                         _______ _______ _______ _____ _____    ______ ____
ROOT
ATOM      1  N   UNL     1       3.418   4.458  19.718  0.00  0.00    +0.000 NA
ATOM      2  C   UNL     1       2.736   4.060  20.969  0.00  0.00    +0.000 C 
ATOM      3  C   UNL     1       1.259   4.136  20.628  0.00  0.00    +0.000 C 
ATOM      4  C   UNL     1       1.148   5.279  19.634  0.00  0.00    +0.000 C 
ATOM      5  C   UNL     1       2.530   5.414  18.978  0.00  0.00    +0.000 C 
ENDROOT
BRANCH   1   6
ATOM      6  S   UNL     1       4.245   3.246  18.847  0.00  0.00    +0.000 S 
ATOM      7  O   UNL     1       3.268   2.508  18.072  0.00  0.00    +0.000 OA
ATOM      8  O   UNL     1       5.156   2.585  19.750  0.00  0.00    +0.000 OA
BRANCH   6  15
ATOM      9  C   UNL     1       5.748   3.912  13.879  0.00  0.00    +0.000 C 
ATOM     10  C   UNL     1       5.904   4.350  15.305  0.00  0.00    +0.000 A 
ATOM     11  C   UNL     1       6.958   5.175  15.695  0.00  0.00    +0.000 A 
ATOM     12  C   UNL     1       7.128   5.514  17.039  0.00  0.00    +0.000 A 
ATOM     13  C   UNL     1       6.265   5.011  18.032  0.00  0.00    +0.000 A 
ATOM     14  C   UNL     1       6.548   5.376  19.462  0.00  0.00    +0.000 C 
ATOM     15  C   UNL     1       5.220   4.148  17.634  0.00  0.00    +0.000 A 
ATOM     16  C   UNL     1       5.030   3.852  16.278  0.00  0.00    +0.000 A 
ENDBRANCH   6  15
ENDBRANCH   1   6
BRANCH   5  17
ATOM     17  C   UNL     1       3.085   6.855  19.125  0.00  0.00    +0.000 C 
BRANCH  17  18
ATOM     18  N   UNL     1       2.069   7.862  19.403  0.00  0.00    +0.000 N 
ATOM     19  C   UNL     1       1.690   8.844  18.502  0.00  0.00    +0.000 C 
ATOM     20  O   UNL     1       2.178   9.023  17.390  0.00  0.00    +0.000 OA
ATOM     21  H   UNL     1       1.528   7.814  20.263  0.00  0.00    +0.000 HD
BRANCH  19  22
ATOM     22  C   UNL     1       0.559   9.780  19.020  0.00  0.00    +0.000 C 
ATOM     23  O   UNL     1      -0.228  10.273  18.225  0.00  0.00    +0.000 OA
ATOM     24  N   UNL     1       0.541   9.950  20.393  0.00  0.00    +0.000 N 
ATOM     25  H   UNL     1       1.316   9.541  20.907  0.00  0.00    +0.000 HD
BRANCH  24  26
ATOM     26  C   UNL     1      -0.440  10.769  21.078  0.00  0.00    +0.000 C 
ATOM     27  C   UNL     1      -0.701  10.307  22.510  0.00  0.00    +0.000 C 
ATOM     28  C   UNL     1      -1.388  11.501  23.160  0.00  0.00    +0.000 C 
ATOM     29  C   UNL     1      -0.827  12.735  22.453  0.00  0.00    +0.000 C 
ATOM     30  C   UNL     1       0.005  12.218  21.277  0.00  0.00    +0.000 C 
ENDBRANCH  24  26
ENDBRANCH  19  22
ENDBRANCH  17  18
ENDBRANCH   5  17
TORSDOF 6
ENDMDL
MODEL 2
REMARK VINA RESULT:      -8.1      1.958      2.607
REMARK  Name = 
REMARK  8 active torsions:
REMARK  status: ('A' for Active; 'I' for Inactive)
REMARK    1  A    between atoms: C_1  and  C_2
REMARK    2  A    between atoms: C_5  and  C_6
REMARK    3  A    between atoms: C_7  and  S_8
REMARK    4  A    between atoms: S_8  and  N_11
REMARK    5  A    between atoms: C_15  and  C_16
REMARK    6  A    between atoms: C_16  and  N_17
REMARK    7  A    between atoms: C_18  and  C_20
REMARK    8  A    between atoms: N_22  and  C_23
REMARK                            x       y       z     vdW  Elec       q    Type
REMARK                         _______ _______ _______ _____ _____    ______ ____
ROOT
ATOM      1  N   UNL     1       3.342   4.537  19.688  0.00  0.00    +0.000 NA
ATOM      2  C   UNL     1       2.778   4.188  21.011  0.00  0.00    +0.000 C 
ATOM      3  C   UNL     1       1.279   4.144  20.776  0.00  0.00    +0.000 C 
ATOM      4  C   UNL     1       1.020   5.201  19.718  0.00  0.00    +0.000 C 
ATOM      5  C   UNL     1       2.340   5.377  18.953  0.00  0.00    +0.000 C 
ENDROOT
BRANCH   1   6
ATOM      6  S   UNL     1       4.189   3.322  18.842  0.00  0.00    +0.000 S 
ATOM      7  O   UNL     1       3.227   2.566  18.065  0.00  0.00    +0.000 OA
ATOM      8  O   UNL     1       5.095   2.679  19.764  0.00  0.00    +0.000 OA
BRANCH   6  15
ATOM      9  C   UNL     1       5.680   3.990  13.870  0.00  0.00    +0.000 C 
ATOM     10  C   UNL     1       5.847   4.420  15.298  0.00  0.00    +0.000 A 
ATOM     11  C   UNL     1       6.913   5.230  15.687  0.00  0.00    +0.000 A 
ATOM     12  C   UNL     1       7.093   5.560  17.032  0.00  0.00    +0.000 A 
ATOM     13  C   UNL     1       6.228   5.064  18.026  0.00  0.00    +0.000 A 
ATOM     14  C   UNL     1       6.521   5.419  19.457  0.00  0.00    +0.000 C 
ATOM     15  C   UNL     1       5.171   4.216  17.629  0.00  0.00    +0.000 A 
ATOM     16  C   UNL     1       4.971   3.929  16.273  0.00  0.00    +0.000 A 
ENDBRANCH   6  15
ENDBRANCH   1   6
BRANCH   5  17
ATOM     17  C   UNL     1       2.802   6.858  18.960  0.00  0.00    +0.000 C 
BRANCH  17  18
ATOM     18  N   UNL     1       1.712   7.825  19.007  0.00  0.00    +0.000 N 
ATOM     19  C   UNL     1       1.617   8.921  18.165  0.00  0.00    +0.000 C 
ATOM     20  O   UNL     1       2.441   9.245  17.314  0.00  0.00    +0.000 OA
ATOM     21  H   UNL     1       0.917   7.665  19.621  0.00  0.00    +0.000 HD
BRANCH  19  22
ATOM     22  C   UNL     1       0.342   9.785  18.387  0.00  0.00    +0.000 C 
ATOM     23  O   UNL     1       0.210  10.408  19.431  0.00  0.00    +0.000 OA
ATOM     24  N   UNL     1      -0.544   9.784  17.325  0.00  0.00    +0.000 N 
ATOM     25  H   UNL     1      -0.330   9.146  16.563  0.00  0.00    +0.000 HD
BRANCH  24  26
ATOM     26  C   UNL     1      -1.783  10.537  17.323  0.00  0.00    +0.000 C 
ATOM     27  C   UNL     1      -2.494  10.504  15.972  0.00  0.00    +0.000 C 
ATOM     28  C   UNL     1      -3.913  10.955  16.295  0.00  0.00    +0.000 C 
ATOM     29  C   UNL     1      -4.179  10.487  17.725  0.00  0.00    +0.000 C 
ATOM     30  C   UNL     1      -2.844   9.968  18.266  0.00  0.00    +0.000 C 
ENDBRANCH  24  26
ENDBRANCH  19  22
ENDBRANCH  17  18
ENDBRANCH   5  17
TORSDOF 6
ENDMDL
MODEL 3
REMARK VINA RESULT:      -8.1      1.467      2.708
REMARK  Name = 
REMARK  8 active torsions:
REMARK  status: ('A' for Active; 'I' for Inactive)
REMARK    1  A    between atoms: C_1  and  C_2
REMARK    2  A    between atoms: C_5  and  C_6
REMARK    3  A    between atoms: C_7  and  S_8
REMARK    4  A    between atoms: S_8  and  N_11
REMARK    5  A    between atoms: C_15  and  C_16
REMARK    6  A    between atoms: C_16  and  N_17
REMARK    7  A    between atoms: C_18  and  C_20
REMARK    8  A    between atoms: N_22  and  C_23
REMARK                            x       y       z     vdW  Elec       q    Type
REMARK                         _______ _______ _______ _____ _____    ______ ____
ROOT
ATOM      1  N   UNL     1       3.263   3.724  19.488  0.00  0.00    +0.000 NA
ATOM      2  C   UNL     1       3.299   2.595  20.443  0.00  0.00    +0.000 C 
ATOM      3  C   UNL     1       1.842   2.362  20.799  0.00  0.00    +0.000 C 
ATOM      4  C   UNL     1       1.206   3.740  20.753  0.00  0.00    +0.000 C 
ATOM      5  C   UNL     1       2.083   4.588  19.820  0.00  0.00    +0.000 C 
ENDROOT
BRANCH   1   6
ATOM      6  S   UNL     1       3.615   3.389  17.852  0.00  0.00    +0.000 S 
ATOM      7  O   UNL     1       2.685   4.138  17.033  0.00  0.00    +0.000 OA
ATOM      8  O   UNL     1       3.776   1.961  17.710  0.00  0.00    +0.000 OA
BRANCH   6  15
ATOM      9  C   UNL     1       7.796   5.908  19.741  0.00  0.00    +0.000 C 
ATOM     10  C   UNL     1       7.097   5.375  18.525  0.00  0.00    +0.000 A 
ATOM     11  C   UNL     1       7.507   5.734  17.242  0.00  0.00    +0.000 A 
ATOM     12  C   UNL     1       6.800   5.286  16.124  0.00  0.00    +0.000 A 
ATOM     13  C   UNL     1       5.645   4.492  16.264  0.00  0.00    +0.000 A 
ATOM     14  C   UNL     1       4.907   4.097  15.016  0.00  0.00    +0.000 C 
ATOM     15  C   UNL     1       5.215   4.161  17.568  0.00  0.00    +0.000 A 
ATOM     16  C   UNL     1       5.958   4.576  18.680  0.00  0.00    +0.000 A 
ENDBRANCH   6  15
ENDBRANCH   1   6
BRANCH   5  17
ATOM     17  C   UNL     1       2.570   5.880  20.525  0.00  0.00    +0.000 C 
BRANCH  17  18
ATOM     18  N   UNL     1       2.067   7.113  19.931  0.00  0.00    +0.000 N 
ATOM     19  C   UNL     1       2.550   7.651  18.749  0.00  0.00    +0.000 C 
ATOM     20  O   UNL     1       3.474   7.199  18.080  0.00  0.00    +0.000 OA
ATOM     21  H   UNL     1       1.259   7.579  20.335  0.00  0.00    +0.000 HD
BRANCH  19  22
ATOM     22  C   UNL     1       1.826   8.955  18.303  0.00  0.00    +0.000 C 
ATOM     23  O   UNL     1       2.149   9.496  17.256  0.00  0.00    +0.000 OA
ATOM     24  N   UNL     1       0.826   9.378  19.160  0.00  0.00    +0.000 N 
ATOM     25  H   UNL     1       0.737   8.866  20.034  0.00  0.00    +0.000 HD
BRANCH  24  26
ATOM     26  C   UNL     1       0.020  10.560  18.921  0.00  0.00    +0.000 C 
ATOM     27  C   UNL     1      -1.152  10.296  17.980  0.00  0.00    +0.000 C 
ATOM     28  C   UNL     1      -2.076  11.487  18.203  0.00  0.00    +0.000 C 
ATOM     29  C   UNL     1      -1.864  11.905  19.658  0.00  0.00    +0.000 C 
ATOM     30  C   UNL     1      -0.677  11.088  20.175  0.00  0.00    +0.000 C 
ENDBRANCH  24  26
ENDBRANCH  19  22
ENDBRANCH  17  18
ENDBRANCH   5  17
TORSDOF 6
ENDMDL
MODEL 4
REMARK VINA RESULT:      -8.1      1.509      1.967
REMARK  Name = 
REMARK  8 active torsions:
REMARK  status: ('A' for Active; 'I' for Inactive)
REMARK    1  A    between atoms: C_1  and  C_2
REMARK    2  A    between atoms: C_5  and  C_6
REMARK    3  A    between atoms: C_7  and  S_8
REMARK    4  A    between atoms: S_8  and  N_11
REMARK    5  A    between atoms: C_15  and  C_16
REMARK    6  A    between atoms: C_16  and  N_17
REMARK    7  A    between atoms: C_18  and  C_20
REMARK    8  A    between atoms: N_22  and  C_23
REMARK                            x       y       z     vdW  Elec       q    Type
REMARK                         _______ _______ _______ _____ _____    ______ ____
ROOT
ATOM      1  N   UNL     1       2.986   3.658  19.278  0.00  0.00    +0.000 NA
ATOM      2  C   UNL     1       2.718   2.755  20.419  0.00  0.00    +0.000 C 
ATOM      3  C   UNL     1       1.242   2.955  20.712  0.00  0.00    +0.000 C 
ATOM      4  C   UNL     1       0.973   4.411  20.380  0.00  0.00    +0.000 C 
ATOM      5  C   UNL     1       2.054   4.830  19.372  0.00  0.00    +0.000 C 
ENDROOT
BRANCH   1   6
ATOM      6  S   UNL     1       3.276   2.946  17.756  0.00  0.00    +0.000 S 
ATOM      7  O   UNL     1       2.192   3.324  16.872  0.00  0.00    +0.000 OA
ATOM      8  O   UNL     1       3.639   1.565  17.967  0.00  0.00    +0.000 OA
BRANCH   6  15
ATOM      9  C   UNL     1       6.286   4.296  13.693  0.00  0.00    +0.000 C 
ATOM     10  C   UNL     1       6.091   4.345  15.179  0.00  0.00    +0.000 A 
ATOM     11  C   UNL     1       7.118   4.755  16.028  0.00  0.00    +0.000 A 
ATOM     12  C   UNL     1       6.942   4.726  17.413  0.00  0.00    +0.000 A 
ATOM     13  C   UNL     1       5.744   4.256  17.985  0.00  0.00    +0.000 A 
ATOM     14  C   UNL     1       5.653   4.203  19.484  0.00  0.00    +0.000 C 
ATOM     15  C   UNL     1       4.721   3.810  17.120  0.00  0.00    +0.000 A 
ATOM     16  C   UNL     1       4.890   3.887  15.732  0.00  0.00    +0.000 A 
ENDBRANCH   6  15
ENDBRANCH   1   6
BRANCH   5  17
ATOM     17  C   UNL     1       2.835   6.075  19.867  0.00  0.00    +0.000 C 
BRANCH  17  18
ATOM     18  N   UNL     1       2.257   7.348  19.454  0.00  0.00    +0.000 N 
ATOM     19  C   UNL     1       2.588   7.999  18.278  0.00  0.00    +0.000 C 
ATOM     20  O   UNL     1       3.426   7.624  17.462  0.00  0.00    +0.000 OA
ATOM     21  H   UNL     1       1.502   7.762  19.996  0.00  0.00    +0.000 HD
BRANCH  19  22
ATOM     22  C   UNL     1       1.808   9.326  18.044  0.00  0.00    +0.000 C 
ATOM     23  O   UNL     1       2.204  10.117  17.201  0.00  0.00    +0.000 OA
ATOM     24  N   UNL     1       0.680   9.474  18.831  0.00  0.00    +0.000 N 
ATOM     25  H   UNL     1       0.535   8.765  19.545  0.00  0.00    +0.000 HD
BRANCH  24  26
ATOM     26  C   UNL     1      -0.194  10.628  18.758  0.00  0.00    +0.000 C 
ATOM     27  C   UNL     1      -1.426  10.384  17.891  0.00  0.00    +0.000 C 
ATOM     28  C   UNL     1      -2.380  11.504  18.289  0.00  0.00    +0.000 C 
ATOM     29  C   UNL     1      -2.069  11.810  19.754  0.00  0.00    +0.000 C 
ATOM     30  C   UNL     1      -0.810  11.014  20.104  0.00  0.00    +0.000 C 
ENDBRANCH  24  26
ENDBRANCH  19  22
ENDBRANCH  17  18
ENDBRANCH   5  17
TORSDOF 6
ENDMDL
MODEL 5
REMARK VINA RESULT:      -8.0      2.894      6.923
REMARK  Name = 
REMARK  8 active torsions:
REMARK  status: ('A' for Active; 'I' for Inactive)
REMARK    1  A    between atoms: C_1  and  C_2
REMARK    2  A    between atoms: C_5  and  C_6
REMARK    3  A    between atoms: C_7  and  S_8
REMARK    4  A    between atoms: S_8  and  N_11
REMARK    5  A    between atoms: C_15  and  C_16
REMARK    6  A    between atoms: C_16  and  N_17
REMARK    7  A    between atoms: C_18  and  C_20
REMARK    8  A    between atoms: N_22  and  C_23
REMARK                            x       y       z     vdW  Elec       q    Type
REMARK                         _______ _______ _______ _____ _____    ______ ____
ROOT
ATOM      1  N   UNL     1       2.723   4.287  18.612  0.00  0.00    +0.000 NA
ATOM      2  C   UNL     1       1.291   4.331  18.244  0.00  0.00    +0.000 C 
ATOM      3  C   UNL     1       0.745   2.995  18.714  0.00  0.00    +0.000 C 
ATOM      4  C   UNL     1       1.894   2.020  18.532  0.00  0.00    +0.000 C 
ATOM      5  C   UNL     1       3.180   2.858  18.565  0.00  0.00    +0.000 C 
ENDROOT
BRANCH   1   6
ATOM      6  S   UNL     1       3.244   5.285  19.893  0.00  0.00    +0.000 S 
ATOM      7  O   UNL     1       4.685   5.406  19.808  0.00  0.00    +0.000 OA
ATOM      8  O   UNL     1       2.587   4.847  21.101  0.00  0.00    +0.000 OA
BRANCH   6  15
ATOM      9  C   UNL     1       0.088   9.308  21.011  0.00  0.00    +0.000 C 
ATOM     10  C   UNL     1       1.075   8.720  20.047  0.00  0.00    +0.000 A 
ATOM     11  C   UNL     1       1.246   9.256  18.772  0.00  0.00    +0.000 A 
ATOM     12  C   UNL     1       2.117   8.652  17.863  0.00  0.00    +0.000 A 
ATOM     13  C   UNL     1       2.817   7.476  18.196  0.00  0.00    +0.000 A 
ATOM     14  C   UNL     1       3.691   6.855  17.144  0.00  0.00    +0.000 C 
ATOM     15  C   UNL     1       2.613   6.918  19.477  0.00  0.00    +0.000 A 
ATOM     16  C   UNL     1       1.773   7.558  20.398  0.00  0.00    +0.000 A 
ENDBRANCH   6  15
ENDBRANCH   1   6
BRANCH   5  17
ATOM     17  C   UNL     1       4.035   2.629  17.293  0.00  0.00    +0.000 C 
BRANCH  17  18
ATOM     18  N   UNL     1       5.165   3.541  17.157  0.00  0.00    +0.000 N 
ATOM     19  C   UNL     1       5.566   4.098  15.954  0.00  0.00    +0.000 C 
ATOM     20  O   UNL     1       5.065   3.870  14.857  0.00  0.00    +0.000 OA
ATOM     21  H   UNL     1       5.650   3.875  17.986  0.00  0.00    +0.000 HD
BRANCH  19  22
ATOM     22  C   UNL     1       6.777   5.068  16.075  0.00  0.00    +0.000 C 
ATOM     23  O   UNL     1       7.699   4.985  15.277  0.00  0.00    +0.000 OA
ATOM     24  N   UNL     1       6.674   5.987  17.105  0.00  0.00    +0.000 N 
ATOM     25  H   UNL     1       5.884   5.870  17.734  0.00  0.00    +0.000 HD
BRANCH  24  26
ATOM     26  C   UNL     1       7.685   6.989  17.379  0.00  0.00    +0.000 C 
ATOM     27  C   UNL     1       7.153   8.415  17.262  0.00  0.00    +0.000 C 
ATOM     28  C   UNL     1       8.198   9.256  17.985  0.00  0.00    +0.000 C 
ATOM     29  C   UNL     1       8.776   8.349  19.072  0.00  0.00    +0.000 C 
ATOM     30  C   UNL     1       8.209   6.951  18.815  0.00  0.00    +0.000 C 
ENDBRANCH  24  26
ENDBRANCH  19  22
ENDBRANCH  17  18
ENDBRANCH   5  17
TORSDOF 6
ENDMDL
MODEL 6
REMARK VINA RESULT:      -7.8      0.928      1.014
REMARK  Name = 
REMARK  8 active torsions:
REMARK  status: ('A' for Active; 'I' for Inactive)
REMARK    1  A    between atoms: C_1  and  C_2
REMARK    2  A    between atoms: C_5  and  C_6
REMARK    3  A    between atoms: C_7  and  S_8
REMARK    4  A    between atoms: S_8  and  N_11
REMARK    5  A    between atoms: C_15  and  C_16
REMARK    6  A    between atoms: C_16  and  N_17
REMARK    7  A    between atoms: C_18  and  C_20
REMARK    8  A    between atoms: N_22  and  C_23
REMARK                            x       y       z     vdW  Elec       q    Type
REMARK                         _______ _______ _______ _____ _____    ______ ____
ROOT
ATOM      1  N   UNL     1       3.134   4.045  19.289  0.00  0.00    +0.000 NA
ATOM      2  C   UNL     1       2.922   3.373  20.590  0.00  0.00    +0.000 C 
ATOM      3  C   UNL     1       1.444   3.570  20.874  0.00  0.00    +0.000 C 
ATOM      4  C   UNL     1       1.109   4.922  20.271  0.00  0.00    +0.000 C 
ATOM      5  C   UNL     1       2.155   5.176  19.175  0.00  0.00    +0.000 C 
ENDROOT
BRANCH   1   6
ATOM      6  S   UNL     1       3.429   3.061  17.928  0.00  0.00    +0.000 S 
ATOM      7  O   UNL     1       2.294   3.180  17.036  0.00  0.00    +0.000 OA
ATOM      8  O   UNL     1       3.899   1.778  18.394  0.00  0.00    +0.000 OA
BRANCH   6  15
ATOM      9  C   UNL     1       6.045   3.964  13.486  0.00  0.00    +0.000 C 
ATOM     10  C   UNL     1       5.972   4.194  14.966  0.00  0.00    +0.000 A 
ATOM     11  C   UNL     1       7.052   4.729  15.667  0.00  0.00    +0.000 A 
ATOM     12  C   UNL     1       6.993   4.868  17.055  0.00  0.00    +0.000 A 
ATOM     13  C   UNL     1       5.862   4.446  17.782  0.00  0.00    +0.000 A 
ATOM     14  C   UNL     1       5.898   4.577  19.279  0.00  0.00    +0.000 C 
ATOM     15  C   UNL     1       4.786   3.872  17.070  0.00  0.00    +0.000 A 
ATOM     16  C   UNL     1       4.837   3.780  15.673  0.00  0.00    +0.000 A 
ENDBRANCH   6  15
ENDBRANCH   1   6
BRANCH   5  17
ATOM     17  C   UNL     1       2.891   6.523  19.401  0.00  0.00    +0.000 C 
BRANCH  17  18
ATOM     18  N   UNL     1       2.016   7.689  19.412  0.00  0.00    +0.000 N 
ATOM     19  C   UNL     1       1.897   8.573  18.353  0.00  0.00    +0.000 C 
ATOM     20  O   UNL     1       2.530   8.523  17.302  0.00  0.00    +0.000 OA
ATOM     21  H   UNL     1       1.380   7.839  20.191  0.00  0.00    +0.000 HD
BRANCH  19  22
ATOM     22  C   UNL     1       0.872   9.720  18.594  0.00  0.00    +0.000 C 
ATOM     23  O   UNL     1      -0.102   9.822  17.862  0.00  0.00    +0.000 OA
ATOM     24  N   UNL     1       1.163  10.530  19.676  0.00  0.00    +0.000 N 
ATOM     25  H   UNL     1       2.056  10.367  20.133  0.00  0.00    +0.000 HD
BRANCH  24  26
ATOM     26  C   UNL     1       0.327  11.644  20.082  0.00  0.00    +0.000 C 
ATOM     27  C   UNL     1      -0.755  11.240  21.080  0.00  0.00    +0.000 C 
ATOM     28  C   UNL     1      -1.209  12.564  21.683  0.00  0.00    +0.000 C 
ATOM     29  C   UNL     1       0.020  13.473  21.653  0.00  0.00    +0.000 C 
ATOM     30  C   UNL     1       1.087  12.731  20.844  0.00  0.00    +0.000 C 
ENDBRANCH  24  26
ENDBRANCH  19  22
ENDBRANCH  17  18
ENDBRANCH   5  17
TORSDOF 6
ENDMDL
MODEL 7
REMARK VINA RESULT:      -7.8      3.758      8.151
REMARK  Name = 
REMARK  8 active torsions:
REMARK  status: ('A' for Active; 'I' for Inactive)
REMARK    1  A    between atoms: C_1  and  C_2
REMARK    2  A    between atoms: C_5  and  C_6
REMARK    3  A    between atoms: C_7  and  S_8
REMARK    4  A    between atoms: S_8  and  N_11
REMARK    5  A    between atoms: C_15  and  C_16
REMARK    6  A    between atoms: C_16  and  N_17
REMARK    7  A    between atoms: C_18  and  C_20
REMARK    8  A    between atoms: N_22  and  C_23
REMARK                            x       y       z     vdW  Elec       q    Type
REMARK                         _______ _______ _______ _____ _____    ______ ____
ROOT
ATOM      1  N   UNL     1       3.749   2.804  18.184  0.00  0.00    +0.000 NA
ATOM      2  C   UNL     1       4.047   1.355  18.206  0.00  0.00    +0.000 C 
ATOM      3  C   UNL     1       4.257   1.042  19.677  0.00  0.00    +0.000 C 
ATOM      4  C   UNL     1       4.879   2.299  20.257  0.00  0.00    +0.000 C 
ATOM      5  C   UNL     1       4.461   3.452  19.334  0.00  0.00    +0.000 C 
ENDROOT
BRANCH   1   6
ATOM      6  S   UNL     1       2.150   3.277  17.821  0.00  0.00    +0.000 S 
ATOM      7  O   UNL     1       1.250   2.369  18.502  0.00  0.00    +0.000 OA
ATOM      8  O   UNL     1       2.062   3.513  16.400  0.00  0.00    +0.000 OA
BRANCH   6  15
ATOM      9  C   UNL     1       2.784   8.473  17.853  0.00  0.00    +0.000 C 
ATOM     10  C   UNL     1       2.328   7.261  18.611  0.00  0.00    +0.000 A 
ATOM     11  C   UNL     1       2.065   7.322  19.978  0.00  0.00    +0.000 A 
ATOM     12  C   UNL     1       1.712   6.168  20.681  0.00  0.00    +0.000 A 
ATOM     13  C   UNL     1       1.643   4.916  20.038  0.00  0.00    +0.000 A 
ATOM     14  C   UNL     1       1.311   3.713  20.875  0.00  0.00    +0.000 C 
ATOM     15  C   UNL     1       1.945   4.856  18.661  0.00  0.00    +0.000 A 
ATOM     16  C   UNL     1       2.253   6.026  17.955  0.00  0.00    +0.000 A 
ENDBRANCH   6  15
ENDBRANCH   1   6
BRANCH   5  17
ATOM     17  C   UNL     1       5.695   4.229  18.807  0.00  0.00    +0.000 C 
BRANCH  17  18
ATOM     18  N   UNL     1       5.689   4.458  17.368  0.00  0.00    +0.000 N 
ATOM     19  C   UNL     1       6.826   4.421  16.577  0.00  0.00    +0.000 C 
ATOM     20  O   UNL     1       7.972   4.239  16.977  0.00  0.00    +0.000 OA
ATOM     21  H   UNL     1       4.807   4.566  16.874  0.00  0.00    +0.000 HD
BRANCH  19  22
ATOM     22  C   UNL     1       6.556   4.663  15.063  0.00  0.00    +0.000 C 
ATOM     23  O   UNL     1       6.626   5.796  14.611  0.00  0.00    +0.000 OA
ATOM     24  N   UNL     1       6.275   3.517  14.341  0.00  0.00    +0.000 N 
ATOM     25  H   UNL     1       6.169   2.661  14.880  0.00  0.00    +0.000 HD
BRANCH  24  26
ATOM     26  C   UNL     1       6.009   3.520  12.916  0.00  0.00    +0.000 C 
ATOM     27  C   UNL     1       6.404   2.212  12.236  0.00  0.00    +0.000 C 
ATOM     28  C   UNL     1       5.672   2.257  10.901  0.00  0.00    +0.000 C 
ATOM     29  C   UNL     1       4.395   3.059  11.159  0.00  0.00    +0.000 C 
ATOM     30  C   UNL     1       4.524   3.633  12.571  0.00  0.00    +0.000 C 
ENDBRANCH  24  26
ENDBRANCH  19  22
ENDBRANCH  17  18
ENDBRANCH   5  17
TORSDOF 6
ENDMDL
MODEL 8
REMARK VINA RESULT:      -7.7      1.333      1.514
REMARK  Name = 
REMARK  8 active torsions:
REMARK  status: ('A' for Active; 'I' for Inactive)
REMARK    1  A    between atoms: C_1  and  C_2
REMARK    2  A    between atoms: C_5  and  C_6
REMARK    3  A    between atoms: C_7  and  S_8
REMARK    4  A    between atoms: S_8  and  N_11
REMARK    5  A    between atoms: C_15  and  C_16
REMARK    6  A    between atoms: C_16  and  N_17
REMARK    7  A    between atoms: C_18  and  C_20
REMARK    8  A    between atoms: N_22  and  C_23
REMARK                            x       y       z     vdW  Elec       q    Type
REMARK                         _______ _______ _______ _____ _____    ______ ____
ROOT
ATOM      1  N   UNL     1       3.043   3.874  19.321  0.00  0.00    +0.000 NA
ATOM      2  C   UNL     1       2.857   3.124  20.583  0.00  0.00    +0.000 C 
ATOM      3  C   UNL     1       1.382   3.289  20.900  0.00  0.00    +0.000 C 
ATOM      4  C   UNL     1       1.025   4.671  20.383  0.00  0.00    +0.000 C 
ATOM      5  C   UNL     1       2.052   5.000  19.289  0.00  0.00    +0.000 C 
ENDROOT
BRANCH   1   6
ATOM      6  S   UNL     1       3.326   2.975  17.899  0.00  0.00    +0.000 S 
ATOM      7  O   UNL     1       2.199   3.177  17.011  0.00  0.00    +0.000 OA
ATOM      8  O   UNL     1       3.765   1.654  18.282  0.00  0.00    +0.000 OA
BRANCH   6  15
ATOM      9  C   UNL     1       6.075   3.991  13.564  0.00  0.00    +0.000 C 
ATOM     10  C   UNL     1       5.955   4.186  15.046  0.00  0.00    +0.000 A 
ATOM     11  C   UNL     1       7.009   4.710  15.793  0.00  0.00    +0.000 A 
ATOM     12  C   UNL     1       6.906   4.817  17.181  0.00  0.00    +0.000 A 
ATOM     13  C   UNL     1       5.755   4.373  17.862  0.00  0.00    +0.000 A 
ATOM     14  C   UNL     1       5.743   4.470  19.361  0.00  0.00    +0.000 C 
ATOM     15  C   UNL     1       4.705   3.811  17.103  0.00  0.00    +0.000 A 
ATOM     16  C   UNL     1       4.800   3.751  15.707  0.00  0.00    +0.000 A 
ENDBRANCH   6  15
ENDBRANCH   1   6
BRANCH   5  17
ATOM     17  C   UNL     1       2.779   6.338  19.583  0.00  0.00    +0.000 C 
BRANCH  17  18
ATOM     18  N   UNL     1       1.987   7.294  20.347  0.00  0.00    +0.000 N 
ATOM     19  C   UNL     1       1.538   8.502  19.839  0.00  0.00    +0.000 C 
ATOM     20  O   UNL     1       1.776   8.942  18.718  0.00  0.00    +0.000 OA
ATOM     21  H   UNL     1       1.656   7.052  21.277  0.00  0.00    +0.000 HD
BRANCH  19  22
ATOM     22  C   UNL     1       0.681   9.333  20.839  0.00  0.00    +0.000 C 
ATOM     23  O   UNL     1       0.712   9.062  22.030  0.00  0.00    +0.000 OA
ATOM     24  N   UNL     1      -0.043  10.359  20.258  0.00  0.00    +0.000 N 
ATOM     25  H   UNL     1      -0.028  10.400  19.242  0.00  0.00    +0.000 HD
BRANCH  24  26
ATOM     26  C   UNL     1      -0.890  11.260  21.014  0.00  0.00    +0.000 C 
ATOM     27  C   UNL     1      -0.105  12.370  21.708  0.00  0.00    +0.000 C 
ATOM     28  C   UNL     1      -1.167  13.406  22.058  0.00  0.00    +0.000 C 
ATOM     29  C   UNL     1      -2.235  13.284  20.971  0.00  0.00    +0.000 C 
ATOM     30  C   UNL     1      -1.873  12.047  20.146  0.00  0.00    +0.000 C 
ENDBRANCH  24  26
ENDBRANCH  19  22
ENDBRANCH  17  18
ENDBRANCH   5  17
TORSDOF 6
ENDMDL
MODEL 9
REMARK VINA RESULT:      -7.7      1.477      1.803
REMARK  Name = 
REMARK  8 active torsions:
REMARK  status: ('A' for Active; 'I' for Inactive)
REMARK    1  A    between atoms: C_1  and  C_2
REMARK    2  A    between atoms: C_5  and  C_6
REMARK    3  A    between atoms: C_7  and  S_8
REMARK    4  A    between atoms: S_8  and  N_11
REMARK    5  A    between atoms: C_15  and  C_16
REMARK    6  A    between atoms: C_16  and  N_17
REMARK    7  A    between atoms: C_18  and  C_20
REMARK    8  A    between atoms: N_22  and  C_23
REMARK                            x       y       z     vdW  Elec       q    Type
REMARK                         _______ _______ _______ _____ _____    ______ ____
ROOT
ATOM      1  N   UNL     1       3.092   3.868  19.327  0.00  0.00    +0.000 NA
ATOM      2  C   UNL     1       2.887   3.138  20.597  0.00  0.00    +0.000 C 
ATOM      3  C   UNL     1       1.416   3.341  20.909  0.00  0.00    +0.000 C 
ATOM      4  C   UNL     1       1.092   4.725  20.375  0.00  0.00    +0.000 C 
ATOM      5  C   UNL     1       2.128   5.016  19.279  0.00  0.00    +0.000 C 
ENDROOT
BRANCH   1   6
ATOM      6  S   UNL     1       3.356   2.945  17.917  0.00  0.00    +0.000 S 
ATOM      7  O   UNL     1       2.211   3.120  17.047  0.00  0.00    +0.000 OA
ATOM      8  O   UNL     1       3.816   1.635  18.315  0.00  0.00    +0.000 OA
BRANCH   6  15
ATOM      9  C   UNL     1       5.971   3.959  13.498  0.00  0.00    +0.000 C 
ATOM     10  C   UNL     1       5.898   4.153  14.984  0.00  0.00    +0.000 A 
ATOM     11  C   UNL     1       6.976   4.673  15.697  0.00  0.00    +0.000 A 
ATOM     12  C   UNL     1       6.917   4.779  17.088  0.00  0.00    +0.000 A 
ATOM     13  C   UNL     1       5.787   4.337  17.805  0.00  0.00    +0.000 A 
ATOM     14  C   UNL     1       5.822   4.432  19.304  0.00  0.00    +0.000 C 
ATOM     15  C   UNL     1       4.712   3.779  17.078  0.00  0.00    +0.000 A 
ATOM     16  C   UNL     1       4.763   3.720  15.680  0.00  0.00    +0.000 A 
ENDBRANCH   6  15
ENDBRANCH   1   6
BRANCH   5  17
ATOM     17  C   UNL     1       2.885   6.340  19.557  0.00  0.00    +0.000 C 
BRANCH  17  18
ATOM     18  N   UNL     1       2.210   7.532  19.059  0.00  0.00    +0.000 N 
ATOM     19  C   UNL     1       1.594   8.467  19.875  0.00  0.00    +0.000 C 
ATOM     20  O   UNL     1       1.495   8.398  21.096  0.00  0.00    +0.000 OA
ATOM     21  H   UNL     1       2.254   7.764  18.070  0.00  0.00    +0.000 HD
BRANCH  19  22
ATOM     22  C   UNL     1       0.974   9.670  19.107  0.00  0.00    +0.000 C 
ATOM     23  O   UNL     1       0.886   9.628  17.888  0.00  0.00    +0.000 OA
ATOM     24  N   UNL     1       0.541  10.705  19.917  0.00  0.00    +0.000 N 
ATOM     25  H   UNL     1       0.764  10.625  20.905  0.00  0.00    +0.000 HD
BRANCH  24  26
ATOM     26  C   UNL     1      -0.080  11.910  19.402  0.00  0.00    +0.000 C 
ATOM     27  C   UNL     1      -0.884  12.660  20.461  0.00  0.00    +0.000 C 
ATOM     28  C   UNL     1      -1.072  14.049  19.862  0.00  0.00    +0.000 C 
ATOM     29  C   UNL     1       0.163  14.293  18.994  0.00  0.00    +0.000 C 
ATOM     30  C   UNL     1       0.925  12.967  18.943  0.00  0.00    +0.000 C 
ENDBRANCH  24  26
ENDBRANCH  19  22
ENDBRANCH  17  18
ENDBRANCH   5  17
TORSDOF 6
ENDMDL
