MODEL 1
REMARK VINA RESULT:      -8.2      0.000      0.000
REMARK  Name = 
REMARK  3 active torsions:
REMARK  status: ('A' for Active; 'I' for Inactive)
REMARK    1  A    between atoms: C_1  and  N_2
REMARK    2  A    between atoms: N_5  and  C_6
REMARK    3  A    between atoms: C_9  and  N_10
REMARK                            x       y       z     vdW  Elec       q    Type
REMARK                         _______ _______ _______ _____ _____    ______ ____
ROOT
ATOM      1  N   UNL     1       2.152   9.189  18.093  0.00  0.00    +0.000 N 
ATOM      2  C   UNL     1       2.580   7.929  18.284  0.00  0.00    +0.000 A 
ATOM      3  N   UNL     1       3.581   7.484  17.468  0.00  0.00    +0.000 NA
ATOM      4  C   UNL     1       3.728   6.227  17.814  0.00  0.00    +0.000 A 
ATOM      5  N   UNL     1       4.543   5.326  17.232  0.00  0.00    +0.000 N 
ATOM      6  N   UNL     1       2.887   5.946  18.887  0.00  0.00    +0.000 N 
ATOM      7  C   UNL     1       2.809   4.768  19.678  0.00  0.00    +0.000 A 
ATOM      8  C   UNL     1       1.835   4.702  20.677  0.00  0.00    +0.000 A 
ATOM      9  C   UNL     1       1.793   3.580  21.493  0.00  0.00    +0.000 A 
ATOM     10  C   UNL     1       2.716   2.563  21.308  0.00  0.00    +0.000 A 
ATOM     11  C   UNL     1       3.646   2.702  20.293  0.00  0.00    +0.000 A 
ATOM     12  N   UNL     1       3.713   3.770  19.467  0.00  0.00    +0.000 NA
ATOM     13  N   UNL     1       2.120   7.026  19.146  0.00  0.00    +0.000 NA
ATOM     14  H   UNL     1       2.650   9.691  17.371  0.00  0.00    +0.000 HD
ATOM     15  H   UNL     1       5.276   5.660  16.619  0.00  0.00    +0.000 HD
ATOM     16  H   UNL     1       4.741   4.456  17.730  0.00  0.00    +0.000 HD
ENDROOT
BRANCH   1  20
ATOM     17  C   UNL     1      -1.512  11.156  19.040  0.00  0.00    +0.000 A 
ATOM     18  C   UNL     1      -1.420  10.312  17.931  0.00  0.00    +0.000 A 
ATOM     19  C   UNL     1      -0.238   9.622  17.632  0.00  0.00    +0.000 A 
ATOM     20  C   UNL     1       0.907   9.760  18.420  0.00  0.00    +0.000 A 
ATOM     21  C   UNL     1       0.803  10.546  19.568  0.00  0.00    +0.000 A 
ATOM     22  C   UNL     1      -0.381  11.232  19.864  0.00  0.00    +0.000 A 
BRANCH  17  27
ATOM     23  C   UNL     1      -6.368  12.631  21.225  0.00  0.00    +0.000 C 
ATOM     24  N   UNL     1      -5.179  12.822  20.398  0.00  0.00    +0.000 NA
ATOM     25  C   UNL     1      -5.114  11.791  19.333  0.00  0.00    +0.000 C 
ATOM     26  C   UNL     1      -3.834  11.889  18.467  0.00  0.00    +0.000 C 
ATOM     27  N   UNL     1      -2.659  11.852  19.347  0.00  0.00    +0.000 N 
ATOM     28  C   UNL     1      -2.670  12.891  20.387  0.00  0.00    +0.000 C 
ATOM     29  C   UNL     1      -3.954  12.745  21.230  0.00  0.00    +0.000 C 
ENDBRANCH  17  27
ENDBRANCH   1  20
TORSDOF 2
ENDMDL
MODEL 2
REMARK VINA RESULT:      -7.9      2.712      4.501
REMARK  Name = 
REMARK  3 active torsions:
REMARK  status: ('A' for Active; 'I' for Inactive)
REMARK    1  A    between atoms: C_1  and  N_2
REMARK    2  A    between atoms: N_5  and  C_6
REMARK    3  A    between atoms: C_9  and  N_10
REMARK                            x       y       z     vdW  Elec       q    Type
REMARK                         _______ _______ _______ _____ _____    ______ ____
ROOT
ATOM      1  N   UNL     1       1.950   6.476  20.438  0.00  0.00    +0.000 N 
ATOM      2  C   UNL     1       2.869   5.813  19.712  0.00  0.00    +0.000 A 
ATOM      3  N   UNL     1       3.347   4.645  20.235  0.00  0.00    +0.000 NA
ATOM      4  C   UNL     1       4.268   4.276  19.376  0.00  0.00    +0.000 A 
ATOM      5  N   UNL     1       5.095   3.219  19.494  0.00  0.00    +0.000 N 
ATOM      6  N   UNL     1       4.279   5.164  18.305  0.00  0.00    +0.000 N 
ATOM      7  C   UNL     1       5.002   5.085  17.084  0.00  0.00    +0.000 A 
ATOM      8  C   UNL     1       4.888   6.140  16.175  0.00  0.00    +0.000 A 
ATOM      9  C   UNL     1       5.544   6.042  14.955  0.00  0.00    +0.000 A 
ATOM     10  C   UNL     1       6.281   4.905  14.663  0.00  0.00    +0.000 A 
ATOM     11  C   UNL     1       6.348   3.907  15.620  0.00  0.00    +0.000 A 
ATOM     12  N   UNL     1       5.739   3.968  16.824  0.00  0.00    +0.000 NA
ATOM     13  N   UNL     1       3.416   6.172  18.554  0.00  0.00    +0.000 NA
ATOM     14  H   UNL     1       1.686   6.010  21.295  0.00  0.00    +0.000 HD
ATOM     15  H   UNL     1       4.874   2.504  20.176  0.00  0.00    +0.000 HD
ATOM     16  H   UNL     1       5.601   2.903  18.665  0.00  0.00    +0.000 HD
ENDROOT
BRANCH   1  20
ATOM     17  C   UNL     1       0.744  10.561  20.233  0.00  0.00    +0.000 A 
ATOM     18  C   UNL     1       0.824   9.900  21.460  0.00  0.00    +0.000 A 
ATOM     19  C   UNL     1       1.263   8.573  21.551  0.00  0.00    +0.000 A 
ATOM     20  C   UNL     1       1.625   7.846  20.415  0.00  0.00    +0.000 A 
ATOM     21  C   UNL     1       1.614   8.519  19.193  0.00  0.00    +0.000 A 
ATOM     22  C   UNL     1       1.177   9.846  19.108  0.00  0.00    +0.000 A 
BRANCH  17  27
ATOM     23  C   UNL     1       0.305  15.879  18.799  0.00  0.00    +0.000 C 
ATOM     24  N   UNL     1      -0.119  14.652  19.467  0.00  0.00    +0.000 NA
ATOM     25  C   UNL     1       0.897  14.220  20.458  0.00  0.00    +0.000 C 
ATOM     26  C   UNL     1       0.544  12.880  21.149  0.00  0.00    +0.000 C 
ATOM     27  N   UNL     1       0.306  11.861  20.120  0.00  0.00    +0.000 N 
ATOM     28  C   UNL     1      -0.729  12.239  19.147  0.00  0.00    +0.000 C 
ATOM     29  C   UNL     1      -0.328  13.570  18.476  0.00  0.00    +0.000 C 
ENDBRANCH  17  27
ENDBRANCH   1  20
TORSDOF 2
ENDMDL
MODEL 3
REMARK VINA RESULT:      -7.8      1.099      1.099
REMARK  Name = 
REMARK  3 active torsions:
REMARK  status: ('A' for Active; 'I' for Inactive)
REMARK    1  A    between atoms: C_1  and  N_2
REMARK    2  A    between atoms: N_5  and  C_6
REMARK    3  A    between atoms: C_9  and  N_10
REMARK                            x       y       z     vdW  Elec       q    Type
REMARK                         _______ _______ _______ _____ _____    ______ ____
ROOT
ATOM      1  N   UNL     1       2.412   9.053  18.220  0.00  0.00    +0.000 N 
ATOM      2  C   UNL     1       2.750   7.762  18.050  0.00  0.00    +0.000 A 
ATOM      3  N   UNL     1       3.913   7.509  17.380  0.00  0.00    +0.000 NA
ATOM      4  C   UNL     1       3.939   6.200  17.288  0.00  0.00    +0.000 A 
ATOM      5  N   UNL     1       4.853   5.462  16.629  0.00  0.00    +0.000 N 
ATOM      6  N   UNL     1       2.850   5.671  17.973  0.00  0.00    +0.000 N 
ATOM      7  C   UNL     1       2.548   4.312  18.263  0.00  0.00    +0.000 A 
ATOM      8  C   UNL     1       1.354   4.024  18.926  0.00  0.00    +0.000 A 
ATOM      9  C   UNL     1       1.082   2.706  19.265  0.00  0.00    +0.000 A 
ATOM     10  C   UNL     1       1.999   1.714  18.952  0.00  0.00    +0.000 A 
ATOM     11  C   UNL     1       3.156   2.082  18.289  0.00  0.00    +0.000 A 
ATOM     12  N   UNL     1       3.454   3.350  17.927  0.00  0.00    +0.000 NA
ATOM     13  N   UNL     1       2.068   6.680  18.413  0.00  0.00    +0.000 NA
ATOM     14  H   UNL     1       3.088   9.710  17.853  0.00  0.00    +0.000 HD
ATOM     15  H   UNL     1       5.724   5.900  16.356  0.00  0.00    +0.000 HD
ATOM     16  H   UNL     1       4.900   4.460  16.823  0.00  0.00    +0.000 HD
ENDROOT
BRANCH   1  20
ATOM     17  C   UNL     1      -1.339  10.990  18.824  0.00  0.00    +0.000 A 
ATOM     18  C   UNL     1      -1.152  10.113  17.754  0.00  0.00    +0.000 A 
ATOM     19  C   UNL     1       0.058   9.433  17.567  0.00  0.00    +0.000 A 
ATOM     20  C   UNL     1       1.138   9.614  18.434  0.00  0.00    +0.000 A 
ATOM     21  C   UNL     1       0.938  10.434  19.545  0.00  0.00    +0.000 A 
ATOM     22  C   UNL     1      -0.274  11.110  19.728  0.00  0.00    +0.000 A 
BRANCH  17  27
ATOM     23  C   UNL     1      -6.352  12.471  20.614  0.00  0.00    +0.000 C 
ATOM     24  N   UNL     1      -5.115  12.645  19.858  0.00  0.00    +0.000 NA
ATOM     25  C   UNL     1      -4.962  11.566  18.852  0.00  0.00    +0.000 C 
ATOM     26  C   UNL     1      -3.630  11.648  18.066  0.00  0.00    +0.000 C 
ATOM     27  N   UNL     1      -2.515  11.677  19.021  0.00  0.00    +0.000 N 
ATOM     28  C   UNL     1      -2.612  12.764  20.005  0.00  0.00    +0.000 C 
ATOM     29  C   UNL     1      -3.946  12.634  20.770  0.00  0.00    +0.000 C 
ENDBRANCH  17  27
ENDBRANCH   1  20
TORSDOF 2
ENDMDL
MODEL 4
REMARK VINA RESULT:      -7.8      3.449      9.515
REMARK  Name = 
REMARK  3 active torsions:
REMARK  status: ('A' for Active; 'I' for Inactive)
REMARK    1  A    between atoms: C_1  and  N_2
REMARK    2  A    between atoms: N_5  and  C_6
REMARK    3  A    between atoms: C_9  and  N_10
REMARK                            x       y       z     vdW  Elec       q    Type
REMARK                         _______ _______ _______ _____ _____    ______ ____
ROOT
ATOM      1  N   UNL     1       0.382  10.424  19.801  0.00  0.00    +0.000 N 
ATOM      2  C   UNL     1       0.601  11.705  19.453  0.00  0.00    +0.000 A 
ATOM      3  N   UNL     1      -0.490  12.524  19.384  0.00  0.00    +0.000 NA
ATOM      4  C   UNL     1       0.001  13.659  18.946  0.00  0.00    +0.000 A 
ATOM      5  N   UNL     1      -0.698  14.765  18.627  0.00  0.00    +0.000 N 
ATOM      6  N   UNL     1       1.385  13.549  18.841  0.00  0.00    +0.000 N 
ATOM      7  C   UNL     1       2.343  14.557  18.549  0.00  0.00    +0.000 A 
ATOM      8  C   UNL     1       3.686  14.186  18.443  0.00  0.00    +0.000 A 
ATOM      9  C   UNL     1       4.634  15.175  18.218  0.00  0.00    +0.000 A 
ATOM     10  C   UNL     1       4.233  16.498  18.115  0.00  0.00    +0.000 A 
ATOM     11  C   UNL     1       2.883  16.781  18.225  0.00  0.00    +0.000 A 
ATOM     12  N   UNL     1       1.926  15.849  18.430  0.00  0.00    +0.000 NA
ATOM     13  N   UNL     1       1.752  12.280  19.118  0.00  0.00    +0.000 NA
ATOM     14  H   UNL     1      -0.585  10.211  20.008  0.00  0.00    +0.000 HD
ATOM     15  H   UNL     1      -1.658  14.840  18.944  0.00  0.00    +0.000 HD
ATOM     16  H   UNL     1      -0.194  15.647  18.524  0.00  0.00    +0.000 HD
ENDROOT
BRANCH   1  20
ATOM     17  C   UNL     1       2.536   6.831  19.002  0.00  0.00    +0.000 A 
ATOM     18  C   UNL     1       2.390   7.811  18.019  0.00  0.00    +0.000 A 
ATOM     19  C   UNL     1       1.726   9.017  18.277  0.00  0.00    +0.000 A 
ATOM     20  C   UNL     1       1.165   9.287  19.528  0.00  0.00    +0.000 A 
ATOM     21  C   UNL     1       1.365   8.344  20.536  0.00  0.00    +0.000 A 
ATOM     22  C   UNL     1       2.032   7.141  20.273  0.00  0.00    +0.000 A 
BRANCH  17  27
ATOM     23  C   UNL     1       3.595   1.446  18.370  0.00  0.00    +0.000 C 
ATOM     24  N   UNL     1       3.929   2.867  18.362  0.00  0.00    +0.000 NA
ATOM     25  C   UNL     1       3.766   3.449  19.716  0.00  0.00    +0.000 C 
ATOM     26  C   UNL     1       4.030   4.975  19.761  0.00  0.00    +0.000 C 
ATOM     27  N   UNL     1       3.175   5.635  18.767  0.00  0.00    +0.000 N 
ATOM     28  C   UNL     1       3.345   5.112  17.404  0.00  0.00    +0.000 C 
ATOM     29  C   UNL     1       3.059   3.596  17.408  0.00  0.00    +0.000 C 
ENDBRANCH  17  27
ENDBRANCH   1  20
TORSDOF 2
ENDMDL
MODEL 5
REMARK VINA RESULT:      -7.7      0.509      1.039
REMARK  Name = 
REMARK  3 active torsions:
REMARK  status: ('A' for Active; 'I' for Inactive)
REMARK    1  A    between atoms: C_1  and  N_2
REMARK    2  A    between atoms: N_5  and  C_6
REMARK    3  A    between atoms: C_9  and  N_10
REMARK                            x       y       z     vdW  Elec       q    Type
REMARK                         _______ _______ _______ _____ _____    ______ ____
ROOT
ATOM      1  N   UNL     1       2.483   9.243  17.962  0.00  0.00    +0.000 N 
ATOM      2  C   UNL     1       2.738   7.935  18.146  0.00  0.00    +0.000 A 
ATOM      3  N   UNL     1       3.759   7.395  17.416  0.00  0.00    +0.000 NA
ATOM      4  C   UNL     1       3.721   6.120  17.726  0.00  0.00    +0.000 A 
ATOM      5  N   UNL     1       4.480   5.143  17.193  0.00  0.00    +0.000 N 
ATOM      6  N   UNL     1       2.748   5.914  18.699  0.00  0.00    +0.000 N 
ATOM      7  C   UNL     1       2.451   4.733  19.433  0.00  0.00    +0.000 A 
ATOM      8  C   UNL     1       1.379   4.759  20.327  0.00  0.00    +0.000 A 
ATOM      9  C   UNL     1       1.122   3.629  21.091  0.00  0.00    +0.000 A 
ATOM     10  C   UNL     1       1.934   2.513  20.960  0.00  0.00    +0.000 A 
ATOM     11  C   UNL     1       2.972   2.566  20.046  0.00  0.00    +0.000 A 
ATOM     12  N   UNL     1       3.249   3.640  19.273  0.00  0.00    +0.000 NA
ATOM     13  N   UNL     1       2.090   7.072  18.923  0.00  0.00    +0.000 NA
ATOM     14  H   UNL     1       3.108   9.699  17.313  0.00  0.00    +0.000 HD
ATOM     15  H   UNL     1       5.306   5.403  16.668  0.00  0.00    +0.000 HD
ATOM     16  H   UNL     1       4.522   4.243  17.674  0.00  0.00    +0.000 HD
ENDROOT
BRANCH   1  20
ATOM     17  C   UNL     1      -1.231  11.174  18.777  0.00  0.00    +0.000 A 
ATOM     18  C   UNL     1      -0.039  11.665  19.310  0.00  0.00    +0.000 A 
ATOM     19  C   UNL     1       1.196  11.071  19.016  0.00  0.00    +0.000 A 
ATOM     20  C   UNL     1       1.286   9.950  18.188  0.00  0.00    +0.000 A 
ATOM     21  C   UNL     1       0.108   9.494  17.595  0.00  0.00    +0.000 A 
ATOM     22  C   UNL     1      -1.122  10.093  17.891  0.00  0.00    +0.000 A 
BRANCH  17  27
ATOM     23  C   UNL     1      -6.267  12.083  20.861  0.00  0.00    +0.000 C 
ATOM     24  N   UNL     1      -5.090  12.409  20.061  0.00  0.00    +0.000 NA
ATOM     25  C   UNL     1      -4.887  11.397  18.996  0.00  0.00    +0.000 C 
ATOM     26  C   UNL     1      -3.608  11.642  18.157  0.00  0.00    +0.000 C 
ATOM     27  N   UNL     1      -2.456  11.734  19.061  0.00  0.00    +0.000 N 
ATOM     28  C   UNL     1      -2.605  12.761  20.102  0.00  0.00    +0.000 C 
ATOM     29  C   UNL     1      -3.882  12.468  20.918  0.00  0.00    +0.000 C 
ENDBRANCH  17  27
ENDBRANCH   1  20
TORSDOF 2
ENDMDL
MODEL 6
REMARK VINA RESULT:      -7.7      2.471      4.169
REMARK  Name = 
REMARK  3 active torsions:
REMARK  status: ('A' for Active; 'I' for Inactive)
REMARK    1  A    between atoms: C_1  and  N_2
REMARK    2  A    between atoms: N_5  and  C_6
REMARK    3  A    between atoms: C_9  and  N_10
REMARK                            x       y       z     vdW  Elec       q    Type
REMARK                         _______ _______ _______ _____ _____    ______ ____
ROOT
ATOM      1  N   UNL     1       1.895   6.485  20.482  0.00  0.00    +0.000 N 
ATOM      2  C   UNL     1       2.807   5.818  19.751  0.00  0.00    +0.000 A 
ATOM      3  N   UNL     1       3.252   4.628  20.252  0.00  0.00    +0.000 NA
ATOM      4  C   UNL     1       4.175   4.257  19.396  0.00  0.00    +0.000 A 
ATOM      5  N   UNL     1       4.976   3.179  19.499  0.00  0.00    +0.000 N 
ATOM      6  N   UNL     1       4.218   5.169  18.345  0.00  0.00    +0.000 N 
ATOM      7  C   UNL     1       4.954   5.101  17.131  0.00  0.00    +0.000 A 
ATOM      8  C   UNL     1       4.874   6.178  16.246  0.00  0.00    +0.000 A 
ATOM      9  C   UNL     1       5.541   6.092  15.031  0.00  0.00    +0.000 A 
ATOM     10  C   UNL     1       6.256   4.946  14.721  0.00  0.00    +0.000 A 
ATOM     11  C   UNL     1       6.289   3.925  15.655  0.00  0.00    +0.000 A 
ATOM     12  N   UNL     1       5.667   3.973  16.854  0.00  0.00    +0.000 NA
ATOM     13  N   UNL     1       3.376   6.190  18.608  0.00  0.00    +0.000 NA
ATOM     14  H   UNL     1       1.611   6.006  21.325  0.00  0.00    +0.000 HD
ATOM     15  H   UNL     1       4.731   2.454  20.162  0.00  0.00    +0.000 HD
ATOM     16  H   UNL     1       5.484   2.870  18.669  0.00  0.00    +0.000 HD
ENDROOT
BRANCH   1  20
ATOM     17  C   UNL     1       0.779  10.599  20.366  0.00  0.00    +0.000 A 
ATOM     18  C   UNL     1       0.874   9.919  21.581  0.00  0.00    +0.000 A 
ATOM     19  C   UNL     1       1.284   8.580  21.642  0.00  0.00    +0.000 A 
ATOM     20  C   UNL     1       1.601   7.862  20.487  0.00  0.00    +0.000 A 
ATOM     21  C   UNL     1       1.576   8.553  19.275  0.00  0.00    +0.000 A 
ATOM     22  C   UNL     1       1.168   9.891  19.220  0.00  0.00    +0.000 A 
BRANCH  17  27
ATOM     23  C   UNL     1      -1.630  15.456  21.430  0.00  0.00    +0.000 C 
ATOM     24  N   UNL     1      -0.779  14.542  20.674  0.00  0.00    +0.000 NA
ATOM     25  C   UNL     1      -1.574  13.406  20.146  0.00  0.00    +0.000 C 
ATOM     26  C   UNL     1      -0.715  12.356  19.399  0.00  0.00    +0.000 C 
ATOM     27  N   UNL     1       0.369  11.910  20.282  0.00  0.00    +0.000 N 
ATOM     28  C   UNL     1       1.205  13.009  20.787  0.00  0.00    +0.000 C 
ATOM     29  C   UNL     1       0.310  14.020  21.534  0.00  0.00    +0.000 C 
ENDBRANCH  17  27
ENDBRANCH   1  20
TORSDOF 2
ENDMDL
MODEL 7
REMARK VINA RESULT:      -7.6      3.325      9.720
REMARK  Name = 
REMARK  3 active torsions:
REMARK  status: ('A' for Active; 'I' for Inactive)
REMARK    1  A    between atoms: C_1  and  N_2
REMARK    2  A    between atoms: N_5  and  C_6
REMARK    3  A    between atoms: C_9  and  N_10
REMARK                            x       y       z     vdW  Elec       q    Type
REMARK                         _______ _______ _______ _____ _____    ______ ____
ROOT
ATOM      1  N   UNL     1       0.503   9.994  19.900  0.00  0.00    +0.000 N 
ATOM      2  C   UNL     1       0.534  11.306  19.607  0.00  0.00    +0.000 A 
ATOM      3  N   UNL     1      -0.615  12.015  19.814  0.00  0.00    +0.000 NA
ATOM      4  C   UNL     1      -0.324  13.215  19.369  0.00  0.00    +0.000 A 
ATOM      5  N   UNL     1      -1.167  14.260  19.274  0.00  0.00    +0.000 N 
ATOM      6  N   UNL     1       1.013  13.248  18.984  0.00  0.00    +0.000 N 
ATOM      7  C   UNL     1       1.801  14.360  18.579  0.00  0.00    +0.000 A 
ATOM      8  C   UNL     1       3.120  14.130  18.183  0.00  0.00    +0.000 A 
ATOM      9  C   UNL     1       3.913  15.219  17.845  0.00  0.00    +0.000 A 
ATOM     10  C   UNL     1       3.386  16.499  17.917  0.00  0.00    +0.000 A 
ATOM     11  C   UNL     1       2.068  16.641  18.313  0.00  0.00    +0.000 A 
ATOM     12  N   UNL     1       1.257  15.609  18.637  0.00  0.00    +0.000 NA
ATOM     13  N   UNL     1       1.539  12.009  19.092  0.00  0.00    +0.000 NA
ATOM     14  H   UNL     1      -0.379   9.675  20.278  0.00  0.00    +0.000 HD
ATOM     15  H   UNL     1      -2.044  14.223  19.779  0.00  0.00    +0.000 HD
ATOM     16  H   UNL     1      -0.773  15.192  19.136  0.00  0.00    +0.000 HD
ENDROOT
BRANCH   1  20
ATOM     17  C   UNL     1       3.151   7.020  18.372  0.00  0.00    +0.000 A 
ATOM     18  C   UNL     1       2.584   6.888  19.641  0.00  0.00    +0.000 A 
ATOM     19  C   UNL     1       1.676   7.831  20.140  0.00  0.00    +0.000 A 
ATOM     20  C   UNL     1       1.310   8.955  19.396  0.00  0.00    +0.000 A 
ATOM     21  C   UNL     1       1.817   9.059  18.101  0.00  0.00    +0.000 A 
ATOM     22  C   UNL     1       2.722   8.113  17.606  0.00  0.00    +0.000 A 
BRANCH  17  27
ATOM     23  C   UNL     1       5.958   3.714  14.950  0.00  0.00    +0.000 C 
ATOM     24  N   UNL     1       5.665   4.340  16.235  0.00  0.00    +0.000 NA
ATOM     25  C   UNL     1       4.307   3.966  16.700  0.00  0.00    +0.000 C 
ATOM     26  C   UNL     1       3.901   4.660  18.024  0.00  0.00    +0.000 C 
ATOM     27  N   UNL     1       4.052   6.111  17.866  0.00  0.00    +0.000 N 
ATOM     28  C   UNL     1       5.401   6.521  17.450  0.00  0.00    +0.000 C 
ATOM     29  C   UNL     1       5.754   5.816  16.123  0.00  0.00    +0.000 C 
ENDBRANCH  17  27
ENDBRANCH   1  20
TORSDOF 2
ENDMDL
MODEL 8
REMARK VINA RESULT:      -7.6      2.805      4.442
REMARK  Name = 
REMARK  3 active torsions:
REMARK  status: ('A' for Active; 'I' for Inactive)
REMARK    1  A    between atoms: C_1  and  N_2
REMARK    2  A    between atoms: N_5  and  C_6
REMARK    3  A    between atoms: C_9  and  N_10
REMARK                            x       y       z     vdW  Elec       q    Type
REMARK                         _______ _______ _______ _____ _____    ______ ____
ROOT
ATOM      1  N   UNL     1       1.907   6.496  20.420  0.00  0.00    +0.000 N 
ATOM      2  C   UNL     1       2.848   5.848  19.708  0.00  0.00    +0.000 A 
ATOM      3  N   UNL     1       3.363   4.708  20.257  0.00  0.00    +0.000 NA
ATOM      4  C   UNL     1       4.297   4.350  19.407  0.00  0.00    +0.000 A 
ATOM      5  N   UNL     1       5.158   3.324  19.548  0.00  0.00    +0.000 N 
ATOM      6  N   UNL     1       4.280   5.215  18.317  0.00  0.00    +0.000 N 
ATOM      7  C   UNL     1       5.007   5.134  17.098  0.00  0.00    +0.000 A 
ATOM      8  C   UNL     1       4.860   6.165  16.167  0.00  0.00    +0.000 A 
ATOM      9  C   UNL     1       5.520   6.061  14.950  0.00  0.00    +0.000 A 
ATOM     10  C   UNL     1       6.294   4.943  14.682  0.00  0.00    +0.000 A 
ATOM     11  C   UNL     1       6.393   3.969  15.660  0.00  0.00    +0.000 A 
ATOM     12  N   UNL     1       5.780   4.036  16.863  0.00  0.00    +0.000 NA
ATOM     13  N   UNL     1       3.385   6.200  18.544  0.00  0.00    +0.000 NA
ATOM     14  H   UNL     1       1.658   6.040  21.287  0.00  0.00    +0.000 HD
ATOM     15  H   UNL     1       4.959   2.617  20.245  0.00  0.00    +0.000 HD
ATOM     16  H   UNL     1       5.675   3.006  18.726  0.00  0.00    +0.000 HD
ENDROOT
BRANCH   1  20
ATOM     17  C   UNL     1       1.010  10.665  20.394  0.00  0.00    +0.000 A 
ATOM     18  C   UNL     1       1.264   9.981  19.204  0.00  0.00    +0.000 A 
ATOM     19  C   UNL     1       1.515   8.603  19.189  0.00  0.00    +0.000 A 
ATOM     20  C   UNL     1       1.537   7.854  20.367  0.00  0.00    +0.000 A 
ATOM     21  C   UNL     1       1.217   8.514  21.553  0.00  0.00    +0.000 A 
ATOM     22  C   UNL     1       0.965   9.891  21.562  0.00  0.00    +0.000 A 
BRANCH  17  27
ATOM     23  C   UNL     1      -0.276  15.844  18.961  0.00  0.00    +0.000 C 
ATOM     24  N   UNL     1       0.106  14.788  19.894  0.00  0.00    +0.000 NA
ATOM     25  C   UNL     1       1.415  14.204  19.514  0.00  0.00    +0.000 C 
ATOM     26  C   UNL     1       1.843  13.023  20.420  0.00  0.00    +0.000 C 
ATOM     27  N   UNL     1       0.771  12.020  20.434  0.00  0.00    +0.000 N 
ATOM     28  C   UNL     1      -0.532  12.557  20.851  0.00  0.00    +0.000 C 
ATOM     29  C   UNL     1      -0.921  13.719  19.913  0.00  0.00    +0.000 C 
ENDBRANCH  17  27
ENDBRANCH   1  20
TORSDOF 2
ENDMDL
MODEL 9
REMARK VINA RESULT:      -7.5      3.319      9.779
REMARK  Name = 
REMARK  3 active torsions:
REMARK  status: ('A' for Active; 'I' for Inactive)
REMARK    1  A    between atoms: C_1  and  N_2
REMARK    2  A    between atoms: N_5  and  C_6
REMARK    3  A    between atoms: C_9  and  N_10
REMARK                            x       y       z     vdW  Elec       q    Type
REMARK                         _______ _______ _______ _____ _____    ______ ____
ROOT
ATOM      1  N   UNL     1       0.291  10.223  20.109  0.00  0.00    +0.000 N 
ATOM      2  C   UNL     1       0.288  11.530  19.790  0.00  0.00    +0.000 A 
ATOM      3  N   UNL     1      -0.870  12.219  20.014  0.00  0.00    +0.000 NA
ATOM      4  C   UNL     1      -0.616  13.415  19.538  0.00  0.00    +0.000 A 
ATOM      5  N   UNL     1      -1.483  14.442  19.446  0.00  0.00    +0.000 N 
ATOM      6  N   UNL     1       0.709  13.468  19.116  0.00  0.00    +0.000 N 
ATOM      7  C   UNL     1       1.462  14.588  18.669  0.00  0.00    +0.000 A 
ATOM      8  C   UNL     1       2.775  14.377  18.242  0.00  0.00    +0.000 A 
ATOM      9  C   UNL     1       3.536  15.474  17.861  0.00  0.00    +0.000 A 
ATOM     10  C   UNL     1       2.985  16.745  17.923  0.00  0.00    +0.000 A 
ATOM     11  C   UNL     1       1.675  16.868  18.352  0.00  0.00    +0.000 A 
ATOM     12  N   UNL     1       0.895  15.826  18.717  0.00  0.00    +0.000 NA
ATOM     13  N   UNL     1       1.263  12.242  19.234  0.00  0.00    +0.000 NA
ATOM     14  H   UNL     1      -0.573   9.894  20.518  0.00  0.00    +0.000 HD
ATOM     15  H   UNL     1      -2.345  14.397  19.975  0.00  0.00    +0.000 HD
ATOM     16  H   UNL     1      -1.112  15.378  19.279  0.00  0.00    +0.000 HD
ENDROOT
BRANCH   1  20
ATOM     17  C   UNL     1       2.959   7.273  18.570  0.00  0.00    +0.000 A 
ATOM     18  C   UNL     1       2.421   7.151  19.852  0.00  0.00    +0.000 A 
ATOM     19  C   UNL     1       1.508   8.085  20.357  0.00  0.00    +0.000 A 
ATOM     20  C   UNL     1       1.106   9.191  19.604  0.00  0.00    +0.000 A 
ATOM     21  C   UNL     1       1.584   9.285  18.297  0.00  0.00    +0.000 A 
ATOM     22  C   UNL     1       2.495   8.346  17.797  0.00  0.00    +0.000 A 
BRANCH  17  27
ATOM     23  C   UNL     1       7.606   4.471  17.532  0.00  0.00    +0.000 C 
ATOM     24  N   UNL     1       6.182   4.763  17.396  0.00  0.00    +0.000 NA
ATOM     25  C   UNL     1       5.980   6.121  16.834  0.00  0.00    +0.000 C 
ATOM     26  C   UNL     1       4.487   6.524  16.737  0.00  0.00    +0.000 C 
ATOM     27  N   UNL     1       3.865   6.373  18.058  0.00  0.00    +0.000 N 
ATOM     28  C   UNL     1       4.009   5.024  18.624  0.00  0.00    +0.000 C 
ATOM     29  C   UNL     1       5.509   4.672  18.714  0.00  0.00    +0.000 C 
ENDBRANCH  17  27
ENDBRANCH   1  20
TORSDOF 2
ENDMDL
