MODEL 1
REMARK VINA RESULT:      -6.7      0.000      0.000
REMARK  Name = 
REMARK  9 active torsions:
REMARK  status: ('A' for Active; 'I' for Inactive)
REMARK    1  A    between atoms: N_1  and  C_2
REMARK    2  A    between atoms: N_10  and  C_11
REMARK    3  A    between atoms: C_11  and  C_12
REMARK    4  A    between atoms: C_12  and  C_13
REMARK    5  A    between atoms: C_13  and  C_14
REMARK    6  A    between atoms: C_14  and  C_15
REMARK    7  A    between atoms: C_15  and  C_16
REMARK    8  A    between atoms: C_16  and  C_17
REMARK    9  A    between atoms: C_17  and  O_19
REMARK                            x       y       z     vdW  Elec       q    Type
REMARK                         _______ _______ _______ _____ _____    ______ ____
ROOT
ATOM      1  C   UNL     1       7.561   7.349  17.728  0.00  0.00    +0.000 A 
ATOM      2  N   UNL     1       8.173   6.804  18.804  0.00  0.00    +0.000 NA
ATOM      3  C   UNL     1       7.814   5.555  19.181  0.00  0.00    +0.000 A 
ATOM      4  N   UNL     1       6.907   4.734  18.613  0.00  0.00    +0.000 NA
ATOM      5  C   UNL     1       6.343   5.317  17.541  0.00  0.00    +0.000 A 
ATOM      6  C   UNL     1       6.611   6.579  17.035  0.00  0.00    +0.000 A 
ATOM      7  N   UNL     1       5.853   6.827  15.906  0.00  0.00    +0.000 NA
ATOM      8  C   UNL     1       5.120   5.745  15.750  0.00  0.00    +0.000 A 
ATOM      9  N   UNL     1       5.377   4.808  16.717  0.00  0.00    +0.000 N 
ENDROOT
BRANCH   1  10
ATOM     10  N   UNL     1       7.903   8.645  17.363  0.00  0.00    +0.000 N 
ATOM     11  H   UNL     1       7.153   9.305  17.508  0.00  0.00    +0.000 HD
ATOM     12  H   UNL     1       8.842   8.913  17.634  0.00  0.00    +0.000 HD
ENDBRANCH   1  10
BRANCH   9  13
ATOM     13  C   UNL     1       4.713   3.528  16.855  0.00  0.00    +0.000 C 
BRANCH  13  14
ATOM     14  C   UNL     1       3.929   3.426  18.160  0.00  0.00    +0.000 C 
BRANCH  14  15
ATOM     15  C   UNL     1       3.320   2.037  18.352  0.00  0.00    +0.000 C 
BRANCH  15  16
ATOM     16  C   UNL     1       1.795   2.118  18.459  0.00  0.00    +0.000 C 
BRANCH  16  17
ATOM     17  C   UNL     1       1.335   3.486  18.965  0.00  0.00    +0.000 C 
BRANCH  17  18
ATOM     18  C   UNL     1       0.888   3.421  20.425  0.00  0.00    +0.000 C 
BRANCH  18  19
ATOM     19  C   UNL     1       2.039   3.666  21.375  0.00  0.00    +0.000 C 
ATOM     20  O   UNL     1       2.572   2.821  22.072  0.00  0.00    +0.000 OA
BRANCH  19  21
ATOM     21  O   UNL     1       2.437   4.960  21.374  0.00  0.00    +0.000 OA
ATOM     22  H   UNL     1       3.360   5.090  21.662  0.00  0.00    +0.000 HD
ENDBRANCH  19  21
ENDBRANCH  18  19
ENDBRANCH  17  18
ENDBRANCH  16  17
ENDBRANCH  15  16
ENDBRANCH  14  15
ENDBRANCH  13  14
ENDBRANCH   9  13
TORSDOF 9
ENDMDL
MODEL 2
REMARK VINA RESULT:      -6.4      1.768      2.753
REMARK  Name = 
REMARK  9 active torsions:
REMARK  status: ('A' for Active; 'I' for Inactive)
REMARK    1  A    between atoms: N_1  and  C_2
REMARK    2  A    between atoms: N_10  and  C_11
REMARK    3  A    between atoms: C_11  and  C_12
REMARK    4  A    between atoms: C_12  and  C_13
REMARK    5  A    between atoms: C_13  and  C_14
REMARK    6  A    between atoms: C_14  and  C_15
REMARK    7  A    between atoms: C_15  and  C_16
REMARK    8  A    between atoms: C_16  and  C_17
REMARK    9  A    between atoms: C_17  and  O_19
REMARK                            x       y       z     vdW  Elec       q    Type
REMARK                         _______ _______ _______ _____ _____    ______ ____
ROOT
ATOM      1  C   UNL     1       7.339   4.625  17.345  0.00  0.00    +0.000 A 
ATOM      2  N   UNL     1       7.370   4.865  16.014  0.00  0.00    +0.000 NA
ATOM      3  C   UNL     1       6.251   5.340  15.423  0.00  0.00    +0.000 A 
ATOM      4  N   UNL     1       5.062   5.635  15.988  0.00  0.00    +0.000 NA
ATOM      5  C   UNL     1       5.092   5.396  17.310  0.00  0.00    +0.000 A 
ATOM      6  C   UNL     1       6.159   4.916  18.051  0.00  0.00    +0.000 A 
ATOM      7  N   UNL     1       5.825   4.820  19.389  0.00  0.00    +0.000 NA
ATOM      8  C   UNL     1       4.569   5.208  19.449  0.00  0.00    +0.000 A 
ATOM      9  N   UNL     1       4.082   5.559  18.217  0.00  0.00    +0.000 N 
ENDROOT
BRANCH   1  10
ATOM     10  N   UNL     1       8.477   4.102  17.946  0.00  0.00    +0.000 N 
ATOM     11  H   UNL     1       9.230   4.772  18.012  0.00  0.00    +0.000 HD
ATOM     12  H   UNL     1       8.285   3.511  18.745  0.00  0.00    +0.000 HD
ENDBRANCH   1  10
BRANCH   9  13
ATOM     13  C   UNL     1       2.728   5.989  17.933  0.00  0.00    +0.000 C 
BRANCH  13  14
ATOM     14  C   UNL     1       1.793   4.810  17.680  0.00  0.00    +0.000 C 
BRANCH  14  15
ATOM     15  C   UNL     1       2.561   3.548  17.286  0.00  0.00    +0.000 C 
BRANCH  15  16
ATOM     16  C   UNL     1       2.356   2.437  18.319  0.00  0.00    +0.000 C 
BRANCH  16  17
ATOM     17  C   UNL     1       0.995   2.548  19.008  0.00  0.00    +0.000 C 
BRANCH  17  18
ATOM     18  C   UNL     1       1.112   2.330  20.517  0.00  0.00    +0.000 C 
BRANCH  18  19
ATOM     19  C   UNL     1       1.673   3.546  21.218  0.00  0.00    +0.000 C 
ATOM     20  O   UNL     1       1.417   4.704  20.939  0.00  0.00    +0.000 OA
BRANCH  19  21
ATOM     21  O   UNL     1       2.515   3.213  22.225  0.00  0.00    +0.000 OA
ATOM     22  H   UNL     1       2.077   2.770  22.976  0.00  0.00    +0.000 HD
ENDBRANCH  19  21
ENDBRANCH  18  19
ENDBRANCH  17  18
ENDBRANCH  16  17
ENDBRANCH  15  16
ENDBRANCH  14  15
ENDBRANCH  13  14
ENDBRANCH   9  13
TORSDOF 9
ENDMDL
MODEL 3
REMARK VINA RESULT:      -6.4      1.398      2.312
REMARK  Name = 
REMARK  9 active torsions:
REMARK  status: ('A' for Active; 'I' for Inactive)
REMARK    1  A    between atoms: N_1  and  C_2
REMARK    2  A    between atoms: N_10  and  C_11
REMARK    3  A    between atoms: C_11  and  C_12
REMARK    4  A    between atoms: C_12  and  C_13
REMARK    5  A    between atoms: C_13  and  C_14
REMARK    6  A    between atoms: C_14  and  C_15
REMARK    7  A    between atoms: C_15  and  C_16
REMARK    8  A    between atoms: C_16  and  C_17
REMARK    9  A    between atoms: C_17  and  O_19
REMARK                            x       y       z     vdW  Elec       q    Type
REMARK                         _______ _______ _______ _____ _____    ______ ____
ROOT
ATOM      1  C   UNL     1       7.430   6.178  17.974  0.00  0.00    +0.000 A 
ATOM      2  N   UNL     1       7.621   6.277  16.638  0.00  0.00    +0.000 NA
ATOM      3  C   UNL     1       6.861   5.511  15.824  0.00  0.00    +0.000 A 
ATOM      4  N   UNL     1       5.891   4.635  16.157  0.00  0.00    +0.000 NA
ATOM      5  C   UNL     1       5.731   4.588  17.491  0.00  0.00    +0.000 A 
ATOM      6  C   UNL     1       6.428   5.312  18.445  0.00  0.00    +0.000 A 
ATOM      7  N   UNL     1       5.972   5.018  19.716  0.00  0.00    +0.000 NA
ATOM      8  C   UNL     1       5.036   4.111  19.534  0.00  0.00    +0.000 A 
ATOM      9  N   UNL     1       4.860   3.815  18.207  0.00  0.00    +0.000 N 
ENDROOT
BRANCH   1  10
ATOM     10  N   UNL     1       8.236   6.937  18.811  0.00  0.00    +0.000 N 
ATOM     11  H   UNL     1       7.712   7.437  19.516  0.00  0.00    +0.000 HD
ATOM     12  H   UNL     1       9.095   6.475  19.086  0.00  0.00    +0.000 HD
ENDBRANCH   1  10
BRANCH   9  13
ATOM     13  C   UNL     1       3.940   2.832  17.673  0.00  0.00    +0.000 C 
BRANCH  13  14
ATOM     14  C   UNL     1       2.807   3.478  16.881  0.00  0.00    +0.000 C 
BRANCH  14  15
ATOM     15  C   UNL     1       1.744   4.085  17.797  0.00  0.00    +0.000 C 
BRANCH  15  16
ATOM     16  C   UNL     1       0.866   2.993  18.414  0.00  0.00    +0.000 C 
BRANCH  16  17
ATOM     17  C   UNL     1       0.477   3.326  19.855  0.00  0.00    +0.000 C 
BRANCH  17  18
ATOM     18  C   UNL     1       1.701   3.692  20.695  0.00  0.00    +0.000 C 
BRANCH  18  19
ATOM     19  C   UNL     1       1.910   2.721  21.835  0.00  0.00    +0.000 C 
ATOM     20  O   UNL     1       1.057   2.374  22.633  0.00  0.00    +0.000 OA
BRANCH  19  21
ATOM     21  O   UNL     1       3.180   2.254  21.884  0.00  0.00    +0.000 OA
ATOM     22  H   UNL     1       3.816   2.880  22.278  0.00  0.00    +0.000 HD
ENDBRANCH  19  21
ENDBRANCH  18  19
ENDBRANCH  17  18
ENDBRANCH  16  17
ENDBRANCH  15  16
ENDBRANCH  14  15
ENDBRANCH  13  14
ENDBRANCH   9  13
TORSDOF 9
ENDMDL
MODEL 4
REMARK VINA RESULT:      -6.4      2.270      3.481
REMARK  Name = 
REMARK  9 active torsions:
REMARK  status: ('A' for Active; 'I' for Inactive)
REMARK    1  A    between atoms: N_1  and  C_2
REMARK    2  A    between atoms: N_10  and  C_11
REMARK    3  A    between atoms: C_11  and  C_12
REMARK    4  A    between atoms: C_12  and  C_13
REMARK    5  A    between atoms: C_13  and  C_14
REMARK    6  A    between atoms: C_14  and  C_15
REMARK    7  A    between atoms: C_15  and  C_16
REMARK    8  A    between atoms: C_16  and  C_17
REMARK    9  A    between atoms: C_17  and  O_19
REMARK                            x       y       z     vdW  Elec       q    Type
REMARK                         _______ _______ _______ _____ _____    ______ ____
ROOT
ATOM      1  C   UNL     1       7.211   4.674  17.230  0.00  0.00    +0.000 A 
ATOM      2  N   UNL     1       7.093   5.064  15.941  0.00  0.00    +0.000 NA
ATOM      3  C   UNL     1       5.918   5.601  15.539  0.00  0.00    +0.000 A 
ATOM      4  N   UNL     1       4.804   5.824  16.266  0.00  0.00    +0.000 NA
ATOM      5  C   UNL     1       4.982   5.435  17.540  0.00  0.00    +0.000 A 
ATOM      6  C   UNL     1       6.122   4.877  18.095  0.00  0.00    +0.000 A 
ATOM      7  N   UNL     1       5.942   4.627  19.443  0.00  0.00    +0.000 NA
ATOM      8  C   UNL     1       4.704   5.001  19.689  0.00  0.00    +0.000 A 
ATOM      9  N   UNL     1       4.083   5.489  18.569  0.00  0.00    +0.000 N 
ENDROOT
BRANCH   1  10
ATOM     10  N   UNL     1       8.405   4.089  17.633  0.00  0.00    +0.000 N 
ATOM     11  H   UNL     1       8.294   3.128  17.924  0.00  0.00    +0.000 HD
ATOM     12  H   UNL     1       9.197   4.329  17.049  0.00  0.00    +0.000 HD
ENDBRANCH   1  10
BRANCH   9  13
ATOM     13  C   UNL     1       2.710   5.944  18.492  0.00  0.00    +0.000 C 
BRANCH  13  14
ATOM     14  C   UNL     1       2.218   6.512  19.820  0.00  0.00    +0.000 C 
BRANCH  14  15
ATOM     15  C   UNL     1       1.686   5.418  20.746  0.00  0.00    +0.000 C 
BRANCH  15  16
ATOM     16  C   UNL     1       0.923   4.354  19.953  0.00  0.00    +0.000 C 
BRANCH  16  17
ATOM     17  C   UNL     1       1.485   2.953  20.198  0.00  0.00    +0.000 C 
BRANCH  17  18
ATOM     18  C   UNL     1       1.377   2.080  18.948  0.00  0.00    +0.000 C 
BRANCH  18  19
ATOM     19  C   UNL     1       2.560   2.270  18.026  0.00  0.00    +0.000 C 
ATOM     20  O   UNL     1       3.687   1.855  18.229  0.00  0.00    +0.000 OA
BRANCH  19  21
ATOM     21  O   UNL     1       2.235   2.966  16.912  0.00  0.00    +0.000 OA
ATOM     22  H   UNL     1       2.859   3.684  16.698  0.00  0.00    +0.000 HD
ENDBRANCH  19  21
ENDBRANCH  18  19
ENDBRANCH  17  18
ENDBRANCH  16  17
ENDBRANCH  15  16
ENDBRANCH  14  15
ENDBRANCH  13  14
ENDBRANCH   9  13
TORSDOF 9
ENDMDL
MODEL 5
REMARK VINA RESULT:      -6.3      1.647      3.019
REMARK  Name = 
REMARK  9 active torsions:
REMARK  status: ('A' for Active; 'I' for Inactive)
REMARK    1  A    between atoms: N_1  and  C_2
REMARK    2  A    between atoms: N_10  and  C_11
REMARK    3  A    between atoms: C_11  and  C_12
REMARK    4  A    between atoms: C_12  and  C_13
REMARK    5  A    between atoms: C_13  and  C_14
REMARK    6  A    between atoms: C_14  and  C_15
REMARK    7  A    between atoms: C_15  and  C_16
REMARK    8  A    between atoms: C_16  and  C_17
REMARK    9  A    between atoms: C_17  and  O_19
REMARK                            x       y       z     vdW  Elec       q    Type
REMARK                         _______ _______ _______ _____ _____    ______ ____
ROOT
ATOM      1  C   UNL     1       6.648   5.978  17.306  0.00  0.00    +0.000 A 
ATOM      2  N   UNL     1       6.477   6.144  15.975  0.00  0.00    +0.000 NA
ATOM      3  C   UNL     1       5.601   5.336  15.336  0.00  0.00    +0.000 A 
ATOM      4  N   UNL     1       4.832   4.355  15.851  0.00  0.00    +0.000 NA
ATOM      5  C   UNL     1       5.029   4.244  17.176  0.00  0.00    +0.000 A 
ATOM      6  C   UNL     1       5.883   4.999  17.963  0.00  0.00    +0.000 A 
ATOM      7  N   UNL     1       5.801   4.614  19.289  0.00  0.00    +0.000 NA
ATOM      8  C   UNL     1       4.933   3.625  19.296  0.00  0.00    +0.000 A 
ATOM      9  N   UNL     1       4.445   3.361  18.042  0.00  0.00    +0.000 N 
ENDROOT
BRANCH   1  10
ATOM     10  N   UNL     1       7.575   6.783  17.955  0.00  0.00    +0.000 N 
ATOM     11  H   UNL     1       8.413   6.936  17.412  0.00  0.00    +0.000 HD
ATOM     12  H   UNL     1       7.164   7.571  18.442  0.00  0.00    +0.000 HD
ENDBRANCH   1  10
BRANCH   9  13
ATOM     13  C   UNL     1       3.507   2.311  17.702  0.00  0.00    +0.000 C 
BRANCH  13  14
ATOM     14  C   UNL     1       2.700   1.849  18.911  0.00  0.00    +0.000 C 
BRANCH  14  15
ATOM     15  C   UNL     1       1.384   2.616  19.045  0.00  0.00    +0.000 C 
BRANCH  15  16
ATOM     16  C   UNL     1       1.214   3.167  20.463  0.00  0.00    +0.000 C 
BRANCH  16  17
ATOM     17  C   UNL     1       1.334   4.692  20.496  0.00  0.00    +0.000 C 
BRANCH  17  18
ATOM     18  C   UNL     1       1.736   5.251  19.132  0.00  0.00    +0.000 C 
BRANCH  18  19
ATOM     19  C   UNL     1       2.507   6.545  19.261  0.00  0.00    +0.000 C 
ATOM     20  O   UNL     1       3.138   7.084  18.368  0.00  0.00    +0.000 OA
BRANCH  19  21
ATOM     21  O   UNL     1       2.425   7.069  20.507  0.00  0.00    +0.000 OA
ATOM     22  H   UNL     1       3.172   7.651  20.741  0.00  0.00    +0.000 HD
ENDBRANCH  19  21
ENDBRANCH  18  19
ENDBRANCH  17  18
ENDBRANCH  16  17
ENDBRANCH  15  16
ENDBRANCH  14  15
ENDBRANCH  13  14
ENDBRANCH   9  13
TORSDOF 9
ENDMDL
MODEL 6
REMARK VINA RESULT:      -6.3      2.202      3.323
REMARK  Name = 
REMARK  9 active torsions:
REMARK  status: ('A' for Active; 'I' for Inactive)
REMARK    1  A    between atoms: N_1  and  C_2
REMARK    2  A    between atoms: N_10  and  C_11
REMARK    3  A    between atoms: C_11  and  C_12
REMARK    4  A    between atoms: C_12  and  C_13
REMARK    5  A    between atoms: C_13  and  C_14
REMARK    6  A    between atoms: C_14  and  C_15
REMARK    7  A    between atoms: C_15  and  C_16
REMARK    8  A    between atoms: C_16  and  C_17
REMARK    9  A    between atoms: C_17  and  O_19
REMARK                            x       y       z     vdW  Elec       q    Type
REMARK                         _______ _______ _______ _____ _____    ______ ____
ROOT
ATOM      1  C   UNL     1       7.094   5.025  14.649  0.00  0.00    +0.000 A 
ATOM      2  N   UNL     1       6.346   3.932  14.376  0.00  0.00    +0.000 NA
ATOM      3  C   UNL     1       5.606   3.397  15.373  0.00  0.00    +0.000 A 
ATOM      4  N   UNL     1       5.488   3.815  16.650  0.00  0.00    +0.000 NA
ATOM      5  C   UNL     1       6.236   4.911  16.862  0.00  0.00    +0.000 A 
ATOM      6  C   UNL     1       7.037   5.571  15.943  0.00  0.00    +0.000 A 
ATOM      7  N   UNL     1       7.638   6.675  16.517  0.00  0.00    +0.000 NA
ATOM      8  C   UNL     1       7.229   6.666  17.768  0.00  0.00    +0.000 A 
ATOM      9  N   UNL     1       6.386   5.616  18.024  0.00  0.00    +0.000 N 
ENDROOT
BRANCH   1  10
ATOM     10  N   UNL     1       7.883   5.552  13.634  0.00  0.00    +0.000 N 
ATOM     11  H   UNL     1       8.297   6.441  13.879  0.00  0.00    +0.000 HD
ATOM     12  H   UNL     1       8.458   4.865  13.162  0.00  0.00    +0.000 HD
ENDBRANCH   1  10
BRANCH   9  13
ATOM     13  C   UNL     1       5.795   5.297  19.307  0.00  0.00    +0.000 C 
BRANCH  13  14
ATOM     14  C   UNL     1       4.332   5.722  19.387  0.00  0.00    +0.000 C 
BRANCH  14  15
ATOM     15  C   UNL     1       3.440   4.601  19.921  0.00  0.00    +0.000 C 
BRANCH  15  16
ATOM     16  C   UNL     1       1.961   4.983  19.821  0.00  0.00    +0.000 C 
BRANCH  16  17
ATOM     17  C   UNL     1       1.069   3.995  20.575  0.00  0.00    +0.000 C 
BRANCH  17  18
ATOM     18  C   UNL     1       1.522   2.552  20.357  0.00  0.00    +0.000 C 
BRANCH  18  19
ATOM     19  C   UNL     1       1.251   2.087  18.944  0.00  0.00    +0.000 C 
ATOM     20  O   UNL     1       0.176   2.151  18.373  0.00  0.00    +0.000 OA
BRANCH  19  21
ATOM     21  O   UNL     1       2.356   1.578  18.351  0.00  0.00    +0.000 OA
ATOM     22  H   UNL     1       3.005   2.253  18.078  0.00  0.00    +0.000 HD
ENDBRANCH  19  21
ENDBRANCH  18  19
ENDBRANCH  17  18
ENDBRANCH  16  17
ENDBRANCH  15  16
ENDBRANCH  14  15
ENDBRANCH  13  14
ENDBRANCH   9  13
TORSDOF 9
ENDMDL
MODEL 7
REMARK VINA RESULT:      -6.3      2.105      3.235
REMARK  Name = 
REMARK  9 active torsions:
REMARK  status: ('A' for Active; 'I' for Inactive)
REMARK    1  A    between atoms: N_1  and  C_2
REMARK    2  A    between atoms: N_10  and  C_11
REMARK    3  A    between atoms: C_11  and  C_12
REMARK    4  A    between atoms: C_12  and  C_13
REMARK    5  A    between atoms: C_13  and  C_14
REMARK    6  A    between atoms: C_14  and  C_15
REMARK    7  A    between atoms: C_15  and  C_16
REMARK    8  A    between atoms: C_16  and  C_17
REMARK    9  A    between atoms: C_17  and  O_19
REMARK                            x       y       z     vdW  Elec       q    Type
REMARK                         _______ _______ _______ _____ _____    ______ ____
ROOT
ATOM      1  C   UNL     1       7.385   4.639  17.322  0.00  0.00    +0.000 A 
ATOM      2  N   UNL     1       7.326   4.758  15.976  0.00  0.00    +0.000 NA
ATOM      3  C   UNL     1       6.183   5.225  15.424  0.00  0.00    +0.000 A 
ATOM      4  N   UNL     1       5.050   5.618  16.042  0.00  0.00    +0.000 NA
ATOM      5  C   UNL     1       5.169   5.496  17.375  0.00  0.00    +0.000 A 
ATOM      6  C   UNL     1       6.272   5.040  18.081  0.00  0.00    +0.000 A 
ATOM      7  N   UNL     1       6.034   5.077  19.442  0.00  0.00    +0.000 NA
ATOM      8  C   UNL     1       4.800   5.520  19.554  0.00  0.00    +0.000 A 
ATOM      9  N   UNL     1       4.236   5.780  18.333  0.00  0.00    +0.000 N 
ENDROOT
BRANCH   1  10
ATOM     10  N   UNL     1       8.545   4.125  17.886  0.00  0.00    +0.000 N 
ATOM     11  H   UNL     1       8.796   3.220  17.514  0.00  0.00    +0.000 HD
ATOM     12  H   UNL     1       9.277   4.812  18.019  0.00  0.00    +0.000 HD
ENDBRANCH   1  10
BRANCH   9  13
ATOM     13  C   UNL     1       2.880   6.239  18.106  0.00  0.00    +0.000 C 
BRANCH  13  14
ATOM     14  C   UNL     1       1.863   5.110  18.241  0.00  0.00    +0.000 C 
BRANCH  14  15
ATOM     15  C   UNL     1       1.402   4.927  19.688  0.00  0.00    +0.000 C 
BRANCH  15  16
ATOM     16  C   UNL     1       0.958   3.485  19.943  0.00  0.00    +0.000 C 
BRANCH  16  17
ATOM     17  C   UNL     1       1.389   2.551  18.811  0.00  0.00    +0.000 C 
BRANCH  17  18
ATOM     18  C   UNL     1       2.398   1.510  19.297  0.00  0.00    +0.000 C 
BRANCH  18  19
ATOM     19  C   UNL     1       3.823   1.971  19.090  0.00  0.00    +0.000 C 
ATOM     20  O   UNL     1       4.667   2.070  19.963  0.00  0.00    +0.000 OA
BRANCH  19  21
ATOM     21  O   UNL     1       4.082   2.270  17.796  0.00  0.00    +0.000 OA
ATOM     22  H   UNL     1       3.361   2.752  17.349  0.00  0.00    +0.000 HD
ENDBRANCH  19  21
ENDBRANCH  18  19
ENDBRANCH  17  18
ENDBRANCH  16  17
ENDBRANCH  15  16
ENDBRANCH  14  15
ENDBRANCH  13  14
ENDBRANCH   9  13
TORSDOF 9
ENDMDL
MODEL 8
REMARK VINA RESULT:      -6.3      1.514      2.360
REMARK  Name = 
REMARK  9 active torsions:
REMARK  status: ('A' for Active; 'I' for Inactive)
REMARK    1  A    between atoms: N_1  and  C_2
REMARK    2  A    between atoms: N_10  and  C_11
REMARK    3  A    between atoms: C_11  and  C_12
REMARK    4  A    between atoms: C_12  and  C_13
REMARK    5  A    between atoms: C_13  and  C_14
REMARK    6  A    between atoms: C_14  and  C_15
REMARK    7  A    between atoms: C_15  and  C_16
REMARK    8  A    between atoms: C_16  and  C_17
REMARK    9  A    between atoms: C_17  and  O_19
REMARK                            x       y       z     vdW  Elec       q    Type
REMARK                         _______ _______ _______ _____ _____    ______ ____
ROOT
ATOM      1  C   UNL     1       7.031   6.051  16.567  0.00  0.00    +0.000 A 
ATOM      2  N   UNL     1       7.290   5.547  15.339  0.00  0.00    +0.000 NA
ATOM      3  C   UNL     1       6.698   4.383  14.987  0.00  0.00    +0.000 A 
ATOM      4  N   UNL     1       5.844   3.624  15.704  0.00  0.00    +0.000 NA
ATOM      5  C   UNL     1       5.609   4.178  16.905  0.00  0.00    +0.000 A 
ATOM      6  C   UNL     1       6.135   5.361  17.401  0.00  0.00    +0.000 A 
ATOM      7  N   UNL     1       5.647   5.624  18.667  0.00  0.00    +0.000 NA
ATOM      8  C   UNL     1       4.862   4.604  18.941  0.00  0.00    +0.000 A 
ATOM      9  N   UNL     1       4.813   3.703  17.910  0.00  0.00    +0.000 N 
ENDROOT
BRANCH   1  10
ATOM     10  N   UNL     1       7.668   7.227  16.942  0.00  0.00    +0.000 N 
ATOM     11  H   UNL     1       7.358   7.574  17.839  0.00  0.00    +0.000 HD
ATOM     12  H   UNL     1       8.660   7.242  16.735  0.00  0.00    +0.000 HD
ENDBRANCH   1  10
BRANCH   9  13
ATOM     13  C   UNL     1       4.077   2.455  17.910  0.00  0.00    +0.000 C 
BRANCH  13  14
ATOM     14  C   UNL     1       2.650   2.632  17.398  0.00  0.00    +0.000 C 
BRANCH  14  15
ATOM     15  C   UNL     1       1.614   2.334  18.483  0.00  0.00    +0.000 C 
BRANCH  15  16
ATOM     16  C   UNL     1       0.716   3.548  18.731  0.00  0.00    +0.000 C 
BRANCH  16  17
ATOM     17  C   UNL     1       0.684   3.937  20.210  0.00  0.00    +0.000 C 
BRANCH  17  18
ATOM     18  C   UNL     1       2.087   3.949  20.816  0.00  0.00    +0.000 C 
BRANCH  18  19
ATOM     19  C   UNL     1       2.318   2.759  21.720  0.00  0.00    +0.000 C 
ATOM     20  O   UNL     1       3.385   2.195  21.887  0.00  0.00    +0.000 OA
BRANCH  19  21
ATOM     21  O   UNL     1       1.187   2.369  22.353  0.00  0.00    +0.000 OA
ATOM     22  H   UNL     1       0.599   1.815  21.806  0.00  0.00    +0.000 HD
ENDBRANCH  19  21
ENDBRANCH  18  19
ENDBRANCH  17  18
ENDBRANCH  16  17
ENDBRANCH  15  16
ENDBRANCH  14  15
ENDBRANCH  13  14
ENDBRANCH   9  13
TORSDOF 9
ENDMDL
MODEL 9
REMARK VINA RESULT:      -6.3      1.967      3.094
REMARK  Name = 
REMARK  9 active torsions:
REMARK  status: ('A' for Active; 'I' for Inactive)
REMARK    1  A    between atoms: N_1  and  C_2
REMARK    2  A    between atoms: N_10  and  C_11
REMARK    3  A    between atoms: C_11  and  C_12
REMARK    4  A    between atoms: C_12  and  C_13
REMARK    5  A    between atoms: C_13  and  C_14
REMARK    6  A    between atoms: C_14  and  C_15
REMARK    7  A    between atoms: C_15  and  C_16
REMARK    8  A    between atoms: C_16  and  C_17
REMARK    9  A    between atoms: C_17  and  O_19
REMARK                            x       y       z     vdW  Elec       q    Type
REMARK                         _______ _______ _______ _____ _____    ______ ____
ROOT
ATOM      1  C   UNL     1       7.155   4.982  14.618  0.00  0.00    +0.000 A 
ATOM      2  N   UNL     1       6.433   3.934  14.160  0.00  0.00    +0.000 NA
ATOM      3  C   UNL     1       5.569   3.331  15.007  0.00  0.00    +0.000 A 
ATOM      4  N   UNL     1       5.300   3.639  16.293  0.00  0.00    +0.000 NA
ATOM      5  C   UNL     1       6.029   4.695  16.691  0.00  0.00    +0.000 A 
ATOM      6  C   UNL     1       6.945   5.414  15.939  0.00  0.00    +0.000 A 
ATOM      7  N   UNL     1       7.484   6.450  16.678  0.00  0.00    +0.000 NA
ATOM      8  C   UNL     1       6.924   6.341  17.865  0.00  0.00    +0.000 A 
ATOM      9  N   UNL     1       6.043   5.292  17.921  0.00  0.00    +0.000 N 
ENDROOT
BRANCH   1  10
ATOM     10  N   UNL     1       8.069   5.578  13.758  0.00  0.00    +0.000 N 
ATOM     11  H   UNL     1       8.854   4.980  13.544  0.00  0.00    +0.000 HD
ATOM     12  H   UNL     1       7.642   6.104  13.005  0.00  0.00    +0.000 HD
ENDBRANCH   1  10
BRANCH   9  13
ATOM     13  C   UNL     1       5.295   4.876  19.090  0.00  0.00    +0.000 C 
BRANCH  13  14
ATOM     14  C   UNL     1       4.059   5.742  19.318  0.00  0.00    +0.000 C 
BRANCH  14  15
ATOM     15  C   UNL     1       3.235   5.907  18.040  0.00  0.00    +0.000 C 
BRANCH  15  16
ATOM     16  C   UNL     1       1.893   5.181  18.158  0.00  0.00    +0.000 C 
BRANCH  16  17
ATOM     17  C   UNL     1       2.001   3.716  17.731  0.00  0.00    +0.000 C 
BRANCH  17  18
ATOM     18  C   UNL     1       1.153   2.809  18.622  0.00  0.00    +0.000 C 
BRANCH  18  19
ATOM     19  C   UNL     1       1.693   2.745  20.033  0.00  0.00    +0.000 C 
ATOM     20  O   UNL     1       2.853   2.525  20.336  0.00  0.00    +0.000 OA
BRANCH  19  21
ATOM     21  O   UNL     1       0.732   2.969  20.960  0.00  0.00    +0.000 OA
ATOM     22  H   UNL     1       0.685   3.894  21.266  0.00  0.00    +0.000 HD
ENDBRANCH  19  21
ENDBRANCH  18  19
ENDBRANCH  17  18
ENDBRANCH  16  17
ENDBRANCH  15  16
ENDBRANCH  14  15
ENDBRANCH  13  14
ENDBRANCH   9  13
TORSDOF 9
ENDMDL
