MODEL 1
REMARK VINA RESULT:      -6.4      0.000      0.000
REMARK  Name = 
REMARK  15 active torsions:
REMARK  status: ('A' for Active; 'I' for Inactive)
REMARK    1  A    between atoms: C_1  and  N_2
REMARK    2  A    between atoms: N_2  and  C_3
REMARK    3  A    between atoms: C_3  and  C_4
REMARK    4  A    between atoms: C_3  and  C_5
REMARK    5  A    between atoms: C_5  and  O_6
REMARK    6  A    between atoms: C_5  and  C_22
REMARK    7  A    between atoms: O_6  and  P_7
REMARK    8  A    between atoms: P_7  and  O_9
REMARK    9  A    between atoms: P_7  and  O_10
REMARK   10  A    between atoms: O_10  and  C_11
REMARK   11  A    between atoms: C_12  and  O_13
REMARK   12  A    between atoms: C_14  and  O_15
REMARK   13  A    between atoms: C_16  and  O_17
REMARK   14  A    between atoms: C_18  and  O_19
REMARK   15  A    between atoms: C_20  and  O_21
REMARK                            x       y       z     vdW  Elec       q    Type
REMARK                         _______ _______ _______ _____ _____    ______ ____
ROOT
ATOM      1  P   UNL     1       1.741   7.794  18.813  0.00  0.00    +0.000 P 
ATOM      2  O   UNL     1       2.849   8.598  18.104  0.00  0.00    +0.000 OA
ENDROOT
BRANCH   1   3
ATOM      3  O   UNL     1       2.596   7.109  20.030  0.00  0.00    +0.000 OA
ATOM      4  H   UNL     1       2.091   6.324  20.297  0.00  0.00    +0.000 HD
ENDBRANCH   1   3
BRANCH   1   5
ATOM      5  O   UNL     1       1.452   9.192  19.789  0.00  0.00    +0.000 OA
BRANCH   5   6
ATOM      6  C   UNL     1       0.985  10.203  18.818  0.00  0.00    +0.000 C 
BRANCH   6   7
ATOM      7  C   UNL     1       1.569  11.606  19.088  0.00  0.00    +0.000 A 
ATOM      8  C   UNL     1       1.541  12.134  20.396  0.00  0.00    +0.000 A 
ATOM      9  C   UNL     1       2.040  13.410  20.683  0.00  0.00    +0.000 A 
ATOM     10  C   UNL     1       2.588  14.189  19.667  0.00  0.00    +0.000 A 
ATOM     11  C   UNL     1       2.642  13.676  18.371  0.00  0.00    +0.000 A 
ATOM     12  C   UNL     1       2.135  12.395  18.082  0.00  0.00    +0.000 A 
ENDBRANCH   6   7
BRANCH   6  13
ATOM     13  C   UNL     1      -0.559  10.136  18.671  0.00  0.00    +0.000 C 
ATOM     14  C   UNL     1      -1.283  11.304  19.360  0.00  0.00    +0.000 C 
BRANCH  13  16
ATOM     15  C   UNL     1      -2.415   9.972  17.027  0.00  0.00    +0.000 C 
ATOM     16  N   UNL     1      -0.971  10.008  17.250  0.00  0.00    +0.000 NA
ATOM     17  H   UNL     1      -0.607  10.839  16.771  0.00  0.00    +0.000 HD
ENDBRANCH  13  16
ENDBRANCH   6  13
ENDBRANCH   5   6
ENDBRANCH   1   5
BRANCH   1  18
ATOM     18  O   UNL     1       2.030   6.395  17.836  0.00  0.00    +0.000 OA
BRANCH  18  19
ATOM     19  C   UNL     1       2.774   5.332  18.499  0.00  0.00    +0.000 C 
ATOM     20  C   UNL     1       2.052   3.980  18.375  0.00  0.00    +0.000 C 
ATOM     21  C   UNL     1       2.744   2.931  19.273  0.00  0.00    +0.000 C 
ATOM     22  C   UNL     1       4.233   2.760  18.896  0.00  0.00    +0.000 C 
ATOM     23  C   UNL     1       4.958   4.120  18.919  0.00  0.00    +0.000 C 
ATOM     24  C   UNL     1       4.241   5.152  18.014  0.00  0.00    +0.000 C 
BRANCH  20  25
ATOM     25  O   UNL     1       2.099   3.471  17.028  0.00  0.00    +0.000 OA
ATOM     26  H   UNL     1       2.482   2.576  17.050  0.00  0.00    +0.000 HD
ENDBRANCH  20  25
BRANCH  21  27
ATOM     27  O   UNL     1       2.052   1.684  19.139  0.00  0.00    +0.000 OA
ATOM     28  H   UNL     1       1.386   1.823  18.437  0.00  0.00    +0.000 HD
ENDBRANCH  21  27
BRANCH  22  29
ATOM     29  O   UNL     1       4.868   1.827  19.783  0.00  0.00    +0.000 OA
ATOM     30  H   UNL     1       5.789   2.101  19.923  0.00  0.00    +0.000 HD
ENDBRANCH  22  29
BRANCH  23  31
ATOM     31  O   UNL     1       6.331   3.957  18.543  0.00  0.00    +0.000 OA
ATOM     32  H   UNL     1       6.672   3.142  18.947  0.00  0.00    +0.000 HD
ENDBRANCH  23  31
BRANCH  24  33
ATOM     33  O   UNL     1       4.982   6.373  17.997  0.00  0.00    +0.000 OA
ATOM     34  H   UNL     1       4.582   6.962  17.320  0.00  0.00    +0.000 HD
ENDBRANCH  24  33
ENDBRANCH  18  19
ENDBRANCH   1  18
TORSDOF 13
ENDMDL
MODEL 2
REMARK VINA RESULT:      -6.3      2.835      8.229
REMARK  Name = 
REMARK  15 active torsions:
REMARK  status: ('A' for Active; 'I' for Inactive)
REMARK    1  A    between atoms: C_1  and  N_2
REMARK    2  A    between atoms: N_2  and  C_3
REMARK    3  A    between atoms: C_3  and  C_4
REMARK    4  A    between atoms: C_3  and  C_5
REMARK    5  A    between atoms: C_5  and  O_6
REMARK    6  A    between atoms: C_5  and  C_22
REMARK    7  A    between atoms: O_6  and  P_7
REMARK    8  A    between atoms: P_7  and  O_9
REMARK    9  A    between atoms: P_7  and  O_10
REMARK   10  A    between atoms: O_10  and  C_11
REMARK   11  A    between atoms: C_12  and  O_13
REMARK   12  A    between atoms: C_14  and  O_15
REMARK   13  A    between atoms: C_16  and  O_17
REMARK   14  A    between atoms: C_18  and  O_19
REMARK   15  A    between atoms: C_20  and  O_21
REMARK                            x       y       z     vdW  Elec       q    Type
REMARK                         _______ _______ _______ _____ _____    ______ ____
ROOT
ATOM      1  P   UNL     1       2.760   7.006  18.203  0.00  0.00    +0.000 P 
ATOM      2  O   UNL     1       2.962   7.102  19.728  0.00  0.00    +0.000 OA
ENDROOT
BRANCH   1   3
ATOM      3  O   UNL     1       3.631   8.298  17.700  0.00  0.00    +0.000 OA
ATOM      4  H   UNL     1       3.699   8.211  16.735  0.00  0.00    +0.000 HD
ENDBRANCH   1   3
BRANCH   1   5
ATOM      5  O   UNL     1       4.179   6.017  18.152  0.00  0.00    +0.000 OA
BRANCH   5   6
ATOM      6  C   UNL     1       3.692   4.740  17.593  0.00  0.00    +0.000 C 
BRANCH   6   7
ATOM      7  C   UNL     1       2.814   3.949  18.586  0.00  0.00    +0.000 A 
ATOM      8  C   UNL     1       3.306   3.661  19.877  0.00  0.00    +0.000 A 
ATOM      9  C   UNL     1       2.554   2.929  20.803  0.00  0.00    +0.000 A 
ATOM     10  C   UNL     1       1.283   2.471  20.462  0.00  0.00    +0.000 A 
ATOM     11  C   UNL     1       0.772   2.763  19.197  0.00  0.00    +0.000 A 
ATOM     12  C   UNL     1       1.532   3.495  18.265  0.00  0.00    +0.000 A 
ENDBRANCH   6   7
BRANCH   6  13
ATOM     13  C   UNL     1       4.865   3.948  16.956  0.00  0.00    +0.000 C 
ATOM     14  C   UNL     1       5.166   4.372  15.509  0.00  0.00    +0.000 C 
BRANCH  13  16
ATOM     15  C   UNL     1       7.250   4.613  17.162  0.00  0.00    +0.000 C 
ATOM     16  N   UNL     1       6.087   4.000  17.799  0.00  0.00    +0.000 NA
ATOM     17  H   UNL     1       5.847   4.572  18.616  0.00  0.00    +0.000 HD
ENDBRANCH  13  16
ENDBRANCH   6  13
ENDBRANCH   5   6
ENDBRANCH   1   5
BRANCH   1  18
ATOM     18  O   UNL     1       1.341   7.994  18.254  0.00  0.00    +0.000 OA
BRANCH  18  19
ATOM     19  C   UNL     1       1.472   9.209  19.048  0.00  0.00    +0.000 C 
ATOM     20  C   UNL     1       1.142  10.461  18.217  0.00  0.00    +0.000 C 
ATOM     21  C   UNL     1       1.509  11.732  19.014  0.00  0.00    +0.000 C 
ATOM     22  C   UNL     1       0.753  11.789  20.362  0.00  0.00    +0.000 C 
ATOM     23  C   UNL     1       0.992  10.501  21.173  0.00  0.00    +0.000 C 
ATOM     24  C   UNL     1       0.620   9.244  20.348  0.00  0.00    +0.000 C 
BRANCH  20  25
ATOM     25  O   UNL     1      -0.264  10.547  17.919  0.00  0.00    +0.000 OA
ATOM     26  H   UNL     1      -0.392  10.348  16.974  0.00  0.00    +0.000 HD
ENDBRANCH  20  25
BRANCH  21  27
ATOM     27  O   UNL     1       1.192  12.879  18.218  0.00  0.00    +0.000 OA
ATOM     28  H   UNL     1       1.450  13.655  18.754  0.00  0.00    +0.000 HD
ENDBRANCH  21  27
BRANCH  22  29
ATOM     29  O   UNL     1       1.157  12.946  21.109  0.00  0.00    +0.000 OA
ATOM     30  H   UNL     1       0.439  13.601  21.090  0.00  0.00    +0.000 HD
ENDBRANCH  22  29
BRANCH  23  31
ATOM     31  O   UNL     1       0.269  10.551  22.408  0.00  0.00    +0.000 OA
ATOM     32  H   UNL     1      -0.674  10.399  22.226  0.00  0.00    +0.000 HD
ENDBRANCH  23  31
BRANCH  24  33
ATOM     33  O   UNL     1       0.778   8.076  21.156  0.00  0.00    +0.000 OA
ATOM     34  H   UNL     1      -0.060   7.564  21.116  0.00  0.00    +0.000 HD
ENDBRANCH  24  33
ENDBRANCH  18  19
ENDBRANCH   1  18
TORSDOF 13
ENDMDL
MODEL 3
REMARK VINA RESULT:      -6.2      1.724      2.493
REMARK  Name = 
REMARK  15 active torsions:
REMARK  status: ('A' for Active; 'I' for Inactive)
REMARK    1  A    between atoms: C_1  and  N_2
REMARK    2  A    between atoms: N_2  and  C_3
REMARK    3  A    between atoms: C_3  and  C_4
REMARK    4  A    between atoms: C_3  and  C_5
REMARK    5  A    between atoms: C_5  and  O_6
REMARK    6  A    between atoms: C_5  and  C_22
REMARK    7  A    between atoms: O_6  and  P_7
REMARK    8  A    between atoms: P_7  and  O_9
REMARK    9  A    between atoms: P_7  and  O_10
REMARK   10  A    between atoms: O_10  and  C_11
REMARK   11  A    between atoms: C_12  and  O_13
REMARK   12  A    between atoms: C_14  and  O_15
REMARK   13  A    between atoms: C_16  and  O_17
REMARK   14  A    between atoms: C_18  and  O_19
REMARK   15  A    between atoms: C_20  and  O_21
REMARK                            x       y       z     vdW  Elec       q    Type
REMARK                         _______ _______ _______ _____ _____    ______ ____
ROOT
ATOM      1  P   UNL     1       1.918   7.753  19.007  0.00  0.00    +0.000 P 
ATOM      2  O   UNL     1       3.014   8.416  18.149  0.00  0.00    +0.000 OA
ENDROOT
BRANCH   1   3
ATOM      3  O   UNL     1       2.833   6.995  20.134  0.00  0.00    +0.000 OA
ATOM      4  H   UNL     1       2.291   6.970  20.939  0.00  0.00    +0.000 HD
ENDBRANCH   1   3
BRANCH   1   5
ATOM      5  O   UNL     1       1.904   9.189  19.969  0.00  0.00    +0.000 OA
BRANCH   5   6
ATOM      6  C   UNL     1       0.466   9.462  20.166  0.00  0.00    +0.000 C 
BRANCH   6   7
ATOM      7  C   UNL     1      -0.034  10.664  19.338  0.00  0.00    +0.000 A 
ATOM      8  C   UNL     1       0.781  11.808  19.204  0.00  0.00    +0.000 A 
ATOM      9  C   UNL     1       0.361  12.930  18.481  0.00  0.00    +0.000 A 
ATOM     10  C   UNL     1      -0.888  12.932  17.863  0.00  0.00    +0.000 A 
ATOM     11  C   UNL     1      -1.700  11.803  17.967  0.00  0.00    +0.000 A 
ATOM     12  C   UNL     1      -1.278  10.677  18.700  0.00  0.00    +0.000 A 
ENDBRANCH   6   7
BRANCH   6  13
ATOM     13  C   UNL     1       0.127   9.503  21.681  0.00  0.00    +0.000 C 
ATOM     14  C   UNL     1       1.292   9.044  22.573  0.00  0.00    +0.000 C 
BRANCH  13  16
ATOM     15  C   UNL     1      -1.347  10.817  23.189  0.00  0.00    +0.000 C 
ATOM     16  N   UNL     1      -0.377  10.837  22.095  0.00  0.00    +0.000 NA
ATOM     17  H   UNL     1       0.441  11.364  22.420  0.00  0.00    +0.000 HD
ENDBRANCH  13  16
ENDBRANCH   6  13
ENDBRANCH   5   6
ENDBRANCH   1   5
BRANCH   1  18
ATOM     18  O   UNL     1       1.931   6.315  18.043  0.00  0.00    +0.000 OA
BRANCH  18  19
ATOM     19  C   UNL     1       2.698   5.212  18.606  0.00  0.00    +0.000 C 
ATOM     20  C   UNL     1       1.946   3.877  18.466  0.00  0.00    +0.000 C 
ATOM     21  C   UNL     1       2.676   2.777  19.268  0.00  0.00    +0.000 C 
ATOM     22  C   UNL     1       4.135   2.603  18.787  0.00  0.00    +0.000 C 
ATOM     23  C   UNL     1       4.884   3.950  18.827  0.00  0.00    +0.000 C 
ATOM     24  C   UNL     1       4.128   5.034  18.019  0.00  0.00    +0.000 C 
BRANCH  20  25
ATOM     25  O   UNL     1       1.898   3.432  17.097  0.00  0.00    +0.000 OA
ATOM     26  H   UNL     1       1.403   4.089  16.576  0.00  0.00    +0.000 HD
ENDBRANCH  20  25
BRANCH  21  27
ATOM     27  O   UNL     1       1.956   1.548  19.120  0.00  0.00    +0.000 OA
ATOM     28  H   UNL     1       1.013   1.798  19.055  0.00  0.00    +0.000 HD
ENDBRANCH  21  27
BRANCH  22  29
ATOM     29  O   UNL     1       4.809   1.620  19.587  0.00  0.00    +0.000 OA
ATOM     30  H   UNL     1       4.192   1.281  20.257  0.00  0.00    +0.000 HD
ENDBRANCH  22  29
BRANCH  23  31
ATOM     31  O   UNL     1       6.226   3.786  18.356  0.00  0.00    +0.000 OA
ATOM     32  H   UNL     1       6.816   3.678  19.121  0.00  0.00    +0.000 HD
ENDBRANCH  23  31
BRANCH  24  33
ATOM     33  O   UNL     1       4.887   6.244  18.012  0.00  0.00    +0.000 OA
ATOM     34  H   UNL     1       4.754   6.680  17.142  0.00  0.00    +0.000 HD
ENDBRANCH  24  33
ENDBRANCH  18  19
ENDBRANCH   1  18
TORSDOF 13
ENDMDL
MODEL 4
REMARK VINA RESULT:      -6.2      2.817      8.070
REMARK  Name = 
REMARK  15 active torsions:
REMARK  status: ('A' for Active; 'I' for Inactive)
REMARK    1  A    between atoms: C_1  and  N_2
REMARK    2  A    between atoms: N_2  and  C_3
REMARK    3  A    between atoms: C_3  and  C_4
REMARK    4  A    between atoms: C_3  and  C_5
REMARK    5  A    between atoms: C_5  and  O_6
REMARK    6  A    between atoms: C_5  and  C_22
REMARK    7  A    between atoms: O_6  and  P_7
REMARK    8  A    between atoms: P_7  and  O_9
REMARK    9  A    between atoms: P_7  and  O_10
REMARK   10  A    between atoms: O_10  and  C_11
REMARK   11  A    between atoms: C_12  and  O_13
REMARK   12  A    between atoms: C_14  and  O_15
REMARK   13  A    between atoms: C_16  and  O_17
REMARK   14  A    between atoms: C_18  and  O_19
REMARK   15  A    between atoms: C_20  and  O_21
REMARK                            x       y       z     vdW  Elec       q    Type
REMARK                         _______ _______ _______ _____ _____    ______ ____
ROOT
ATOM      1  P   UNL     1       2.340   6.801  18.849  0.00  0.00    +0.000 P 
ATOM      2  O   UNL     1       3.272   6.043  19.815  0.00  0.00    +0.000 OA
ENDROOT
BRANCH   1   3
ATOM      3  O   UNL     1       3.438   7.492  17.849  0.00  0.00    +0.000 OA
ATOM      4  H   UNL     1       3.309   7.070  16.984  0.00  0.00    +0.000 HD
ENDBRANCH   1   3
BRANCH   1   5
ATOM      5  O   UNL     1       2.325   5.378  17.865  0.00  0.00    +0.000 OA
BRANCH   5   6
ATOM      6  C   UNL     1       3.388   4.538  18.452  0.00  0.00    +0.000 C 
BRANCH   6   7
ATOM      7  C   UNL     1       4.658   4.482  17.576  0.00  0.00    +0.000 A 
ATOM      8  C   UNL     1       5.928   4.586  18.180  0.00  0.00    +0.000 A 
ATOM      9  C   UNL     1       7.105   4.562  17.423  0.00  0.00    +0.000 A 
ATOM     10  C   UNL     1       7.041   4.424  16.038  0.00  0.00    +0.000 A 
ATOM     11  C   UNL     1       5.794   4.300  15.425  0.00  0.00    +0.000 A 
ATOM     12  C   UNL     1       4.611   4.330  16.187  0.00  0.00    +0.000 A 
ENDBRANCH   6   7
BRANCH   6  13
ATOM     13  C   UNL     1       2.812   3.164  18.887  0.00  0.00    +0.000 C 
ATOM     14  C   UNL     1       3.498   1.975  18.195  0.00  0.00    +0.000 C 
BRANCH  13  16
ATOM     15  C   UNL     1       1.499   2.886  20.978  0.00  0.00    +0.000 C 
ATOM     16  N   UNL     1       2.819   3.006  20.363  0.00  0.00    +0.000 NA
ATOM     17  H   UNL     1       3.328   2.137  20.557  0.00  0.00    +0.000 HD
ENDBRANCH  13  16
ENDBRANCH   6  13
ENDBRANCH   5   6
ENDBRANCH   1   5
BRANCH   1  18
ATOM     18  O   UNL     1       2.355   8.224  19.833  0.00  0.00    +0.000 OA
BRANCH  18  19
ATOM     19  C   UNL     1       1.140   9.024  19.765  0.00  0.00    +0.000 C 
ATOM     20  C   UNL     1       0.690   9.480  21.164  0.00  0.00    +0.000 C 
ATOM     21  C   UNL     1      -0.711  10.125  21.080  0.00  0.00    +0.000 C 
ATOM     22  C   UNL     1      -0.719  11.332  20.114  0.00  0.00    +0.000 C 
ATOM     23  C   UNL     1      -0.180  10.922  18.729  0.00  0.00    +0.000 C 
ATOM     24  C   UNL     1       1.223  10.275  18.844  0.00  0.00    +0.000 C 
BRANCH  20  25
ATOM     25  O   UNL     1       1.575  10.475  21.711  0.00  0.00    +0.000 OA
ATOM     26  H   UNL     1       1.393  11.325  21.272  0.00  0.00    +0.000 HD
ENDBRANCH  20  25
BRANCH  21  27
ATOM     27  O   UNL     1      -1.104  10.539  22.394  0.00  0.00    +0.000 OA
ATOM     28  H   UNL     1      -0.456  11.218  22.665  0.00  0.00    +0.000 HD
ENDBRANCH  21  27
BRANCH  22  29
ATOM     29  O   UNL     1      -2.043  11.876  20.007  0.00  0.00    +0.000 OA
ATOM     30  H   UNL     1      -2.334  11.819  19.081  0.00  0.00    +0.000 HD
ENDBRANCH  22  29
BRANCH  23  31
ATOM     31  O   UNL     1      -0.166  12.051  17.848  0.00  0.00    +0.000 OA
ATOM     32  H   UNL     1      -0.805  12.708  18.169  0.00  0.00    +0.000 HD
ENDBRANCH  23  31
BRANCH  24  33
ATOM     33  O   UNL     1       1.724   9.980  17.540  0.00  0.00    +0.000 OA
ATOM     34  H   UNL     1       1.572  10.768  16.972  0.00  0.00    +0.000 HD
ENDBRANCH  24  33
ENDBRANCH  18  19
ENDBRANCH   1  18
TORSDOF 13
ENDMDL
MODEL 5
REMARK VINA RESULT:      -6.2      1.704      2.630
REMARK  Name = 
REMARK  15 active torsions:
REMARK  status: ('A' for Active; 'I' for Inactive)
REMARK    1  A    between atoms: C_1  and  N_2
REMARK    2  A    between atoms: N_2  and  C_3
REMARK    3  A    between atoms: C_3  and  C_4
REMARK    4  A    between atoms: C_3  and  C_5
REMARK    5  A    between atoms: C_5  and  O_6
REMARK    6  A    between atoms: C_5  and  C_22
REMARK    7  A    between atoms: O_6  and  P_7
REMARK    8  A    between atoms: P_7  and  O_9
REMARK    9  A    between atoms: P_7  and  O_10
REMARK   10  A    between atoms: O_10  and  C_11
REMARK   11  A    between atoms: C_12  and  O_13
REMARK   12  A    between atoms: C_14  and  O_15
REMARK   13  A    between atoms: C_16  and  O_17
REMARK   14  A    between atoms: C_18  and  O_19
REMARK   15  A    between atoms: C_20  and  O_21
REMARK                            x       y       z     vdW  Elec       q    Type
REMARK                         _______ _______ _______ _____ _____    ______ ____
ROOT
ATOM      1  P   UNL     1       2.020   7.673  18.646  0.00  0.00    +0.000 P 
ATOM      2  O   UNL     1       3.192   8.297  17.864  0.00  0.00    +0.000 OA
ENDROOT
BRANCH   1   3
ATOM      3  O   UNL     1       2.823   6.976  19.891  0.00  0.00    +0.000 OA
ATOM      4  H   UNL     1       2.340   6.158  20.092  0.00  0.00    +0.000 HD
ENDBRANCH   1   3
BRANCH   1   5
ATOM      5  O   UNL     1       1.915   9.156  19.530  0.00  0.00    +0.000 OA
BRANCH   5   6
ATOM      6  C   UNL     1       0.518   9.178  20.007  0.00  0.00    +0.000 C 
BRANCH   6   7
ATOM      7  C   UNL     1      -0.219  10.483  19.638  0.00  0.00    +0.000 A 
ATOM      8  C   UNL     1      -1.377  10.427  18.833  0.00  0.00    +0.000 A 
ATOM      9  C   UNL     1      -2.065  11.586  18.456  0.00  0.00    +0.000 A 
ATOM     10  C   UNL     1      -1.616  12.833  18.882  0.00  0.00    +0.000 A 
ATOM     11  C   UNL     1      -0.484  12.907  19.695  0.00  0.00    +0.000 A 
ATOM     12  C   UNL     1       0.211  11.741  20.069  0.00  0.00    +0.000 A 
ENDBRANCH   6   7
BRANCH   6  13
ATOM     13  C   UNL     1       0.452   8.771  21.504  0.00  0.00    +0.000 C 
ATOM     14  C   UNL     1       1.651   9.280  22.322  0.00  0.00    +0.000 C 
BRANCH  13  16
ATOM     15  C   UNL     1      -0.715  10.095  23.252  0.00  0.00    +0.000 C 
ATOM     16  N   UNL     1      -0.835   9.170  22.127  0.00  0.00    +0.000 NA
ATOM     17  H   UNL     1      -1.372   9.646  21.395  0.00  0.00    +0.000 HD
ENDBRANCH  13  16
ENDBRANCH   6  13
ENDBRANCH   5   6
ENDBRANCH   1   5
BRANCH   1  18
ATOM     18  O   UNL     1       2.124   6.189  17.761  0.00  0.00    +0.000 OA
BRANCH  18  19
ATOM     19  C   UNL     1       2.854   5.126  18.439  0.00  0.00    +0.000 C 
ATOM     20  C   UNL     1       2.130   3.774  18.303  0.00  0.00    +0.000 C 
ATOM     21  C   UNL     1       2.803   2.725  19.215  0.00  0.00    +0.000 C 
ATOM     22  C   UNL     1       4.299   2.550  18.866  0.00  0.00    +0.000 C 
ATOM     23  C   UNL     1       5.027   3.908  18.902  0.00  0.00    +0.000 C 
ATOM     24  C   UNL     1       4.329   4.941  17.982  0.00  0.00    +0.000 C 
BRANCH  20  25
ATOM     25  O   UNL     1       2.202   3.264  16.958  0.00  0.00    +0.000 OA
ATOM     26  H   UNL     1       1.671   2.449  16.909  0.00  0.00    +0.000 HD
ENDBRANCH  20  25
BRANCH  21  27
ATOM     27  O   UNL     1       2.111   1.480  19.070  0.00  0.00    +0.000 OA
ATOM     28  H   UNL     1       2.372   1.131  18.195  0.00  0.00    +0.000 HD
ENDBRANCH  21  27
BRANCH  22  29
ATOM     29  O   UNL     1       4.914   1.617  19.766  0.00  0.00    +0.000 OA
ATOM     30  H   UNL     1       4.253   1.320  20.414  0.00  0.00    +0.000 HD
ENDBRANCH  22  29
BRANCH  23  31
ATOM     31  O   UNL     1       6.406   3.742  18.552  0.00  0.00    +0.000 OA
ATOM     32  H   UNL     1       6.952   4.223  19.195  0.00  0.00    +0.000 HD
ENDBRANCH  23  31
BRANCH  24  33
ATOM     33  O   UNL     1       5.073   6.160  17.978  0.00  0.00    +0.000 OA
ATOM     34  H   UNL     1       4.567   6.826  18.494  0.00  0.00    +0.000 HD
ENDBRANCH  24  33
ENDBRANCH  18  19
ENDBRANCH   1  18
TORSDOF 13
ENDMDL
MODEL 6
REMARK VINA RESULT:      -6.1      3.903      8.018
REMARK  Name = 
REMARK  15 active torsions:
REMARK  status: ('A' for Active; 'I' for Inactive)
REMARK    1  A    between atoms: C_1  and  N_2
REMARK    2  A    between atoms: N_2  and  C_3
REMARK    3  A    between atoms: C_3  and  C_4
REMARK    4  A    between atoms: C_3  and  C_5
REMARK    5  A    between atoms: C_5  and  O_6
REMARK    6  A    between atoms: C_5  and  C_22
REMARK    7  A    between atoms: O_6  and  P_7
REMARK    8  A    between atoms: P_7  and  O_9
REMARK    9  A    between atoms: P_7  and  O_10
REMARK   10  A    between atoms: O_10  and  C_11
REMARK   11  A    between atoms: C_12  and  O_13
REMARK   12  A    between atoms: C_14  and  O_15
REMARK   13  A    between atoms: C_16  and  O_17
REMARK   14  A    between atoms: C_18  and  O_19
REMARK   15  A    between atoms: C_20  and  O_21
REMARK                            x       y       z     vdW  Elec       q    Type
REMARK                         _______ _______ _______ _____ _____    ______ ____
ROOT
ATOM      1  P   UNL     1       4.657   3.938  17.904  0.00  0.00    +0.000 P 
ATOM      2  O   UNL     1       4.029   2.622  17.406  0.00  0.00    +0.000 OA
ENDROOT
BRANCH   1   3
ATOM      3  O   UNL     1       5.529   3.395  19.179  0.00  0.00    +0.000 OA
ATOM      4  H   UNL     1       5.249   2.475  19.317  0.00  0.00    +0.000 HD
ENDBRANCH   1   3
BRANCH   1   5
ATOM      5  O   UNL     1       5.987   3.619  16.846  0.00  0.00    +0.000 OA
BRANCH   5   6
ATOM      6  C   UNL     1       6.105   4.859  16.052  0.00  0.00    +0.000 C 
BRANCH   6   7
ATOM      7  C   UNL     1       6.406   4.588  14.562  0.00  0.00    +0.000 A 
ATOM      8  C   UNL     1       7.459   5.278  13.926  0.00  0.00    +0.000 A 
ATOM      9  C   UNL     1       7.754   5.080  12.572  0.00  0.00    +0.000 A 
ATOM     10  C   UNL     1       7.005   4.178  11.820  0.00  0.00    +0.000 A 
ATOM     11  C   UNL     1       5.972   3.472  12.437  0.00  0.00    +0.000 A 
ATOM     12  C   UNL     1       5.673   3.676  13.797  0.00  0.00    +0.000 A 
ENDBRANCH   6   7
BRANCH   6  13
ATOM     13  C   UNL     1       7.056   5.863  16.757  0.00  0.00    +0.000 C 
ATOM     14  C   UNL     1       6.338   7.132  17.246  0.00  0.00    +0.000 C 
BRANCH  13  16
ATOM     15  C   UNL     1       7.850   5.967  19.108  0.00  0.00    +0.000 C 
ATOM     16  N   UNL     1       7.821   5.219  17.854  0.00  0.00    +0.000 NA
ATOM     17  H   UNL     1       7.356   4.324  18.041  0.00  0.00    +0.000 HD
ENDBRANCH  13  16
ENDBRANCH   6  13
ENDBRANCH   5   6
ENDBRANCH   1   5
BRANCH   1  18
ATOM     18  O   UNL     1       3.327   4.258  18.963  0.00  0.00    +0.000 OA
BRANCH  18  19
ATOM     19  C   UNL     1       3.091   5.670  19.236  0.00  0.00    +0.000 C 
ATOM     20  C   UNL     1       2.699   6.431  17.957  0.00  0.00    +0.000 C 
ATOM     21  C   UNL     1       2.680   7.950  18.236  0.00  0.00    +0.000 C 
ATOM     22  C   UNL     1       1.693   8.303  19.373  0.00  0.00    +0.000 C 
ATOM     23  C   UNL     1       2.007   7.480  20.638  0.00  0.00    +0.000 C 
ATOM     24  C   UNL     1       2.023   5.962  20.328  0.00  0.00    +0.000 C 
BRANCH  20  25
ATOM     25  O   UNL     1       1.379   6.074  17.507  0.00  0.00    +0.000 OA
ATOM     26  H   UNL     1       0.989   5.458  18.153  0.00  0.00    +0.000 HD
ENDBRANCH  20  25
BRANCH  21  27
ATOM     27  O   UNL     1       2.314   8.633  17.032  0.00  0.00    +0.000 OA
ATOM     28  H   UNL     1       1.504   8.190  16.710  0.00  0.00    +0.000 HD
ENDBRANCH  21  27
BRANCH  22  29
ATOM     29  O   UNL     1       1.740   9.710  19.654  0.00  0.00    +0.000 OA
ATOM     30  H   UNL     1       0.907  10.117  19.362  0.00  0.00    +0.000 HD
ENDBRANCH  22  29
BRANCH  23  31
ATOM     31  O   UNL     1       1.073   7.793  21.678  0.00  0.00    +0.000 OA
ATOM     32  H   UNL     1       0.295   8.222  21.282  0.00  0.00    +0.000 HD
ENDBRANCH  23  31
BRANCH  24  33
ATOM     33  O   UNL     1       2.237   5.228  21.535  0.00  0.00    +0.000 OA
ATOM     34  H   UNL     1       1.429   5.311  22.088  0.00  0.00    +0.000 HD
ENDBRANCH  24  33
ENDBRANCH  18  19
ENDBRANCH   1  18
TORSDOF 13
ENDMDL
MODEL 7
REMARK VINA RESULT:      -6.1      2.805      8.675
REMARK  Name = 
REMARK  15 active torsions:
REMARK  status: ('A' for Active; 'I' for Inactive)
REMARK    1  A    between atoms: C_1  and  N_2
REMARK    2  A    between atoms: N_2  and  C_3
REMARK    3  A    between atoms: C_3  and  C_4
REMARK    4  A    between atoms: C_3  and  C_5
REMARK    5  A    between atoms: C_5  and  O_6
REMARK    6  A    between atoms: C_5  and  C_22
REMARK    7  A    between atoms: O_6  and  P_7
REMARK    8  A    between atoms: P_7  and  O_9
REMARK    9  A    between atoms: P_7  and  O_10
REMARK   10  A    between atoms: O_10  and  C_11
REMARK   11  A    between atoms: C_12  and  O_13
REMARK   12  A    between atoms: C_14  and  O_15
REMARK   13  A    between atoms: C_16  and  O_17
REMARK   14  A    between atoms: C_18  and  O_19
REMARK   15  A    between atoms: C_20  and  O_21
REMARK                            x       y       z     vdW  Elec       q    Type
REMARK                         _______ _______ _______ _____ _____    ______ ____
ROOT
ATOM      1  P   UNL     1       2.182   8.615  18.795  0.00  0.00    +0.000 P 
ATOM      2  O   UNL     1       1.298   7.913  17.745  0.00  0.00    +0.000 OA
ENDROOT
BRANCH   1   3
ATOM      3  O   UNL     1       1.043   9.146  19.845  0.00  0.00    +0.000 OA
ATOM      4  H   UNL     1       0.230   8.666  19.616  0.00  0.00    +0.000 HD
ENDBRANCH   1   3
BRANCH   1   5
ATOM      5  O   UNL     1       2.262   7.103  19.631  0.00  0.00    +0.000 OA
BRANCH   5   6
ATOM      6  C   UNL     1       2.666   6.146  18.580  0.00  0.00    +0.000 C 
BRANCH   6   7
ATOM      7  C   UNL     1       2.130   4.721  18.833  0.00  0.00    +0.000 A 
ATOM      8  C   UNL     1       1.589   4.390  20.093  0.00  0.00    +0.000 A 
ATOM      9  C   UNL     1       1.112   3.105  20.374  0.00  0.00    +0.000 A 
ATOM     10  C   UNL     1       1.157   2.116  19.394  0.00  0.00    +0.000 A 
ATOM     11  C   UNL     1       1.671   2.429  18.135  0.00  0.00    +0.000 A 
ATOM     12  C   UNL     1       2.156   3.721  17.856  0.00  0.00    +0.000 A 
ENDBRANCH   6   7
BRANCH   6  13
ATOM     13  C   UNL     1       4.191   6.252  18.311  0.00  0.00    +0.000 C 
ATOM     14  C   UNL     1       5.025   5.284  19.166  0.00  0.00    +0.000 C 
BRANCH  13  16
ATOM     15  C   UNL     1       5.403   4.999  16.541  0.00  0.00    +0.000 C 
ATOM     16  N   UNL     1       4.506   6.105  16.867  0.00  0.00    +0.000 NA
ATOM     17  H   UNL     1       3.613   5.925  16.396  0.00  0.00    +0.000 HD
ENDBRANCH  13  16
ENDBRANCH   6  13
ENDBRANCH   5   6
ENDBRANCH   1   5
BRANCH   1  18
ATOM     18  O   UNL     1       2.102  10.127  17.959  0.00  0.00    +0.000 OA
BRANCH  18  19
ATOM     19  C   UNL     1       1.191  11.101  18.546  0.00  0.00    +0.000 C 
ATOM     20  C   UNL     1       1.861  12.478  18.695  0.00  0.00    +0.000 C 
ATOM     21  C   UNL     1       0.955  13.416  19.522  0.00  0.00    +0.000 C 
ATOM     22  C   UNL     1      -0.434  13.584  18.862  0.00  0.00    +0.000 C 
ATOM     23  C   UNL     1      -1.086  12.210  18.613  0.00  0.00    +0.000 C 
ATOM     24  C   UNL     1      -0.153  11.289  17.786  0.00  0.00    +0.000 C 
BRANCH  20  25
ATOM     25  O   UNL     1       2.066  13.113  17.420  0.00  0.00    +0.000 OA
ATOM     26  H   UNL     1       1.197  13.360  17.055  0.00  0.00    +0.000 HD
ENDBRANCH  20  25
BRANCH  21  27
ATOM     27  O   UNL     1       1.602  14.688  19.646  0.00  0.00    +0.000 OA
ATOM     28  H   UNL     1       2.561  14.501  19.627  0.00  0.00    +0.000 HD
ENDBRANCH  21  27
BRANCH  22  29
ATOM     29  O   UNL     1      -1.277  14.409  19.679  0.00  0.00    +0.000 OA
ATOM     30  H   UNL     1      -2.204  14.261  19.428  0.00  0.00    +0.000 HD
ENDBRANCH  22  29
BRANCH  23  31
ATOM     31  O   UNL     1      -2.359  12.372  17.978  0.00  0.00    +0.000 OA
ATOM     32  H   UNL     1      -2.920  12.934  18.538  0.00  0.00    +0.000 HD
ENDBRANCH  23  31
BRANCH  24  33
ATOM     33  O   UNL     1      -0.819  10.057  17.508  0.00  0.00    +0.000 OA
ATOM     34  H   UNL     1      -0.143   9.344  17.490  0.00  0.00    +0.000 HD
ENDBRANCH  24  33
ENDBRANCH  18  19
ENDBRANCH   1  18
TORSDOF 13
ENDMDL
MODEL 8
REMARK VINA RESULT:      -6.1      2.705      8.063
REMARK  Name = 
REMARK  15 active torsions:
REMARK  status: ('A' for Active; 'I' for Inactive)
REMARK    1  A    between atoms: C_1  and  N_2
REMARK    2  A    between atoms: N_2  and  C_3
REMARK    3  A    between atoms: C_3  and  C_4
REMARK    4  A    between atoms: C_3  and  C_5
REMARK    5  A    between atoms: C_5  and  O_6
REMARK    6  A    between atoms: C_5  and  C_22
REMARK    7  A    between atoms: O_6  and  P_7
REMARK    8  A    between atoms: P_7  and  O_9
REMARK    9  A    between atoms: P_7  and  O_10
REMARK   10  A    between atoms: O_10  and  C_11
REMARK   11  A    between atoms: C_12  and  O_13
REMARK   12  A    between atoms: C_14  and  O_15
REMARK   13  A    between atoms: C_16  and  O_17
REMARK   14  A    between atoms: C_18  and  O_19
REMARK   15  A    between atoms: C_20  and  O_21
REMARK                            x       y       z     vdW  Elec       q    Type
REMARK                         _______ _______ _______ _____ _____    ______ ____
ROOT
ATOM      1  P   UNL     1       2.325   6.850  18.840  0.00  0.00    +0.000 P 
ATOM      2  O   UNL     1       3.207   6.055  19.823  0.00  0.00    +0.000 OA
ENDROOT
BRANCH   1   3
ATOM      3  O   UNL     1       3.472   7.545  17.899  0.00  0.00    +0.000 OA
ATOM      4  H   UNL     1       3.010   8.220  17.376  0.00  0.00    +0.000 HD
ENDBRANCH   1   3
BRANCH   1   5
ATOM      5  O   UNL     1       2.325   5.451  17.823  0.00  0.00    +0.000 OA
BRANCH   5   6
ATOM      6  C   UNL     1       3.329   4.567  18.448  0.00  0.00    +0.000 C 
BRANCH   6   7
ATOM      7  C   UNL     1       4.654   4.514  17.657  0.00  0.00    +0.000 A 
ATOM      8  C   UNL     1       4.640   4.138  16.297  0.00  0.00    +0.000 A 
ATOM      9  C   UNL     1       5.819   4.055  15.547  0.00  0.00    +0.000 A 
ATOM     10  C   UNL     1       7.044   4.355  16.138  0.00  0.00    +0.000 A 
ATOM     11  C   UNL     1       7.075   4.748  17.476  0.00  0.00    +0.000 A 
ATOM     12  C   UNL     1       5.889   4.825  18.231  0.00  0.00    +0.000 A 
ENDBRANCH   6   7
BRANCH   6  13
ATOM     13  C   UNL     1       2.698   3.191  18.793  0.00  0.00    +0.000 C 
ATOM     14  C   UNL     1       3.704   2.200  19.403  0.00  0.00    +0.000 C 
BRANCH  13  16
ATOM     15  C   UNL     1       1.736   3.173  21.084  0.00  0.00    +0.000 C 
ATOM     16  N   UNL     1       1.496   3.337  19.652  0.00  0.00    +0.000 NA
ATOM     17  H   UNL     1       1.153   4.293  19.506  0.00  0.00    +0.000 HD
ENDBRANCH  13  16
ENDBRANCH   6  13
ENDBRANCH   5   6
ENDBRANCH   1   5
BRANCH   1  18
ATOM     18  O   UNL     1       2.325   8.250  19.857  0.00  0.00    +0.000 OA
BRANCH  18  19
ATOM     19  C   UNL     1       1.111   9.052  19.789  0.00  0.00    +0.000 C 
ATOM     20  C   UNL     1       0.667   9.516  21.187  0.00  0.00    +0.000 C 
ATOM     21  C   UNL     1      -0.733  10.164  21.105  0.00  0.00    +0.000 C 
ATOM     22  C   UNL     1      -0.742  11.365  20.132  0.00  0.00    +0.000 C 
ATOM     23  C   UNL     1      -0.209  10.947  18.748  0.00  0.00    +0.000 C 
ATOM     24  C   UNL     1       1.193  10.298  18.861  0.00  0.00    +0.000 C 
BRANCH  20  25
ATOM     25  O   UNL     1       1.555  10.513  21.726  0.00  0.00    +0.000 OA
ATOM     26  H   UNL     1       2.461  10.156  21.717  0.00  0.00    +0.000 HD
ENDBRANCH  20  25
BRANCH  21  27
ATOM     27  O   UNL     1      -1.121  10.585  22.417  0.00  0.00    +0.000 OA
ATOM     28  H   UNL     1      -0.870  11.528  22.480  0.00  0.00    +0.000 HD
ENDBRANCH  21  27
BRANCH  22  29
ATOM     29  O   UNL     1      -2.066  11.910  20.026  0.00  0.00    +0.000 OA
ATOM     30  H   UNL     1      -2.605  11.576  20.763  0.00  0.00    +0.000 HD
ENDBRANCH  22  29
BRANCH  23  31
ATOM     31  O   UNL     1      -0.196  12.071  17.860  0.00  0.00    +0.000 OA
ATOM     32  H   UNL     1      -0.740  11.862  17.082  0.00  0.00    +0.000 HD
ENDBRANCH  23  31
BRANCH  24  33
ATOM     33  O   UNL     1       1.689   9.995  17.556  0.00  0.00    +0.000 OA
ATOM     34  H   UNL     1       2.207  10.768  17.242  0.00  0.00    +0.000 HD
ENDBRANCH  24  33
ENDBRANCH  18  19
ENDBRANCH   1  18
TORSDOF 13
ENDMDL
MODEL 9
REMARK VINA RESULT:      -6.1      2.900      8.042
REMARK  Name = 
REMARK  15 active torsions:
REMARK  status: ('A' for Active; 'I' for Inactive)
REMARK    1  A    between atoms: C_1  and  N_2
REMARK    2  A    between atoms: N_2  and  C_3
REMARK    3  A    between atoms: C_3  and  C_4
REMARK    4  A    between atoms: C_3  and  C_5
REMARK    5  A    between atoms: C_5  and  O_6
REMARK    6  A    between atoms: C_5  and  C_22
REMARK    7  A    between atoms: O_6  and  P_7
REMARK    8  A    between atoms: P_7  and  O_9
REMARK    9  A    between atoms: P_7  and  O_10
REMARK   10  A    between atoms: O_10  and  C_11
REMARK   11  A    between atoms: C_12  and  O_13
REMARK   12  A    between atoms: C_14  and  O_15
REMARK   13  A    between atoms: C_16  and  O_17
REMARK   14  A    between atoms: C_18  and  O_19
REMARK   15  A    between atoms: C_20  and  O_21
REMARK                            x       y       z     vdW  Elec       q    Type
REMARK                         _______ _______ _______ _____ _____    ______ ____
ROOT
ATOM      1  P   UNL     1       2.471   6.240  19.356  0.00  0.00    +0.000 P 
ATOM      2  O   UNL     1       1.316   5.647  20.186  0.00  0.00    +0.000 OA
ENDROOT
BRANCH   1   3
ATOM      3  O   UNL     1       3.763   5.696  20.203  0.00  0.00    +0.000 OA
ATOM      4  H   UNL     1       3.711   4.727  20.169  0.00  0.00    +0.000 HD
ENDBRANCH   1   3
BRANCH   1   5
ATOM      5  O   UNL     1       2.454   4.782  18.425  0.00  0.00    +0.000 OA
BRANCH   5   6
ATOM      6  C   UNL     1       3.709   4.107  18.814  0.00  0.00    +0.000 C 
BRANCH   6   7
ATOM      7  C   UNL     1       4.810   4.229  17.739  0.00  0.00    +0.000 A 
ATOM      8  C   UNL     1       6.131   4.541  18.124  0.00  0.00    +0.000 A 
ATOM      9  C   UNL     1       7.156   4.682  17.182  0.00  0.00    +0.000 A 
ATOM     10  C   UNL     1       6.887   4.505  15.827  0.00  0.00    +0.000 A 
ATOM     11  C   UNL     1       5.591   4.177  15.429  0.00  0.00    +0.000 A 
ATOM     12  C   UNL     1       4.559   4.041  16.377  0.00  0.00    +0.000 A 
ENDBRANCH   6   7
BRANCH   6  13
ATOM     13  C   UNL     1       3.415   2.667  19.314  0.00  0.00    +0.000 C 
ATOM     14  C   UNL     1       4.542   2.089  20.186  0.00  0.00    +0.000 C 
BRANCH  13  16
ATOM     15  C   UNL     1       2.164   2.634  21.461  0.00  0.00    +0.000 C 
ATOM     16  N   UNL     1       2.102   2.580  20.002  0.00  0.00    +0.000 NA
ATOM     17  H   UNL     1       1.560   3.392  19.687  0.00  0.00    +0.000 HD
ENDBRANCH  13  16
ENDBRANCH   6  13
ENDBRANCH   5   6
ENDBRANCH   1   5
BRANCH   1  18
ATOM     18  O   UNL     1       2.488   7.699  20.286  0.00  0.00    +0.000 OA
BRANCH  18  19
ATOM     19  C   UNL     1       1.284   8.511  20.167  0.00  0.00    +0.000 C 
ATOM     20  C   UNL     1       0.835   9.054  21.535  0.00  0.00    +0.000 C 
ATOM     21  C   UNL     1      -0.556   9.712  21.408  0.00  0.00    +0.000 C 
ATOM     22  C   UNL     1      -0.543  10.861  20.373  0.00  0.00    +0.000 C 
ATOM     23  C   UNL     1      -0.005  10.364  19.017  0.00  0.00    +0.000 C 
ATOM     24  C   UNL     1       1.388   9.705  19.175  0.00  0.00    +0.000 C 
BRANCH  20  25
ATOM     25  O   UNL     1       1.733  10.066  22.028  0.00  0.00    +0.000 OA
ATOM     26  H   UNL     1       2.419   9.635  22.567  0.00  0.00    +0.000 HD
ENDBRANCH  20  25
BRANCH  21  27
ATOM     27  O   UNL     1      -0.948  10.207  22.694  0.00  0.00    +0.000 OA
ATOM     28  H   UNL     1      -1.350   9.448  23.160  0.00  0.00    +0.000 HD
ENDBRANCH  21  27
BRANCH  22  29
ATOM     29  O   UNL     1      -1.859  11.416  20.229  0.00  0.00    +0.000 OA
ATOM     30  H   UNL     1      -2.080  11.917  21.032  0.00  0.00    +0.000 HD
ENDBRANCH  22  29
BRANCH  23  31
ATOM     31  O   UNL     1       0.028  11.440  18.072  0.00  0.00    +0.000 OA
ATOM     32  H   UNL     1      -0.535  11.209  17.314  0.00  0.00    +0.000 HD
ENDBRANCH  23  31
BRANCH  24  33
ATOM     33  O   UNL     1       1.889   9.328  17.892  0.00  0.00    +0.000 OA
ATOM     34  H   UNL     1       2.100   8.369  17.919  0.00  0.00    +0.000 HD
ENDBRANCH  24  33
ENDBRANCH  18  19
ENDBRANCH   1  18
TORSDOF 13
ENDMDL
