MODEL 1
REMARK VINA RESULT:      -7.0      0.000      0.000
REMARK  Name = 
REMARK  5 active torsions:
REMARK  status: ('A' for Active; 'I' for Inactive)
REMARK    1  A    between atoms: C_2  and  C_3
REMARK    2  A    between atoms: C_3  and  S_4
REMARK    3  A    between atoms: S_4  and  C_5
REMARK    4  A    between atoms: N_10  and  N_11
REMARK    5  A    between atoms: C_12  and  C_14
REMARK                            x       y       z     vdW  Elec       q    Type
REMARK                         _______ _______ _______ _____ _____    ______ ____
ROOT
ATOM      1  O   UNL     1       2.108   4.327  21.496  0.00  0.00    +0.000 OA
ATOM      2  C   UNL     1       2.678   4.733  20.481  0.00  0.00    +0.000 C 
ATOM      3  N   UNL     1       2.643   6.055  20.087  0.00  0.00    +0.000 N 
ATOM      4  H   UNL     1       2.869   6.342  19.133  0.00  0.00    +0.000 HD
ENDROOT
BRANCH   3   5
ATOM      5  N   UNL     1       1.822   6.940  20.793  0.00  0.00    +0.000 N 
ATOM      6  C   UNL     1       1.550   8.165  20.225  0.00  0.00    +0.000 C 
ATOM      7  O   UNL     1       1.971   8.469  19.109  0.00  0.00    +0.000 OA
ATOM      8  H   UNL     1       1.533   6.660  21.729  0.00  0.00    +0.000 HD
BRANCH   6   9
ATOM      9  C   UNL     1       0.667   9.105  20.973  0.00  0.00    +0.000 A 
ATOM     10  C   UNL     1       0.673   8.955  22.375  0.00  0.00    +0.000 A 
ATOM     11  C   UNL     1      -0.088   9.788  23.194  0.00  0.00    +0.000 A 
ATOM     12  C   UNL     1      -0.871  10.786  22.628  0.00  0.00    +0.000 A 
ATOM     13  C   UNL     1      -0.908  10.935  21.241  0.00  0.00    +0.000 A 
ATOM     14  C   UNL     1      -0.151  10.096  20.408  0.00  0.00    +0.000 A 
ATOM     15 BR   UNL     1      -0.389  10.363  18.541  0.00  0.00    +0.000 Br
ENDBRANCH   6   9
ENDBRANCH   3   5
BRANCH   2  16
ATOM     16  C   UNL     1       3.520   3.847  19.578  0.00  0.00    +0.000 C 
BRANCH  16  17
ATOM     17  S   UNL     1       3.941   4.688  18.028  0.00  0.00    +0.000 S 
BRANCH  17  18
ATOM     18  C   UNL     1       5.573   5.196  18.382  0.00  0.00    +0.000 A 
ATOM     19  N   UNL     1       6.301   4.628  19.321  0.00  0.00    +0.000 NA
ATOM     20  N   UNL     1       7.541   5.225  19.447  0.00  0.00    +0.000 NA
ATOM     21  C   UNL     1       7.694   6.213  18.591  0.00  0.00    +0.000 A 
ATOM     22  S   UNL     1       6.354   6.475  17.554  0.00  0.00    +0.000 S 
ENDBRANCH  17  18
ENDBRANCH  16  17
ENDBRANCH   2  16
TORSDOF 5
ENDMDL
MODEL 2
REMARK VINA RESULT:      -6.7      5.579      8.220
REMARK  Name = 
REMARK  5 active torsions:
REMARK  status: ('A' for Active; 'I' for Inactive)
REMARK    1  A    between atoms: C_2  and  C_3
REMARK    2  A    between atoms: C_3  and  S_4
REMARK    3  A    between atoms: S_4  and  C_5
REMARK    4  A    between atoms: N_10  and  N_11
REMARK    5  A    between atoms: C_12  and  C_14
REMARK                            x       y       z     vdW  Elec       q    Type
REMARK                         _______ _______ _______ _____ _____    ______ ____
ROOT
ATOM      1  O   UNL     1       7.705   7.755  16.953  0.00  0.00    +0.000 OA
ATOM      2  C   UNL     1       7.997   7.500  18.123  0.00  0.00    +0.000 C 
ATOM      3  N   UNL     1       8.577   8.427  18.965  0.00  0.00    +0.000 N 
ATOM      4  H   UNL     1       9.062   8.154  19.821  0.00  0.00    +0.000 HD
ENDROOT
BRANCH   3   5
ATOM      5  N   UNL     1       8.970   9.659  18.430  0.00  0.00    +0.000 N 
ATOM      6  C   UNL     1       9.426  10.626  19.297  0.00  0.00    +0.000 C 
ATOM      7  O   UNL     1       9.533  10.414  20.505  0.00  0.00    +0.000 OA
ATOM      8  H   UNL     1       8.822   9.800  17.431  0.00  0.00    +0.000 HD
BRANCH   6   9
ATOM      9  C   UNL     1       9.853  11.936  18.727  0.00  0.00    +0.000 A 
ATOM     10  C   UNL     1      10.698  11.859  17.602  0.00  0.00    +0.000 A 
ATOM     11  C   UNL     1      11.150  13.010  16.956  0.00  0.00    +0.000 A 
ATOM     12  C   UNL     1      10.766  14.260  17.426  0.00  0.00    +0.000 A 
ATOM     13  C   UNL     1       9.948  14.357  18.552  0.00  0.00    +0.000 A 
ATOM     14  C   UNL     1       9.496  13.204  19.212  0.00  0.00    +0.000 A 
ATOM     15 BR   UNL     1       8.475  13.508  20.787  0.00  0.00    +0.000 Br
ENDBRANCH   6   9
ENDBRANCH   3   5
BRANCH   2  16
ATOM     16  C   UNL     1       7.709   6.165  18.790  0.00  0.00    +0.000 C 
BRANCH  16  17
ATOM     17  S   UNL     1       7.420   4.859  17.565  0.00  0.00    +0.000 S 
BRANCH  17  18
ATOM     18  C   UNL     1       5.698   4.639  17.745  0.00  0.00    +0.000 A 
ATOM     19  N   UNL     1       4.966   4.028  16.837  0.00  0.00    +0.000 NA
ATOM     20  N   UNL     1       3.627   4.011  17.177  0.00  0.00    +0.000 NA
ATOM     21  C   UNL     1       3.411   4.606  18.332  0.00  0.00    +0.000 A 
ATOM     22  S   UNL     1       4.820   5.207  19.102  0.00  0.00    +0.000 S 
ENDBRANCH  17  18
ENDBRANCH  16  17
ENDBRANCH   2  16
TORSDOF 5
ENDMDL
MODEL 3
REMARK VINA RESULT:      -6.6      1.486      2.018
REMARK  Name = 
REMARK  5 active torsions:
REMARK  status: ('A' for Active; 'I' for Inactive)
REMARK    1  A    between atoms: C_2  and  C_3
REMARK    2  A    between atoms: C_3  and  S_4
REMARK    3  A    between atoms: S_4  and  C_5
REMARK    4  A    between atoms: N_10  and  N_11
REMARK    5  A    between atoms: C_12  and  C_14
REMARK                            x       y       z     vdW  Elec       q    Type
REMARK                         _______ _______ _______ _____ _____    ______ ____
ROOT
ATOM      1  O   UNL     1       2.368   7.498  18.633  0.00  0.00    +0.000 OA
ATOM      2  C   UNL     1       2.427   6.853  19.682  0.00  0.00    +0.000 C 
ATOM      3  N   UNL     1       1.895   7.313  20.869  0.00  0.00    +0.000 N 
ATOM      4  H   UNL     1       2.173   6.928  21.774  0.00  0.00    +0.000 HD
ENDROOT
BRANCH   3   5
ATOM      5  N   UNL     1       1.388   8.616  20.912  0.00  0.00    +0.000 N 
ATOM      6  C   UNL     1       0.088   8.793  21.331  0.00  0.00    +0.000 C 
ATOM      7  O   UNL     1      -0.606   7.847  21.704  0.00  0.00    +0.000 OA
ATOM      8  H   UNL     1       1.987   9.359  20.553  0.00  0.00    +0.000 HD
BRANCH   6   9
ATOM      9  C   UNL     1      -0.450  10.182  21.385  0.00  0.00    +0.000 A 
ATOM     10  C   UNL     1      -0.653  10.702  22.680  0.00  0.00    +0.000 A 
ATOM     11  C   UNL     1      -1.128  12.000  22.871  0.00  0.00    +0.000 A 
ATOM     12  C   UNL     1      -1.411  12.801  21.772  0.00  0.00    +0.000 A 
ATOM     13  C   UNL     1      -1.237  12.296  20.483  0.00  0.00    +0.000 A 
ATOM     14  C   UNL     1      -0.768  10.989  20.281  0.00  0.00    +0.000 A 
ATOM     15 BR   UNL     1      -0.683  10.418  18.470  0.00  0.00    +0.000 Br
ENDBRANCH   6   9
ENDBRANCH   3   5
BRANCH   2  16
ATOM     16  C   UNL     1       3.041   5.467  19.784  0.00  0.00    +0.000 C 
BRANCH  16  17
ATOM     17  S   UNL     1       3.235   4.705  18.149  0.00  0.00    +0.000 S 
BRANCH  17  18
ATOM     18  C   UNL     1       4.975   4.709  18.008  0.00  0.00    +0.000 A 
ATOM     19  N   UNL     1       5.765   4.385  19.009  0.00  0.00    +0.000 NA
ATOM     20  N   UNL     1       7.101   4.502  18.675  0.00  0.00    +0.000 NA
ATOM     21  C   UNL     1       7.256   4.905  17.431  0.00  0.00    +0.000 A 
ATOM     22  S   UNL     1       5.794   5.146  16.569  0.00  0.00    +0.000 S 
ENDBRANCH  17  18
ENDBRANCH  16  17
ENDBRANCH   2  16
TORSDOF 5
ENDMDL
MODEL 4
REMARK VINA RESULT:      -6.6      1.720      1.859
REMARK  Name = 
REMARK  5 active torsions:
REMARK  status: ('A' for Active; 'I' for Inactive)
REMARK    1  A    between atoms: C_2  and  C_3
REMARK    2  A    between atoms: C_3  and  S_4
REMARK    3  A    between atoms: S_4  and  C_5
REMARK    4  A    between atoms: N_10  and  N_11
REMARK    5  A    between atoms: C_12  and  C_14
REMARK                            x       y       z     vdW  Elec       q    Type
REMARK                         _______ _______ _______ _____ _____    ______ ____
ROOT
ATOM      1  O   UNL     1       1.323   4.987  20.593  0.00  0.00    +0.000 OA
ATOM      2  C   UNL     1       2.240   5.451  19.912  0.00  0.00    +0.000 C 
ATOM      3  N   UNL     1       2.653   6.765  20.015  0.00  0.00    +0.000 N 
ATOM      4  H   UNL     1       3.204   7.219  19.284  0.00  0.00    +0.000 HD
ENDROOT
BRANCH   3   5
ATOM      5  N   UNL     1       1.915   7.634  20.825  0.00  0.00    +0.000 N 
ATOM      6  C   UNL     1       1.349   8.744  20.238  0.00  0.00    +0.000 C 
ATOM      7  O   UNL     1       1.442   8.954  19.029  0.00  0.00    +0.000 OA
ATOM      8  H   UNL     1       1.903   7.439  21.825  0.00  0.00    +0.000 HD
BRANCH   6   9
ATOM      9  C   UNL     1       0.555   9.666  21.100  0.00  0.00    +0.000 A 
ATOM     10  C   UNL     1      -0.028   9.077  22.240  0.00  0.00    +0.000 A 
ATOM     11  C   UNL     1      -0.774   9.834  23.143  0.00  0.00    +0.000 A 
ATOM     12  C   UNL     1      -0.953  11.193  22.922  0.00  0.00    +0.000 A 
ATOM     13  C   UNL     1      -0.403  11.790  21.787  0.00  0.00    +0.000 A 
ATOM     14  C   UNL     1       0.343  11.034  20.869  0.00  0.00    +0.000 A 
ATOM     15 BR   UNL     1       0.937  11.972  19.326  0.00  0.00    +0.000 Br
ENDBRANCH   6   9
ENDBRANCH   3   5
BRANCH   2  16
ATOM     16  C   UNL     1       3.053   4.631  18.925  0.00  0.00    +0.000 C 
BRANCH  16  17
ATOM     17  S   UNL     1       4.834   4.833  19.200  0.00  0.00    +0.000 S 
BRANCH  17  18
ATOM     18  C   UNL     1       5.428   4.608  17.575  0.00  0.00    +0.000 A 
ATOM     19  N   UNL     1       4.633   4.329  16.564  0.00  0.00    +0.000 NA
ATOM     20  N   UNL     1       5.333   4.154  15.385  0.00  0.00    +0.000 NA
ATOM     21  C   UNL     1       6.628   4.316  15.561  0.00  0.00    +0.000 A 
ATOM     22  S   UNL     1       7.088   4.717  17.163  0.00  0.00    +0.000 S 
ENDBRANCH  17  18
ENDBRANCH  16  17
ENDBRANCH   2  16
TORSDOF 5
ENDMDL
MODEL 5
REMARK VINA RESULT:      -6.5      5.835      8.179
REMARK  Name = 
REMARK  5 active torsions:
REMARK  status: ('A' for Active; 'I' for Inactive)
REMARK    1  A    between atoms: C_2  and  C_3
REMARK    2  A    between atoms: C_3  and  S_4
REMARK    3  A    between atoms: S_4  and  C_5
REMARK    4  A    between atoms: N_10  and  N_11
REMARK    5  A    between atoms: C_12  and  C_14
REMARK                            x       y       z     vdW  Elec       q    Type
REMARK                         _______ _______ _______ _____ _____    ______ ____
ROOT
ATOM      1  O   UNL     1       7.343   7.906  17.089  0.00  0.00    +0.000 OA
ATOM      2  C   UNL     1       7.902   7.534  18.124  0.00  0.00    +0.000 C 
ATOM      3  N   UNL     1       8.667   8.379  18.901  0.00  0.00    +0.000 N 
ATOM      4  H   UNL     1       9.339   8.026  19.585  0.00  0.00    +0.000 HD
ENDROOT
BRANCH   3   5
ATOM      5  N   UNL     1       8.927   9.669  18.427  0.00  0.00    +0.000 N 
ATOM      6  C   UNL     1       9.242  10.646  19.345  0.00  0.00    +0.000 C 
ATOM      7  O   UNL     1       9.341  10.397  20.547  0.00  0.00    +0.000 OA
ATOM      8  H   UNL     1       8.790   9.834  17.431  0.00  0.00    +0.000 HD
BRANCH   6   9
ATOM      9  C   UNL     1       9.527  12.019  18.840  0.00  0.00    +0.000 A 
ATOM     10  C   UNL     1       8.464  12.645  18.156  0.00  0.00    +0.000 A 
ATOM     11  C   UNL     1       8.591  13.941  17.655  0.00  0.00    +0.000 A 
ATOM     12  C   UNL     1       9.782  14.634  17.825  0.00  0.00    +0.000 A 
ATOM     13  C   UNL     1      10.853  14.022  18.479  0.00  0.00    +0.000 A 
ATOM     14  C   UNL     1      10.737  12.716  18.979  0.00  0.00    +0.000 A 
ATOM     15 BR   UNL     1      12.316  11.991  19.752  0.00  0.00    +0.000 Br
ENDBRANCH   6   9
ENDBRANCH   3   5
BRANCH   2  16
ATOM     16  C   UNL     1       7.775   6.129  18.689  0.00  0.00    +0.000 C 
BRANCH  16  17
ATOM     17  S   UNL     1       7.251   4.946  17.419  0.00  0.00    +0.000 S 
BRANCH  17  18
ATOM     18  C   UNL     1       5.544   4.847  17.770  0.00  0.00    +0.000 A 
ATOM     19  N   UNL     1       4.636   5.451  17.034  0.00  0.00    +0.000 NA
ATOM     20  N   UNL     1       3.359   5.264  17.529  0.00  0.00    +0.000 NA
ATOM     21  C   UNL     1       3.363   4.521  18.616  0.00  0.00    +0.000 A 
ATOM     22  S   UNL     1       4.914   3.974  19.102  0.00  0.00    +0.000 S 
ENDBRANCH  17  18
ENDBRANCH  16  17
ENDBRANCH   2  16
TORSDOF 5
ENDMDL
MODEL 6
REMARK VINA RESULT:      -6.5      3.841      7.404
REMARK  Name = 
REMARK  5 active torsions:
REMARK  status: ('A' for Active; 'I' for Inactive)
REMARK    1  A    between atoms: C_2  and  C_3
REMARK    2  A    between atoms: C_3  and  S_4
REMARK    3  A    between atoms: S_4  and  C_5
REMARK    4  A    between atoms: N_10  and  N_11
REMARK    5  A    between atoms: C_12  and  C_14
REMARK                            x       y       z     vdW  Elec       q    Type
REMARK                         _______ _______ _______ _____ _____    ______ ____
ROOT
ATOM      1  O   UNL     1       2.279   9.980  17.492  0.00  0.00    +0.000 OA
ATOM      2  C   UNL     1       1.468   9.918  18.419  0.00  0.00    +0.000 C 
ATOM      3  N   UNL     1       1.424   8.856  19.299  0.00  0.00    +0.000 N 
ATOM      4  H   UNL     1       0.604   8.666  19.879  0.00  0.00    +0.000 HD
ENDROOT
BRANCH   3   5
ATOM      5  N   UNL     1       2.241   7.748  19.049  0.00  0.00    +0.000 N 
ATOM      6  C   UNL     1       2.218   6.709  19.953  0.00  0.00    +0.000 C 
ATOM      7  O   UNL     1       1.472   6.719  20.932  0.00  0.00    +0.000 OA
ATOM      8  H   UNL     1       2.870   7.806  18.250  0.00  0.00    +0.000 HD
BRANCH   6   9
ATOM      9  C   UNL     1       3.082   5.525  19.683  0.00  0.00    +0.000 A 
ATOM     10  C   UNL     1       4.402   5.817  19.281  0.00  0.00    +0.000 A 
ATOM     11  C   UNL     1       5.321   4.801  19.022  0.00  0.00    +0.000 A 
ATOM     12  C   UNL     1       4.938   3.473  19.157  0.00  0.00    +0.000 A 
ATOM     13  C   UNL     1       3.630   3.163  19.532  0.00  0.00    +0.000 A 
ATOM     14  C   UNL     1       2.697   4.179  19.786  0.00  0.00    +0.000 A 
ATOM     15 BR   UNL     1       0.933   3.592  20.186  0.00  0.00    +0.000 Br
ENDBRANCH   6   9
ENDBRANCH   3   5
BRANCH   2  16
ATOM     16  C   UNL     1       0.464  11.014  18.733  0.00  0.00    +0.000 C 
BRANCH  16  17
ATOM     17  S   UNL     1       1.070  12.116  20.039  0.00  0.00    +0.000 S 
BRANCH  17  18
ATOM     18  C   UNL     1       0.316  11.388  21.435  0.00  0.00    +0.000 A 
ATOM     19  N   UNL     1       0.894  10.432  22.131  0.00  0.00    +0.000 NA
ATOM     20  N   UNL     1       0.092   9.984  23.164  0.00  0.00    +0.000 NA
ATOM     21  C   UNL     1      -1.056  10.629  23.201  0.00  0.00    +0.000 A 
ATOM     22  S   UNL     1      -1.235  11.842  22.004  0.00  0.00    +0.000 S 
ENDBRANCH  17  18
ENDBRANCH  16  17
ENDBRANCH   2  16
TORSDOF 5
ENDMDL
MODEL 7
REMARK VINA RESULT:      -6.5      1.319      1.319
REMARK  Name = 
REMARK  5 active torsions:
REMARK  status: ('A' for Active; 'I' for Inactive)
REMARK    1  A    between atoms: C_2  and  C_3
REMARK    2  A    between atoms: C_3  and  S_4
REMARK    3  A    between atoms: S_4  and  C_5
REMARK    4  A    between atoms: N_10  and  N_11
REMARK    5  A    between atoms: C_12  and  C_14
REMARK                            x       y       z     vdW  Elec       q    Type
REMARK                         _______ _______ _______ _____ _____    ______ ____
ROOT
ATOM      1  O   UNL     1       1.957   4.624  21.263  0.00  0.00    +0.000 OA
ATOM      2  C   UNL     1       2.633   5.092  20.344  0.00  0.00    +0.000 C 
ATOM      3  N   UNL     1       2.749   6.449  20.122  0.00  0.00    +0.000 N 
ATOM      4  H   UNL     1       3.068   6.827  19.228  0.00  0.00    +0.000 HD
ENDROOT
BRANCH   3   5
ATOM      5  N   UNL     1       1.965   7.320  20.886  0.00  0.00    +0.000 N 
ATOM      6  C   UNL     1       1.467   8.449  20.275  0.00  0.00    +0.000 C 
ATOM      7  O   UNL     1       1.659   8.676  19.080  0.00  0.00    +0.000 OA
ATOM      8  H   UNL     1       1.870   7.110  21.879  0.00  0.00    +0.000 HD
BRANCH   6   9
ATOM      9  C   UNL     1       0.624   9.373  21.086  0.00  0.00    +0.000 A 
ATOM     10  C   UNL     1       0.300   8.917  22.380  0.00  0.00    +0.000 A 
ATOM     11  C   UNL     1      -0.462   9.696  23.252  0.00  0.00    +0.000 A 
ATOM     12  C   UNL     1      -0.915  10.944  22.845  0.00  0.00    +0.000 A 
ATOM     13  C   UNL     1      -0.624  11.403  21.560  0.00  0.00    +0.000 A 
ATOM     14  C   UNL     1       0.135  10.622  20.674  0.00  0.00    +0.000 A 
ATOM     15 BR   UNL     1       0.358  11.344  18.929  0.00  0.00    +0.000 Br
ENDBRANCH   6   9
ENDBRANCH   3   5
BRANCH   2  16
ATOM     16  C   UNL     1       3.452   4.243  19.387  0.00  0.00    +0.000 C 
BRANCH  16  17
ATOM     17  S   UNL     1       3.308   4.840  17.680  0.00  0.00    +0.000 S 
BRANCH  17  18
ATOM     18  C   UNL     1       4.870   5.595  17.482  0.00  0.00    +0.000 A 
ATOM     19  N   UNL     1       5.152   6.378  16.463  0.00  0.00    +0.000 NA
ATOM     20  N   UNL     1       6.459   6.824  16.496  0.00  0.00    +0.000 NA
ATOM     21  C   UNL     1       7.104   6.360  17.547  0.00  0.00    +0.000 A 
ATOM     22  S   UNL     1       6.163   5.369  18.583  0.00  0.00    +0.000 S 
ENDBRANCH  17  18
ENDBRANCH  16  17
ENDBRANCH   2  16
TORSDOF 5
ENDMDL
MODEL 8
REMARK VINA RESULT:      -6.5      1.506      1.659
REMARK  Name = 
REMARK  5 active torsions:
REMARK  status: ('A' for Active; 'I' for Inactive)
REMARK    1  A    between atoms: C_2  and  C_3
REMARK    2  A    between atoms: C_3  and  S_4
REMARK    3  A    between atoms: S_4  and  C_5
REMARK    4  A    between atoms: N_10  and  N_11
REMARK    5  A    between atoms: C_12  and  C_14
REMARK                            x       y       z     vdW  Elec       q    Type
REMARK                         _______ _______ _______ _____ _____    ______ ____
ROOT
ATOM      1  O   UNL     1       2.417   4.358  21.408  0.00  0.00    +0.000 OA
ATOM      2  C   UNL     1       2.830   4.761  20.318  0.00  0.00    +0.000 C 
ATOM      3  N   UNL     1       2.668   6.066  19.897  0.00  0.00    +0.000 N 
ATOM      4  H   UNL     1       2.754   6.333  18.915  0.00  0.00    +0.000 HD
ENDROOT
BRANCH   3   5
ATOM      5  N   UNL     1       1.889   6.926  20.678  0.00  0.00    +0.000 N 
ATOM      6  C   UNL     1       1.543   8.149  20.147  0.00  0.00    +0.000 C 
ATOM      7  O   UNL     1       1.863   8.471  19.002  0.00  0.00    +0.000 OA
ATOM      8  H   UNL     1       1.686   6.632  21.632  0.00  0.00    +0.000 HD
BRANCH   6   9
ATOM      9  C   UNL     1       0.706   9.063  20.975  0.00  0.00    +0.000 A 
ATOM     10  C   UNL     1       0.702   8.792  22.359  0.00  0.00    +0.000 A 
ATOM     11  C   UNL     1      -0.019   9.588  23.249  0.00  0.00    +0.000 A 
ATOM     12  C   UNL     1      -0.752  10.667  22.773  0.00  0.00    +0.000 A 
ATOM     13  C   UNL     1      -0.778  10.938  21.404  0.00  0.00    +0.000 A 
ATOM     14  C   UNL     1      -0.061  10.138  20.501  0.00  0.00    +0.000 A 
ATOM     15 BR   UNL     1      -0.282  10.577  18.664  0.00  0.00    +0.000 Br
ENDBRANCH   6   9
ENDBRANCH   3   5
BRANCH   2  16
ATOM     16  C   UNL     1       3.605   3.895  19.340  0.00  0.00    +0.000 C 
BRANCH  16  17
ATOM     17  S   UNL     1       5.341   4.407  19.229  0.00  0.00    +0.000 S 
BRANCH  17  18
ATOM     18  C   UNL     1       5.345   5.156  17.652  0.00  0.00    +0.000 A 
ATOM     19  N   UNL     1       4.828   6.346  17.435  0.00  0.00    +0.000 NA
ATOM     20  N   UNL     1       4.910   6.712  16.104  0.00  0.00    +0.000 NA
ATOM     21  C   UNL     1       5.493   5.780  15.379  0.00  0.00    +0.000 A 
ATOM     22  S   UNL     1       6.007   4.403  16.262  0.00  0.00    +0.000 S 
ENDBRANCH  17  18
ENDBRANCH  16  17
ENDBRANCH   2  16
TORSDOF 5
ENDMDL
MODEL 9
REMARK VINA RESULT:      -6.5      4.219      7.945
REMARK  Name = 
REMARK  5 active torsions:
REMARK  status: ('A' for Active; 'I' for Inactive)
REMARK    1  A    between atoms: C_2  and  C_3
REMARK    2  A    between atoms: C_3  and  S_4
REMARK    3  A    between atoms: S_4  and  C_5
REMARK    4  A    between atoms: N_10  and  N_11
REMARK    5  A    between atoms: C_12  and  C_14
REMARK                            x       y       z     vdW  Elec       q    Type
REMARK                         _______ _______ _______ _____ _____    ______ ____
ROOT
ATOM      1  O   UNL     1       2.053   9.337  17.472  0.00  0.00    +0.000 OA
ATOM      2  C   UNL     1       1.930   8.738  18.543  0.00  0.00    +0.000 C 
ATOM      3  N   UNL     1       2.650   7.600  18.846  0.00  0.00    +0.000 N 
ATOM      4  H   UNL     1       2.363   6.959  19.588  0.00  0.00    +0.000 HD
ENDROOT
BRANCH   3   5
ATOM      5  N   UNL     1       3.449   7.031  17.849  0.00  0.00    +0.000 N 
ATOM      6  C   UNL     1       4.343   6.050  18.216  0.00  0.00    +0.000 C 
ATOM      7  O   UNL     1       4.415   5.641  19.375  0.00  0.00    +0.000 OA
ATOM      8  H   UNL     1       3.382   7.433  16.915  0.00  0.00    +0.000 HD
BRANCH   6   9
ATOM      9  C   UNL     1       5.189   5.437  17.153  0.00  0.00    +0.000 A 
ATOM     10  C   UNL     1       4.630   4.317  16.505  0.00  0.00    +0.000 A 
ATOM     11  C   UNL     1       5.307   3.665  15.474  0.00  0.00    +0.000 A 
ATOM     12  C   UNL     1       6.557   4.121  15.072  0.00  0.00    +0.000 A 
ATOM     13  C   UNL     1       7.136   5.215  15.717  0.00  0.00    +0.000 A 
ATOM     14  C   UNL     1       6.465   5.871  16.760  0.00  0.00    +0.000 A 
ATOM     15 BR   UNL     1       7.431   7.277  17.600  0.00  0.00    +0.000 Br
ENDBRANCH   6   9
ENDBRANCH   3   5
BRANCH   2  16
ATOM     16  C   UNL     1       1.019   9.203  19.666  0.00  0.00    +0.000 C 
BRANCH  16  17
ATOM     17  S   UNL     1       0.101  10.696  19.202  0.00  0.00    +0.000 S 
BRANCH  17  18
ATOM     18  C   UNL     1       1.193  11.927  19.784  0.00  0.00    +0.000 A 
ATOM     19  N   UNL     1       1.356  12.179  21.065  0.00  0.00    +0.000 NA
ATOM     20  N   UNL     1       2.237  13.221  21.282  0.00  0.00    +0.000 NA
ATOM     21  C   UNL     1       2.704  13.705  20.150  0.00  0.00    +0.000 A 
ATOM     22  S   UNL     1       2.128  12.914  18.742  0.00  0.00    +0.000 S 
ENDBRANCH  17  18
ENDBRANCH  16  17
ENDBRANCH   2  16
TORSDOF 5
ENDMDL
