MODEL 1
REMARK VINA RESULT:      -5.9      0.000      0.000
REMARK  Name = 
REMARK  4 active torsions:
REMARK  status: ('A' for Active; 'I' for Inactive)
REMARK    1  A    between atoms: C_1  and  O_2
REMARK    2  A    between atoms: O_2  and  C_3
REMARK    3  A    between atoms: C_7  and  C_8
REMARK    4  A    between atoms: N_14  and  C_15
REMARK                            x       y       z     vdW  Elec       q    Type
REMARK                         _______ _______ _______ _____ _____    ______ ____
ROOT
ATOM      1  C   UNL     1       4.686   4.059  18.999  0.00  0.00    +0.000 C 
ATOM      2  O   UNL     1       5.504   3.501  19.749  0.00  0.00    +0.000 OA
ATOM      3  N   UNL     1       5.140   4.321  17.730  0.00  0.00    +0.000 N 
ATOM      4  C   UNL     1       6.460   3.954  17.233  0.00  0.00    +0.000 C 
ATOM      5  C   UNL     1       6.024   4.439  15.849  0.00  0.00    +0.000 C 
ATOM      6  C   UNL     1       7.067   5.364  15.247  0.00  0.00    +0.000 C 
ATOM      7  N   UNL     1       6.953   5.036  13.853  0.00  0.00    +0.000 N 
ATOM      8  C   UNL     1       7.887   5.546  12.876  0.00  0.00    +0.000 C 
ATOM      9  C   UNL     1       6.292   3.848  13.653  0.00  0.00    +0.000 C 
ATOM     10  O   UNL     1       6.201   3.230  12.605  0.00  0.00    +0.000 OA
ATOM     11  O   UNL     1       5.771   3.426  14.838  0.00  0.00    +0.000 OA
ATOM     12  C   UNL     1       4.741   5.006  16.520  0.00  0.00    +0.000 C 
ENDROOT
BRANCH   1  17
ATOM     13  C   UNL     1       2.598   5.553  19.639  0.00  0.00    +0.000 A 
ATOM     14  C   UNL     1       1.252   5.290  20.070  0.00  0.00    +0.000 A 
ATOM     15  C   UNL     1       1.007   3.954  20.269  0.00  0.00    +0.000 A 
ATOM     16  S   UNL     1       2.374   3.012  19.929  0.00  0.00    +0.000 S 
ATOM     17  C   UNL     1       3.339   4.393  19.464  0.00  0.00    +0.000 A 
BRANCH  13  19
ATOM     18  C   UNL     1       2.546   7.433  18.247  0.00  0.00    +0.000 C 
ATOM     19  O   UNL     1       3.118   6.774  19.373  0.00  0.00    +0.000 OA
ENDBRANCH  13  19
ENDBRANCH   1  17
TORSDOF 2
ENDMDL
MODEL 2
REMARK VINA RESULT:      -5.8      1.423      1.994
REMARK  Name = 
REMARK  4 active torsions:
REMARK  status: ('A' for Active; 'I' for Inactive)
REMARK    1  A    between atoms: C_1  and  O_2
REMARK    2  A    between atoms: O_2  and  C_3
REMARK    3  A    between atoms: C_7  and  C_8
REMARK    4  A    between atoms: N_14  and  C_15
REMARK                            x       y       z     vdW  Elec       q    Type
REMARK                         _______ _______ _______ _____ _____    ______ ____
ROOT
ATOM      1  C   UNL     1       4.885   4.377  18.964  0.00  0.00    +0.000 C 
ATOM      2  O   UNL     1       5.699   3.799  19.704  0.00  0.00    +0.000 OA
ATOM      3  N   UNL     1       5.296   4.549  17.665  0.00  0.00    +0.000 N 
ATOM      4  C   UNL     1       6.563   4.071  17.129  0.00  0.00    +0.000 C 
ATOM      5  C   UNL     1       6.096   4.521  15.744  0.00  0.00    +0.000 C 
ATOM      6  C   UNL     1       7.168   5.345  15.052  0.00  0.00    +0.000 C 
ATOM      7  N   UNL     1       6.967   4.962  13.682  0.00  0.00    +0.000 N 
ATOM      8  C   UNL     1       7.886   5.363  12.642  0.00  0.00    +0.000 C 
ATOM      9  C   UNL     1       6.221   3.814  13.570  0.00  0.00    +0.000 C 
ATOM     10  O   UNL     1       6.041   3.156  12.558  0.00  0.00    +0.000 OA
ATOM     11  O   UNL     1       5.730   3.483  14.795  0.00  0.00    +0.000 OA
ATOM     12  C   UNL     1       4.885   5.203  16.442  0.00  0.00    +0.000 C 
ENDROOT
BRANCH   1  17
ATOM     13  C   UNL     1       2.500   4.231  20.100  0.00  0.00    +0.000 A 
ATOM     14  C   UNL     1       1.481   5.182  20.455  0.00  0.00    +0.000 A 
ATOM     15  C   UNL     1       1.777   6.457  20.046  0.00  0.00    +0.000 A 
ATOM     16  S   UNL     1       3.273   6.527  19.253  0.00  0.00    +0.000 S 
ATOM     17  C   UNL     1       3.586   4.822  19.471  0.00  0.00    +0.000 A 
BRANCH  13  19
ATOM     18  C   UNL     1       1.847   2.561  21.603  0.00  0.00    +0.000 C 
ATOM     19  O   UNL     1       2.471   2.905  20.370  0.00  0.00    +0.000 OA
ENDBRANCH  13  19
ENDBRANCH   1  17
TORSDOF 2
ENDMDL
MODEL 3
REMARK VINA RESULT:      -5.6      3.910      5.830
REMARK  Name = 
REMARK  4 active torsions:
REMARK  status: ('A' for Active; 'I' for Inactive)
REMARK    1  A    between atoms: C_1  and  O_2
REMARK    2  A    between atoms: O_2  and  C_3
REMARK    3  A    between atoms: C_7  and  C_8
REMARK    4  A    between atoms: N_14  and  C_15
REMARK                            x       y       z     vdW  Elec       q    Type
REMARK                         _______ _______ _______ _____ _____    ______ ____
ROOT
ATOM      1  C   UNL     1       1.517   8.927  19.362  0.00  0.00    +0.000 C 
ATOM      2  O   UNL     1       1.761   9.674  18.400  0.00  0.00    +0.000 OA
ATOM      3  N   UNL     1       1.992   7.644  19.240  0.00  0.00    +0.000 N 
ATOM      4  C   UNL     1       2.767   7.153  18.109  0.00  0.00    +0.000 C 
ATOM      5  C   UNL     1       2.960   5.840  18.868  0.00  0.00    +0.000 C 
ATOM      6  C   UNL     1       2.636   4.650  17.982  0.00  0.00    +0.000 C 
ATOM      7  N   UNL     1       3.582   3.682  18.464  0.00  0.00    +0.000 N 
ATOM      8  C   UNL     1       3.779   2.418  17.794  0.00  0.00    +0.000 C 
ATOM      9  C   UNL     1       4.588   4.264  19.198  0.00  0.00    +0.000 C 
ATOM     10  O   UNL     1       5.616   3.730  19.579  0.00  0.00    +0.000 OA
ATOM     11  O   UNL     1       4.281   5.573  19.411  0.00  0.00    +0.000 OA
ATOM     12  C   UNL     1       1.934   6.365  19.912  0.00  0.00    +0.000 C 
ENDROOT
BRANCH   1  17
ATOM     13  C   UNL     1      -0.355  10.177  20.752  0.00  0.00    +0.000 A 
ATOM     14  C   UNL     1      -0.680  10.293  22.147  0.00  0.00    +0.000 A 
ATOM     15  C   UNL     1       0.233   9.671  22.961  0.00  0.00    +0.000 A 
ATOM     16  S   UNL     1       1.470   8.938  22.064  0.00  0.00    +0.000 S 
ATOM     17  C   UNL     1       0.782   9.414  20.530  0.00  0.00    +0.000 A 
BRANCH  13  19
ATOM     18  C   UNL     1      -0.733  12.034  19.380  0.00  0.00    +0.000 C 
ATOM     19  O   UNL     1      -1.073  10.695  19.728  0.00  0.00    +0.000 OA
ENDBRANCH  13  19
ENDBRANCH   1  17
TORSDOF 2
ENDMDL
MODEL 4
REMARK VINA RESULT:      -5.5      4.108      5.590
REMARK  Name = 
REMARK  4 active torsions:
REMARK  status: ('A' for Active; 'I' for Inactive)
REMARK    1  A    between atoms: C_1  and  O_2
REMARK    2  A    between atoms: O_2  and  C_3
REMARK    3  A    between atoms: C_7  and  C_8
REMARK    4  A    between atoms: N_14  and  C_15
REMARK                            x       y       z     vdW  Elec       q    Type
REMARK                         _______ _______ _______ _____ _____    ______ ____
ROOT
ATOM      1  C   UNL     1       2.122   8.432  18.273  0.00  0.00    +0.000 C 
ATOM      2  O   UNL     1       2.786   9.020  17.402  0.00  0.00    +0.000 OA
ATOM      3  N   UNL     1       2.397   7.093  18.412  0.00  0.00    +0.000 N 
ATOM      4  C   UNL     1       3.411   6.374  17.651  0.00  0.00    +0.000 C 
ATOM      5  C   UNL     1       3.131   5.148  18.520  0.00  0.00    +0.000 C 
ATOM      6  C   UNL     1       2.927   3.911  17.663  0.00  0.00    +0.000 C 
ATOM      7  N   UNL     1       3.495   2.896  18.506  0.00  0.00    +0.000 N 
ATOM      8  C   UNL     1       3.694   1.545  18.035  0.00  0.00    +0.000 C 
ATOM      9  C   UNL     1       4.283   3.428  19.497  0.00  0.00    +0.000 C 
ATOM     10  O   UNL     1       5.030   2.817  20.244  0.00  0.00    +0.000 OA
ATOM     11  O   UNL     1       4.139   4.782  19.500  0.00  0.00    +0.000 OA
ATOM     12  C   UNL     1       1.917   5.922  19.111  0.00  0.00    +0.000 C 
ENDROOT
BRANCH   1  17
ATOM     13  C   UNL     1       0.838   9.260  20.432  0.00  0.00    +0.000 A 
ATOM     14  C   UNL     1      -0.232  10.186  20.688  0.00  0.00    +0.000 A 
ATOM     15  C   UNL     1      -0.767  10.713  19.540  0.00  0.00    +0.000 A 
ATOM     16  S   UNL     1       0.014  10.119  18.158  0.00  0.00    +0.000 S 
ATOM     17  C   UNL     1       1.133   9.145  19.082  0.00  0.00    +0.000 A 
BRANCH  13  19
ATOM     18  C   UNL     1       1.485   9.153  22.678  0.00  0.00    +0.000 C 
ATOM     19  O   UNL     1       1.542   8.587  21.372  0.00  0.00    +0.000 OA
ENDBRANCH  13  19
ENDBRANCH   1  17
TORSDOF 2
ENDMDL
MODEL 5
REMARK VINA RESULT:      -5.5      4.250      6.301
REMARK  Name = 
REMARK  4 active torsions:
REMARK  status: ('A' for Active; 'I' for Inactive)
REMARK    1  A    between atoms: C_1  and  O_2
REMARK    2  A    between atoms: O_2  and  C_3
REMARK    3  A    between atoms: C_7  and  C_8
REMARK    4  A    between atoms: N_14  and  C_15
REMARK                            x       y       z     vdW  Elec       q    Type
REMARK                         _______ _______ _______ _____ _____    ______ ____
ROOT
ATOM      1  C   UNL     1       1.030   9.385  20.012  0.00  0.00    +0.000 C 
ATOM      2  O   UNL     1       0.984   9.281  21.249  0.00  0.00    +0.000 OA
ATOM      3  N   UNL     1       1.668   8.355  19.364  0.00  0.00    +0.000 N 
ATOM      4  C   UNL     1       2.229   7.184  20.024  0.00  0.00    +0.000 C 
ATOM      5  C   UNL     1       2.525   6.602  18.641  0.00  0.00    +0.000 C 
ATOM      6  C   UNL     1       3.957   6.101  18.560  0.00  0.00    +0.000 C 
ATOM      7  N   UNL     1       3.803   4.970  17.687  0.00  0.00    +0.000 N 
ATOM      8  C   UNL     1       4.888   4.047  17.447  0.00  0.00    +0.000 C 
ATOM      9  C   UNL     1       2.493   4.572  17.583  0.00  0.00    +0.000 C 
ATOM     10  O   UNL     1       2.080   3.547  17.066  0.00  0.00    +0.000 OA
ATOM     11  O   UNL     1       1.699   5.494  18.194  0.00  0.00    +0.000 OA
ATOM     12  C   UNL     1       2.123   7.980  18.043  0.00  0.00    +0.000 C 
ENDROOT
BRANCH   1  17
ATOM     13  C   UNL     1      -0.649  10.738  18.480  0.00  0.00    +0.000 A 
ATOM     14  C   UNL     1      -0.833  12.124  18.148  0.00  0.00    +0.000 A 
ATOM     15  C   UNL     1       0.131  12.935  18.693  0.00  0.00    +0.000 A 
ATOM     16  S   UNL     1       1.245  12.049  19.611  0.00  0.00    +0.000 S 
ATOM     17  C   UNL     1       0.431  10.530  19.325  0.00  0.00    +0.000 A 
BRANCH  13  19
ATOM     18  C   UNL     1      -2.163   9.962  16.873  0.00  0.00    +0.000 C 
ATOM     19  O   UNL     1      -1.442   9.717  18.077  0.00  0.00    +0.000 OA
ENDBRANCH  13  19
ENDBRANCH   1  17
TORSDOF 2
ENDMDL
MODEL 6
REMARK VINA RESULT:      -5.4      2.775      6.736
REMARK  Name = 
REMARK  4 active torsions:
REMARK  status: ('A' for Active; 'I' for Inactive)
REMARK    1  A    between atoms: C_1  and  O_2
REMARK    2  A    between atoms: O_2  and  C_3
REMARK    3  A    between atoms: C_7  and  C_8
REMARK    4  A    between atoms: N_14  and  C_15
REMARK                            x       y       z     vdW  Elec       q    Type
REMARK                         _______ _______ _______ _____ _____    ______ ____
ROOT
ATOM      1  C   UNL     1       5.389   5.476  15.349  0.00  0.00    +0.000 C 
ATOM      2  O   UNL     1       5.421   6.714  15.459  0.00  0.00    +0.000 OA
ATOM      3  N   UNL     1       4.786   4.814  16.391  0.00  0.00    +0.000 N 
ATOM      4  C   UNL     1       4.176   5.465  17.542  0.00  0.00    +0.000 C 
ATOM      5  C   UNL     1       3.682   4.092  18.001  0.00  0.00    +0.000 C 
ATOM      6  C   UNL     1       4.010   3.862  19.466  0.00  0.00    +0.000 C 
ATOM      7  N   UNL     1       2.876   3.082  19.881  0.00  0.00    +0.000 N 
ATOM      8  C   UNL     1       2.647   2.762  21.271  0.00  0.00    +0.000 C 
ATOM      9  C   UNL     1       1.836   3.166  18.988  0.00  0.00    +0.000 C 
ATOM     10  O   UNL     1       0.696   2.765  19.156  0.00  0.00    +0.000 OA
ATOM     11  O   UNL     1       2.261   3.818  17.871  0.00  0.00    +0.000 OA
ATOM     12  C   UNL     1       4.558   3.470  16.876  0.00  0.00    +0.000 C 
ENDROOT
BRANCH   1  17
ATOM     13  C   UNL     1       7.166   4.819  13.503  0.00  0.00    +0.000 A 
ATOM     14  C   UNL     1       7.206   3.874  12.420  0.00  0.00    +0.000 A 
ATOM     15  C   UNL     1       6.021   3.204  12.252  0.00  0.00    +0.000 A 
ATOM     16  S   UNL     1       4.865   3.687  13.393  0.00  0.00    +0.000 S 
ATOM     17  C   UNL     1       5.954   4.805  14.178  0.00  0.00    +0.000 A 
BRANCH  13  19
ATOM     18  C   UNL     1       9.002   6.103  12.829  0.00  0.00    +0.000 C 
ATOM     19  O   UNL     1       8.186   5.620  13.892  0.00  0.00    +0.000 OA
ENDBRANCH  13  19
ENDBRANCH   1  17
TORSDOF 2
ENDMDL
MODEL 7
REMARK VINA RESULT:      -5.4      1.413      1.994
REMARK  Name = 
REMARK  4 active torsions:
REMARK  status: ('A' for Active; 'I' for Inactive)
REMARK    1  A    between atoms: C_1  and  O_2
REMARK    2  A    between atoms: O_2  and  C_3
REMARK    3  A    between atoms: C_7  and  C_8
REMARK    4  A    between atoms: N_14  and  C_15
REMARK                            x       y       z     vdW  Elec       q    Type
REMARK                         _______ _______ _______ _____ _____    ______ ____
ROOT
ATOM      1  C   UNL     1       4.823   4.080  18.670  0.00  0.00    +0.000 C 
ATOM      2  O   UNL     1       5.697   3.678  19.457  0.00  0.00    +0.000 OA
ATOM      3  N   UNL     1       5.260   4.328  17.391  0.00  0.00    +0.000 N 
ATOM      4  C   UNL     1       6.624   4.111  16.927  0.00  0.00    +0.000 C 
ATOM      5  C   UNL     1       6.150   4.455  15.514  0.00  0.00    +0.000 C 
ATOM      6  C   UNL     1       7.071   5.475  14.867  0.00  0.00    +0.000 C 
ATOM      7  N   UNL     1       7.023   5.057  13.494  0.00  0.00    +0.000 N 
ATOM      8  C   UNL     1       7.897   5.631  12.498  0.00  0.00    +0.000 C 
ATOM      9  C   UNL     1       6.527   3.783  13.358  0.00  0.00    +0.000 C 
ATOM     10  O   UNL     1       6.535   3.100  12.347  0.00  0.00    +0.000 OA
ATOM     11  O   UNL     1       6.048   3.363  14.562  0.00  0.00    +0.000 OA
ATOM     12  C   UNL     1       4.792   4.884  16.141  0.00  0.00    +0.000 C 
ENDROOT
BRANCH   1  17
ATOM     13  C   UNL     1       2.242   3.571  18.946  0.00  0.00    +0.000 A 
ATOM     14  C   UNL     1       1.158   4.174  19.672  0.00  0.00    +0.000 A 
ATOM     15  C   UNL     1       1.525   5.328  20.318  0.00  0.00    +0.000 A 
ATOM     16  S   UNL     1       3.162   5.686  20.073  0.00  0.00    +0.000 S 
ATOM     17  C   UNL     1       3.437   4.258  19.104  0.00  0.00    +0.000 A 
BRANCH  13  19
ATOM     18  C   UNL     1       3.079   1.413  18.609  0.00  0.00    +0.000 C 
ATOM     19  O   UNL     1       2.168   2.434  18.215  0.00  0.00    +0.000 OA
ENDBRANCH  13  19
ENDBRANCH   1  17
TORSDOF 2
ENDMDL
MODEL 8
REMARK VINA RESULT:      -5.3      3.889      7.228
REMARK  Name = 
REMARK  4 active torsions:
REMARK  status: ('A' for Active; 'I' for Inactive)
REMARK    1  A    between atoms: C_1  and  O_2
REMARK    2  A    between atoms: O_2  and  C_3
REMARK    3  A    between atoms: C_7  and  C_8
REMARK    4  A    between atoms: N_14  and  C_15
REMARK                            x       y       z     vdW  Elec       q    Type
REMARK                         _______ _______ _______ _____ _____    ______ ____
ROOT
ATOM      1  C   UNL     1       3.282   7.052  17.936  0.00  0.00    +0.000 C 
ATOM      2  O   UNL     1       4.011   7.380  16.984  0.00  0.00    +0.000 OA
ATOM      3  N   UNL     1       2.428   8.031  18.382  0.00  0.00    +0.000 N 
ATOM      4  C   UNL     1       2.313   9.358  17.792  0.00  0.00    +0.000 C 
ATOM      5  C   UNL     1       1.137   9.626  18.732  0.00  0.00    +0.000 C 
ATOM      6  C   UNL     1       1.301  10.960  19.439  0.00  0.00    +0.000 C 
ATOM      7  N   UNL     1      -0.067  11.386  19.541  0.00  0.00    +0.000 N 
ATOM      8  C   UNL     1      -0.414  12.712  19.997  0.00  0.00    +0.000 C 
ATOM      9  C   UNL     1      -0.892  10.685  18.696  0.00  0.00    +0.000 C 
ATOM     10  O   UNL     1      -2.056  10.940  18.434  0.00  0.00    +0.000 OA
ATOM     11  O   UNL     1      -0.192   9.656  18.145  0.00  0.00    +0.000 OA
ATOM     12  C   UNL     1       1.488   8.290  19.449  0.00  0.00    +0.000 C 
ENDROOT
BRANCH   1  17
ATOM     13  C   UNL     1       4.249   4.994  19.288  0.00  0.00    +0.000 A 
ATOM     14  C   UNL     1       3.761   3.689  19.642  0.00  0.00    +0.000 A 
ATOM     15  C   UNL     1       2.536   3.409  19.090  0.00  0.00    +0.000 A 
ATOM     16  S   UNL     1       1.960   4.706  18.163  0.00  0.00    +0.000 S 
ATOM     17  C   UNL     1       3.348   5.708  18.512  0.00  0.00    +0.000 A 
BRANCH  13  19
ATOM     18  C   UNL     1       6.512   5.311  18.788  0.00  0.00    +0.000 C 
ATOM     19  O   UNL     1       5.427   5.531  19.684  0.00  0.00    +0.000 OA
ENDBRANCH  13  19
ENDBRANCH   1  17
TORSDOF 2
ENDMDL
MODEL 9
REMARK VINA RESULT:      -5.3      4.296      6.249
REMARK  Name = 
REMARK  4 active torsions:
REMARK  status: ('A' for Active; 'I' for Inactive)
REMARK    1  A    between atoms: C_1  and  O_2
REMARK    2  A    between atoms: O_2  and  C_3
REMARK    3  A    between atoms: C_7  and  C_8
REMARK    4  A    between atoms: N_14  and  C_15
REMARK                            x       y       z     vdW  Elec       q    Type
REMARK                         _______ _______ _______ _____ _____    ______ ____
ROOT
ATOM      1  C   UNL     1       1.471   9.203  18.481  0.00  0.00    +0.000 C 
ATOM      2  O   UNL     1       1.335   9.453  17.272  0.00  0.00    +0.000 OA
ATOM      3  N   UNL     1       2.025   7.978  18.765  0.00  0.00    +0.000 N 
ATOM      4  C   UNL     1       2.478   7.023  17.762  0.00  0.00    +0.000 C 
ATOM      5  C   UNL     1       3.031   6.160  18.897  0.00  0.00    +0.000 C 
ATOM      6  C   UNL     1       2.590   4.715  18.742  0.00  0.00    +0.000 C 
ATOM      7  N   UNL     1       3.737   4.021  19.259  0.00  0.00    +0.000 N 
ATOM      8  C   UNL     1       3.863   2.586  19.156  0.00  0.00    +0.000 C 
ATOM      9  C   UNL     1       4.845   4.831  19.325  0.00  0.00    +0.000 C 
ATOM     10  O   UNL     1       5.992   4.481  19.549  0.00  0.00    +0.000 OA
ATOM     11  O   UNL     1       4.474   6.113  19.055  0.00  0.00    +0.000 OA
ATOM     12  C   UNL     1       2.310   7.116  19.891  0.00  0.00    +0.000 C 
ENDROOT
BRANCH   1  17
ATOM     13  C   UNL     1       0.350  10.129  20.691  0.00  0.00    +0.000 A 
ATOM     14  C   UNL     1       0.316  11.401  21.360  0.00  0.00    +0.000 A 
ATOM     15  C   UNL     1       0.952  12.391  20.654  0.00  0.00    +0.000 A 
ATOM     16  S   UNL     1       1.602  11.804  19.203  0.00  0.00    +0.000 S 
ATOM     17  C   UNL     1       1.067  10.168  19.505  0.00  0.00    +0.000 A 
BRANCH  13  19
ATOM     18  C   UNL     1      -0.399   8.937  22.560  0.00  0.00    +0.000 C 
ATOM     19  O   UNL     1      -0.200   8.980  21.151  0.00  0.00    +0.000 OA
ENDBRANCH  13  19
ENDBRANCH   1  17
TORSDOF 2
ENDMDL
