MODEL 1
REMARK VINA RESULT:      -7.7      0.000      0.000
REMARK  Name = 
REMARK  11 active torsions:
REMARK  status: ('A' for Active; 'I' for Inactive)
REMARK    1  A    between atoms: C_1  and  C_2
REMARK    2  A    between atoms: C_2  and  C_3
REMARK    3  A    between atoms: C_10  and  O_11
REMARK    4  A    between atoms: O_11  and  C_12
REMARK    5  A    between atoms: C_13  and  O_14
REMARK    6  A    between atoms: O_14  and  C_15
REMARK    7  A    between atoms: C_20  and  C_21
REMARK    8  A    between atoms: C_21  and  C_22
REMARK    9  A    between atoms: C_28  and  O_29
REMARK   10  A    between atoms: C_30  and  O_31
REMARK   11  A    between atoms: O_31  and  C_32
REMARK                            x       y       z     vdW  Elec       q    Type
REMARK                         _______ _______ _______ _____ _____    ______ ____
ROOT
ATOM      1  C   UNL     1       0.920   9.290  18.673  0.00  0.00    +0.000 C 
ATOM      2  C   UNL     1       0.812   8.848  20.149  0.00  0.00    +0.000 C 
ATOM      3  N   UNL     1       1.226   9.818  21.168  0.00  0.00    +0.000 NA
ATOM      4  C   UNL     1       0.904   9.353  22.526  0.00  0.00    +0.000 C 
ATOM      5  C   UNL     1      -0.543   9.610  22.966  0.00  0.00    +0.000 C 
ATOM      6  C   UNL     1      -0.965  11.032  22.723  0.00  0.00    +0.000 A 
ATOM      7  C   UNL     1      -2.042  11.575  23.456  0.00  0.00    +0.000 A 
ATOM      8  C   UNL     1      -2.473  12.898  23.274  0.00  0.00    +0.000 A 
ATOM      9  C   UNL     1      -1.800  13.691  22.337  0.00  0.00    +0.000 A 
ATOM     10  C   UNL     1      -0.718  13.143  21.621  0.00  0.00    +0.000 A 
ATOM     11  C   UNL     1      -0.307  11.800  21.759  0.00  0.00    +0.000 A 
ATOM     12  C   UNL     1       0.897  11.251  20.974  0.00  0.00    +0.000 C 
ATOM     13  C   UNL     1       0.948  11.671  19.485  0.00  0.00    +0.000 C 
ATOM     14  C   UNL     1       0.277  10.689  18.511  0.00  0.00    +0.000 C 
ENDROOT
BRANCH   1  16
ATOM     15  C   UNL     1       2.960   7.910  17.834  0.00  0.00    +0.000 C 
ATOM     16  C   UNL     1       2.346   9.283  18.068  0.00  0.00    +0.000 C 
ENDBRANCH   1  16
BRANCH   8  17
ATOM     17  O   UNL     1      -3.504  13.456  23.978  0.00  0.00    +0.000 OA
ATOM     18  C   UNL     1      -4.447  12.598  24.604  0.00  0.00    +0.000 C 
ENDBRANCH   8  17
BRANCH   9  19
ATOM     19  O   UNL     1      -2.050  14.996  21.983  0.00  0.00    +0.000 OA
ATOM     20  C   UNL     1      -1.020  15.745  21.353  0.00  0.00    +0.000 C 
ENDBRANCH   9  19
BRANCH  14  21
ATOM     21  C   UNL     1      -1.253  10.593  18.687  0.00  0.00    +0.000 C 
BRANCH  21  22
ATOM     22  C   UNL     1      -2.090  11.251  17.569  0.00  0.00    +0.000 C 
ATOM     23  N   UNL     1      -2.005  10.390  16.371  0.00  0.00    +0.000 NA
ATOM     24  C   UNL     1      -2.921  10.876  15.342  0.00  0.00    +0.000 C 
ATOM     25  C   UNL     1      -4.375  10.701  15.794  0.00  0.00    +0.000 C 
ATOM     26  C   UNL     1      -4.604  11.256  17.175  0.00  0.00    +0.000 A 
ATOM     27  C   UNL     1      -5.912  11.487  17.633  0.00  0.00    +0.000 A 
ATOM     28  C   UNL     1      -6.141  12.014  18.907  0.00  0.00    +0.000 A 
ATOM     29  C   UNL     1      -5.075  12.338  19.744  0.00  0.00    +0.000 A 
ATOM     30  C   UNL     1      -3.778  12.100  19.279  0.00  0.00    +0.000 A 
ATOM     31  C   UNL     1      -3.522  11.516  18.027  0.00  0.00    +0.000 A 
ATOM     32  H   UNL     1      -2.270   9.443  16.638  0.00  0.00    +0.000 HD
BRANCH  28  33
ATOM     33  O   UNL     1      -7.439  12.211  19.302  0.00  0.00    +0.000 OA
ATOM     34  H   UNL     1      -8.001  12.237  18.509  0.00  0.00    +0.000 HD
ENDBRANCH  28  33
BRANCH  29  35
ATOM     35  O   UNL     1      -5.097  12.869  21.005  0.00  0.00    +0.000 OA
ATOM     36  C   UNL     1      -5.420  14.241  21.144  0.00  0.00    +0.000 C 
ENDBRANCH  29  35
ENDBRANCH  21  22
ENDBRANCH  14  21
TORSDOF 7
ENDMDL
MODEL 2
REMARK VINA RESULT:      -6.9      2.702      6.892
REMARK  Name = 
REMARK  11 active torsions:
REMARK  status: ('A' for Active; 'I' for Inactive)
REMARK    1  A    between atoms: C_1  and  C_2
REMARK    2  A    between atoms: C_2  and  C_3
REMARK    3  A    between atoms: C_10  and  O_11
REMARK    4  A    between atoms: O_11  and  C_12
REMARK    5  A    between atoms: C_13  and  O_14
REMARK    6  A    between atoms: O_14  and  C_15
REMARK    7  A    between atoms: C_20  and  C_21
REMARK    8  A    between atoms: C_21  and  C_22
REMARK    9  A    between atoms: C_28  and  O_29
REMARK   10  A    between atoms: C_30  and  O_31
REMARK   11  A    between atoms: O_31  and  C_32
REMARK                            x       y       z     vdW  Elec       q    Type
REMARK                         _______ _______ _______ _____ _____    ______ ____
ROOT
ATOM      1  C   UNL     1      -2.088  14.323  24.021  0.00  0.00    +0.000 C 
ATOM      2  C   UNL     1      -3.598  14.202  24.323  0.00  0.00    +0.000 C 
ATOM      3  N   UNL     1      -4.524  14.727  23.315  0.00  0.00    +0.000 NA
ATOM      4  C   UNL     1      -5.921  14.389  23.629  0.00  0.00    +0.000 C 
ATOM      5  C   UNL     1      -6.354  12.982  23.198  0.00  0.00    +0.000 C 
ATOM      6  C   UNL     1      -5.993  12.692  21.768  0.00  0.00    +0.000 A 
ATOM      7  C   UNL     1      -6.689  11.687  21.063  0.00  0.00    +0.000 A 
ATOM      8  C   UNL     1      -6.398  11.380  19.725  0.00  0.00    +0.000 A 
ATOM      9  C   UNL     1      -5.388  12.106  19.083  0.00  0.00    +0.000 A 
ATOM     10  C   UNL     1      -4.710  13.117  19.791  0.00  0.00    +0.000 A 
ATOM     11  C   UNL     1      -4.958  13.401  21.151  0.00  0.00    +0.000 A 
ATOM     12  C   UNL     1      -4.211  14.531  21.878  0.00  0.00    +0.000 C 
ATOM     13  C   UNL     1      -2.690  14.593  21.594  0.00  0.00    +0.000 C 
ATOM     14  C   UNL     1      -1.813  13.813  22.586  0.00  0.00    +0.000 C 
ENDROOT
BRANCH   1  16
ATOM     15  C   UNL     1      -1.825  16.435  25.518  0.00  0.00    +0.000 C 
ATOM     16  C   UNL     1      -1.470  15.730  24.217  0.00  0.00    +0.000 C 
ENDBRANCH   1  16
BRANCH   8  17
ATOM     17  O   UNL     1      -7.063  10.420  19.013  0.00  0.00    +0.000 OA
ATOM     18  C   UNL     1      -7.065   9.086  19.499  0.00  0.00    +0.000 C 
ENDBRANCH   8  17
BRANCH   9  19
ATOM     19  O   UNL     1      -4.925  11.974  17.795  0.00  0.00    +0.000 OA
ATOM     20  C   UNL     1      -3.593  11.527  17.588  0.00  0.00    +0.000 C 
ENDBRANCH   9  19
BRANCH  14  21
ATOM     21  C   UNL     1      -2.014  12.284  22.519  0.00  0.00    +0.000 C 
BRANCH  21  22
ATOM     22  C   UNL     1      -0.727  11.442  22.646  0.00  0.00    +0.000 C 
ATOM     23  N   UNL     1      -1.057  10.220  23.412  0.00  0.00    +0.000 NA
ATOM     24  C   UNL     1       0.083   9.307  23.409  0.00  0.00    +0.000 C 
ATOM     25  C   UNL     1       0.336   8.773  21.995  0.00  0.00    +0.000 C 
ATOM     26  C   UNL     1       0.396   9.882  20.978  0.00  0.00    +0.000 A 
ATOM     27  C   UNL     1       0.935   9.641  19.702  0.00  0.00    +0.000 A 
ATOM     28  C   UNL     1       1.009  10.662  18.752  0.00  0.00    +0.000 A 
ATOM     29  C   UNL     1       0.567  11.948  19.056  0.00  0.00    +0.000 A 
ATOM     30  C   UNL     1       0.029  12.176  20.327  0.00  0.00    +0.000 A 
ATOM     31  C   UNL     1      -0.113  11.153  21.279  0.00  0.00    +0.000 A 
ATOM     32  H   UNL     1      -1.853   9.768  22.966  0.00  0.00    +0.000 HD
BRANCH  28  33
ATOM     33  O   UNL     1       1.538  10.365  17.523  0.00  0.00    +0.000 OA
ATOM     34  H   UNL     1       2.132  11.088  17.261  0.00  0.00    +0.000 HD
ENDBRANCH  28  33
BRANCH  29  35
ATOM     35  O   UNL     1       0.570  13.070  18.272  0.00  0.00    +0.000 OA
ATOM     36  C   UNL     1       1.680  13.945  18.364  0.00  0.00    +0.000 C 
ENDBRANCH  29  35
ENDBRANCH  21  22
ENDBRANCH  14  21
TORSDOF 7
ENDMDL
MODEL 3
REMARK VINA RESULT:      -6.4      2.916      6.366
REMARK  Name = 
REMARK  11 active torsions:
REMARK  status: ('A' for Active; 'I' for Inactive)
REMARK    1  A    between atoms: C_1  and  C_2
REMARK    2  A    between atoms: C_2  and  C_3
REMARK    3  A    between atoms: C_10  and  O_11
REMARK    4  A    between atoms: O_11  and  C_12
REMARK    5  A    between atoms: C_13  and  O_14
REMARK    6  A    between atoms: O_14  and  C_15
REMARK    7  A    between atoms: C_20  and  C_21
REMARK    8  A    between atoms: C_21  and  C_22
REMARK    9  A    between atoms: C_28  and  O_29
REMARK   10  A    between atoms: C_30  and  O_31
REMARK   11  A    between atoms: O_31  and  C_32
REMARK                            x       y       z     vdW  Elec       q    Type
REMARK                         _______ _______ _______ _____ _____    ______ ____
ROOT
ATOM      1  C   UNL     1      -5.901  15.174  22.807  0.00  0.00    +0.000 C 
ATOM      2  C   UNL     1      -4.827  16.276  22.671  0.00  0.00    +0.000 C 
ATOM      3  N   UNL     1      -3.592  16.103  23.444  0.00  0.00    +0.000 NA
ATOM      4  C   UNL     1      -2.583  17.113  23.090  0.00  0.00    +0.000 C 
ATOM      5  C   UNL     1      -1.764  16.789  21.834  0.00  0.00    +0.000 C 
ATOM      6  C   UNL     1      -1.205  15.394  21.866  0.00  0.00    +0.000 A 
ATOM      7  C   UNL     1      -0.082  15.073  21.073  0.00  0.00    +0.000 A 
ATOM      8  C   UNL     1       0.483  13.790  21.070  0.00  0.00    +0.000 A 
ATOM      9  C   UNL     1      -0.091  12.810  21.889  0.00  0.00    +0.000 A 
ATOM     10  C   UNL     1      -1.201  13.145  22.688  0.00  0.00    +0.000 A 
ATOM     11  C   UNL     1      -1.810  14.418  22.662  0.00  0.00    +0.000 A 
ATOM     12  C   UNL     1      -3.007  14.747  23.571  0.00  0.00    +0.000 C 
ATOM     13  C   UNL     1      -4.090  13.643  23.644  0.00  0.00    +0.000 C 
ATOM     14  C   UNL     1      -5.234  13.789  22.629  0.00  0.00    +0.000 C 
ENDROOT
BRANCH   1  16
ATOM     15  C   UNL     1      -7.847  14.165  24.209  0.00  0.00    +0.000 C 
ATOM     16  C   UNL     1      -6.738  15.203  24.110  0.00  0.00    +0.000 C 
ENDBRANCH   1  16
BRANCH   8  17
ATOM     17  O   UNL     1       1.577  13.453  20.321  0.00  0.00    +0.000 OA
ATOM     18  C   UNL     1       2.870  13.748  20.829  0.00  0.00    +0.000 C 
ENDBRANCH   8  17
BRANCH   9  19
ATOM     19  O   UNL     1       0.280  11.495  22.039  0.00  0.00    +0.000 OA
ATOM     20  C   UNL     1      -0.720  10.530  22.335  0.00  0.00    +0.000 C 
ENDBRANCH   9  19
BRANCH  14  21
ATOM     21  C   UNL     1      -4.788  13.599  21.164  0.00  0.00    +0.000 C 
BRANCH  21  22
ATOM     22  C   UNL     1      -5.295  12.311  20.480  0.00  0.00    +0.000 C 
ATOM     23  N   UNL     1      -6.744  12.467  20.232  0.00  0.00    +0.000 NA
ATOM     24  C   UNL     1      -7.236  11.350  19.430  0.00  0.00    +0.000 C 
ATOM     25  C   UNL     1      -6.634  11.399  18.021  0.00  0.00    +0.000 C 
ATOM     26  C   UNL     1      -5.137  11.559  18.054  0.00  0.00    +0.000 A 
ATOM     27  C   UNL     1      -4.375  11.300  16.902  0.00  0.00    +0.000 A 
ATOM     28  C   UNL     1      -2.984  11.431  16.921  0.00  0.00    +0.000 A 
ATOM     29  C   UNL     1      -2.321  11.803  18.088  0.00  0.00    +0.000 A 
ATOM     30  C   UNL     1      -3.090  12.063  19.227  0.00  0.00    +0.000 A 
ATOM     31  C   UNL     1      -4.494  11.997  19.220  0.00  0.00    +0.000 A 
ATOM     32  H   UNL     1      -6.890  13.338  19.724  0.00  0.00    +0.000 HD
BRANCH  28  33
ATOM     33  O   UNL     1      -2.295  11.172  15.764  0.00  0.00    +0.000 OA
ATOM     34  H   UNL     1      -1.874  11.996  15.467  0.00  0.00    +0.000 HD
ENDBRANCH  28  33
BRANCH  29  35
ATOM     35  O   UNL     1      -0.980  11.970  18.305  0.00  0.00    +0.000 OA
ATOM     36  C   UNL     1      -0.206  10.822  18.603  0.00  0.00    +0.000 C 
ENDBRANCH  29  35
ENDBRANCH  21  22
ENDBRANCH  14  21
TORSDOF 7
ENDMDL
MODEL 4
REMARK VINA RESULT:      -6.1      3.192      6.396
REMARK  Name = 
REMARK  11 active torsions:
REMARK  status: ('A' for Active; 'I' for Inactive)
REMARK    1  A    between atoms: C_1  and  C_2
REMARK    2  A    between atoms: C_2  and  C_3
REMARK    3  A    between atoms: C_10  and  O_11
REMARK    4  A    between atoms: O_11  and  C_12
REMARK    5  A    between atoms: C_13  and  O_14
REMARK    6  A    between atoms: O_14  and  C_15
REMARK    7  A    between atoms: C_20  and  C_21
REMARK    8  A    between atoms: C_21  and  C_22
REMARK    9  A    between atoms: C_28  and  O_29
REMARK   10  A    between atoms: C_30  and  O_31
REMARK   11  A    between atoms: O_31  and  C_32
REMARK                            x       y       z     vdW  Elec       q    Type
REMARK                         _______ _______ _______ _____ _____    ______ ____
ROOT
ATOM      1  C   UNL     1      -3.443  14.252  23.142  0.00  0.00    +0.000 C 
ATOM      2  C   UNL     1      -2.897  15.690  22.997  0.00  0.00    +0.000 C 
ATOM      3  N   UNL     1      -1.468  15.890  23.261  0.00  0.00    +0.000 NA
ATOM      4  C   UNL     1      -1.036  17.252  22.913  0.00  0.00    +0.000 C 
ATOM      5  C   UNL     1      -0.722  17.466  21.428  0.00  0.00    +0.000 C 
ATOM      6  C   UNL     1       0.196  16.408  20.884  0.00  0.00    +0.000 A 
ATOM      7  C   UNL     1       0.954  16.671  19.722  0.00  0.00    +0.000 A 
ATOM      8  C   UNL     1       1.830  15.721  19.176  0.00  0.00    +0.000 A 
ATOM      9  C   UNL     1       1.951  14.483  19.819  0.00  0.00    +0.000 A 
ATOM     10  C   UNL     1       1.201  14.237  20.985  0.00  0.00    +0.000 A 
ATOM     11  C   UNL     1       0.279  15.164  21.515  0.00  0.00    +0.000 A 
ATOM     12  C   UNL     1      -0.501  14.862  22.806  0.00  0.00    +0.000 C 
ATOM     13  C   UNL     1      -1.079  13.429  22.896  0.00  0.00    +0.000 C 
ATOM     14  C   UNL     1      -2.517  13.276  22.376  0.00  0.00    +0.000 C 
ENDROOT
BRANCH   1  16
ATOM     15  C   UNL     1      -4.435  12.451  24.736  0.00  0.00    +0.000 C 
ATOM     16  C   UNL     1      -3.664  13.755  24.592  0.00  0.00    +0.000 C 
ENDBRANCH   1  16
BRANCH   8  17
ATOM     17  O   UNL     1       2.587  15.952  18.060  0.00  0.00    +0.000 OA
ATOM     18  C   UNL     1       2.371  17.146  17.323  0.00  0.00    +0.000 C 
ENDBRANCH   8  17
BRANCH   9  19
ATOM     19  O   UNL     1       2.728  13.406  19.463  0.00  0.00    +0.000 OA
ATOM     20  C   UNL     1       2.447  12.729  18.247  0.00  0.00    +0.000 C 
ENDBRANCH   9  19
BRANCH  14  21
ATOM     21  C   UNL     1      -2.651  13.500  20.855  0.00  0.00    +0.000 C 
BRANCH  21  22
ATOM     22  C   UNL     1      -3.233  12.311  20.060  0.00  0.00    +0.000 C 
ATOM     23  N   UNL     1      -4.228  12.845  19.107  0.00  0.00    +0.000 NA
ATOM     24  C   UNL     1      -4.679  11.784  18.210  0.00  0.00    +0.000 C 
ATOM     25  C   UNL     1      -3.533  11.332  17.299  0.00  0.00    +0.000 C 
ATOM     26  C   UNL     1      -2.281  11.028  18.080  0.00  0.00    +0.000 A 
ATOM     27  C   UNL     1      -1.239  10.298  17.483  0.00  0.00    +0.000 A 
ATOM     28  C   UNL     1      -0.077   9.997  18.198  0.00  0.00    +0.000 A 
ATOM     29  C   UNL     1       0.065  10.397  19.525  0.00  0.00    +0.000 A 
ATOM     30  C   UNL     1      -0.977  11.127  20.107  0.00  0.00    +0.000 A 
ATOM     31  C   UNL     1      -2.130  11.495  19.392  0.00  0.00    +0.000 A 
ATOM     32  H   UNL     1      -3.785  13.583  18.561  0.00  0.00    +0.000 HD
BRANCH  28  33
ATOM     33  O   UNL     1       0.909   9.288  17.561  0.00  0.00    +0.000 OA
ATOM     34  H   UNL     1       0.489   8.625  16.988  0.00  0.00    +0.000 HD
ENDBRANCH  28  33
BRANCH  29  35
ATOM     35  O   UNL     1       1.110  10.189  20.384  0.00  0.00    +0.000 OA
ATOM     36  C   UNL     1       0.999   9.134  21.323  0.00  0.00    +0.000 C 
ENDBRANCH  29  35
ENDBRANCH  21  22
ENDBRANCH  14  21
TORSDOF 7
ENDMDL
MODEL 5
REMARK VINA RESULT:      -6.0      4.800      7.277
REMARK  Name = 
REMARK  11 active torsions:
REMARK  status: ('A' for Active; 'I' for Inactive)
REMARK    1  A    between atoms: C_1  and  C_2
REMARK    2  A    between atoms: C_2  and  C_3
REMARK    3  A    between atoms: C_10  and  O_11
REMARK    4  A    between atoms: O_11  and  C_12
REMARK    5  A    between atoms: C_13  and  O_14
REMARK    6  A    between atoms: O_14  and  C_15
REMARK    7  A    between atoms: C_20  and  C_21
REMARK    8  A    between atoms: C_21  and  C_22
REMARK    9  A    between atoms: C_28  and  O_29
REMARK   10  A    between atoms: C_30  and  O_31
REMARK   11  A    between atoms: O_31  and  C_32
REMARK                            x       y       z     vdW  Elec       q    Type
REMARK                         _______ _______ _______ _____ _____    ______ ____
ROOT
ATOM      1  C   UNL     1       1.336  15.442  18.536  0.00  0.00    +0.000 C 
ATOM      2  C   UNL     1       2.756  15.975  18.244  0.00  0.00    +0.000 C 
ATOM      3  N   UNL     1       3.445  16.670  19.336  0.00  0.00    +0.000 NA
ATOM      4  C   UNL     1       4.847  16.963  18.997  0.00  0.00    +0.000 C 
ATOM      5  C   UNL     1       5.818  15.797  19.217  0.00  0.00    +0.000 C 
ATOM      6  C   UNL     1       5.665  15.182  20.581  0.00  0.00    +0.000 A 
ATOM      7  C   UNL     1       6.732  14.443  21.136  0.00  0.00    +0.000 A 
ATOM      8  C   UNL     1       6.646  13.854  22.407  0.00  0.00    +0.000 A 
ATOM      9  C   UNL     1       5.461  14.019  23.135  0.00  0.00    +0.000 A 
ATOM     10  C   UNL     1       4.409  14.770  22.577  0.00  0.00    +0.000 A 
ATOM     11  C   UNL     1       4.464  15.324  21.280  0.00  0.00    +0.000 A 
ATOM     12  C   UNL     1       3.299  16.159  20.721  0.00  0.00    +0.000 C 
ATOM     13  C   UNL     1       1.892  15.570  20.986  0.00  0.00    +0.000 C 
ATOM     14  C   UNL     1       1.350  14.661  19.872  0.00  0.00    +0.000 C 
ENDROOT
BRANCH   1  16
ATOM     15  C   UNL     1       0.414  17.702  17.635  0.00  0.00    +0.000 C 
ATOM     16  C   UNL     1       0.206  16.500  18.546  0.00  0.00    +0.000 C 
ENDBRANCH   1  16
BRANCH   8  17
ATOM     17  O   UNL     1       7.667  13.144  22.976  0.00  0.00    +0.000 OA
ATOM     18  C   UNL     1       8.480  12.331  22.144  0.00  0.00    +0.000 C 
ENDBRANCH   8  17
BRANCH   9  19
ATOM     19  O   UNL     1       5.147  13.528  24.380  0.00  0.00    +0.000 OA
ATOM     20  C   UNL     1       5.575  14.245  25.528  0.00  0.00    +0.000 C 
ENDBRANCH   9  19
BRANCH  14  21
ATOM     21  C   UNL     1       2.140  13.345  19.710  0.00  0.00    +0.000 C 
BRANCH  21  22
ATOM     22  C   UNL     1       1.340  12.161  19.127  0.00  0.00    +0.000 C 
ATOM     23  N   UNL     1       2.230  11.417  18.210  0.00  0.00    +0.000 NA
ATOM     24  C   UNL     1       1.577  10.188  17.768  0.00  0.00    +0.000 C 
ATOM     25  C   UNL     1       1.405   9.222  18.945  0.00  0.00    +0.000 C 
ATOM     26  C   UNL     1       0.775   9.894  20.137  0.00  0.00    +0.000 A 
ATOM     27  C   UNL     1       0.241   9.121  21.181  0.00  0.00    +0.000 A 
ATOM     28  C   UNL     1      -0.359   9.729  22.287  0.00  0.00    +0.000 A 
ATOM     29  C   UNL     1      -0.455  11.116  22.369  0.00  0.00    +0.000 A 
ATOM     30  C   UNL     1       0.084  11.876  21.326  0.00  0.00    +0.000 A 
ATOM     31  C   UNL     1       0.745  11.292  20.232  0.00  0.00    +0.000 A 
ATOM     32  H   UNL     1       3.085  11.184  18.713  0.00  0.00    +0.000 HD
BRANCH  28  33
ATOM     33  O   UNL     1      -0.856   8.923  23.278  0.00  0.00    +0.000 OA
ATOM     34  H   UNL     1      -1.826   8.987  23.269  0.00  0.00    +0.000 HD
ENDBRANCH  28  33
BRANCH  29  35
ATOM     35  O   UNL     1      -1.011  11.887  23.353  0.00  0.00    +0.000 OA
ATOM     36  C   UNL     1      -1.307  13.240  23.053  0.00  0.00    +0.000 C 
ENDBRANCH  29  35
ENDBRANCH  21  22
ENDBRANCH  14  21
TORSDOF 7
ENDMDL
MODEL 6
REMARK VINA RESULT:      -6.0      3.698      6.992
REMARK  Name = 
REMARK  11 active torsions:
REMARK  status: ('A' for Active; 'I' for Inactive)
REMARK    1  A    between atoms: C_1  and  C_2
REMARK    2  A    between atoms: C_2  and  C_3
REMARK    3  A    between atoms: C_10  and  O_11
REMARK    4  A    between atoms: O_11  and  C_12
REMARK    5  A    between atoms: C_13  and  O_14
REMARK    6  A    between atoms: O_14  and  C_15
REMARK    7  A    between atoms: C_20  and  C_21
REMARK    8  A    between atoms: C_21  and  C_22
REMARK    9  A    between atoms: C_28  and  O_29
REMARK   10  A    between atoms: C_30  and  O_31
REMARK   11  A    between atoms: O_31  and  C_32
REMARK                            x       y       z     vdW  Elec       q    Type
REMARK                         _______ _______ _______ _____ _____    ______ ____
ROOT
ATOM      1  C   UNL     1      -4.434  12.885  23.086  0.00  0.00    +0.000 C 
ATOM      2  C   UNL     1      -4.673  14.175  22.271  0.00  0.00    +0.000 C 
ATOM      3  N   UNL     1      -4.136  15.423  22.824  0.00  0.00    +0.000 NA
ATOM      4  C   UNL     1      -4.265  16.539  21.875  0.00  0.00    +0.000 C 
ATOM      5  C   UNL     1      -3.159  16.612  20.815  0.00  0.00    +0.000 C 
ATOM      6  C   UNL     1      -1.786  16.520  21.422  0.00  0.00    +0.000 A 
ATOM      7  C   UNL     1      -0.674  17.021  20.711  0.00  0.00    +0.000 A 
ATOM      8  C   UNL     1       0.627  16.966  21.233  0.00  0.00    +0.000 A 
ATOM      9  C   UNL     1       0.810  16.400  22.500  0.00  0.00    +0.000 A 
ATOM     10  C   UNL     1      -0.309  15.917  23.207  0.00  0.00    +0.000 A 
ATOM     11  C   UNL     1      -1.615  15.920  22.672  0.00  0.00    +0.000 A 
ATOM     12  C   UNL     1      -2.811  15.404  23.490  0.00  0.00    +0.000 C 
ATOM     13  C   UNL     1      -2.555  14.082  24.253  0.00  0.00    +0.000 C 
ATOM     14  C   UNL     1      -2.941  12.806  23.489  0.00  0.00    +0.000 C 
ENDROOT
BRANCH   1  16
ATOM     15  C   UNL     1      -6.833  12.821  24.090  0.00  0.00    +0.000 C 
ATOM     16  C   UNL     1      -5.335  12.695  24.330  0.00  0.00    +0.000 C 
ENDBRANCH   1  16
BRANCH   8  17
ATOM     17  O   UNL     1       1.721  17.454  20.573  0.00  0.00    +0.000 OA
ATOM     18  C   UNL     1       2.424  16.596  19.687  0.00  0.00    +0.000 C 
ENDBRANCH   8  17
BRANCH   9  19
ATOM     19  O   UNL     1       1.980  16.228  23.200  0.00  0.00    +0.000 OA
ATOM     20  C   UNL     1       2.383  17.233  24.119  0.00  0.00    +0.000 C 
ENDBRANCH   9  19
BRANCH  14  21
ATOM     21  C   UNL     1      -2.068  12.544  22.243  0.00  0.00    +0.000 C 
BRANCH  21  22
ATOM     22  C   UNL     1      -0.822  11.665  22.483  0.00  0.00    +0.000 C 
ATOM     23  N   UNL     1      -1.248  10.468  23.239  0.00  0.00    +0.000 NA
ATOM     24  C   UNL     1      -0.142   9.520  23.338  0.00  0.00    +0.000 C 
ATOM     25  C   UNL     1       0.201   8.953  21.956  0.00  0.00    +0.000 C 
ATOM     26  C   UNL     1       0.374  10.042  20.930  0.00  0.00    +0.000 A 
ATOM     27  C   UNL     1       1.001   9.761  19.704  0.00  0.00    +0.000 A 
ATOM     28  C   UNL     1       1.181  10.763  18.747  0.00  0.00    +0.000 A 
ATOM     29  C   UNL     1       0.759  12.067  18.995  0.00  0.00    +0.000 A 
ATOM     30  C   UNL     1       0.132  12.334  20.217  0.00  0.00    +0.000 A 
ATOM     31  C   UNL     1      -0.114  11.333  21.172  0.00  0.00    +0.000 A 
ATOM     32  H   UNL     1      -2.023  10.033  22.741  0.00  0.00    +0.000 HD
BRANCH  28  33
ATOM     33  O   UNL     1       1.792  10.427  17.566  0.00  0.00    +0.000 OA
ATOM     34  H   UNL     1       2.354  11.171  17.289  0.00  0.00    +0.000 HD
ENDBRANCH  28  33
BRANCH  29  35
ATOM     35  O   UNL     1       0.857  13.174  18.197  0.00  0.00    +0.000 OA
ATOM     36  C   UNL     1      -0.091  14.211  18.376  0.00  0.00    +0.000 C 
ENDBRANCH  29  35
ENDBRANCH  21  22
ENDBRANCH  14  21
TORSDOF 7
ENDMDL
MODEL 7
REMARK VINA RESULT:      -6.0      2.193      3.782
REMARK  Name = 
REMARK  11 active torsions:
REMARK  status: ('A' for Active; 'I' for Inactive)
REMARK    1  A    between atoms: C_1  and  C_2
REMARK    2  A    between atoms: C_2  and  C_3
REMARK    3  A    between atoms: C_10  and  O_11
REMARK    4  A    between atoms: O_11  and  C_12
REMARK    5  A    between atoms: C_13  and  O_14
REMARK    6  A    between atoms: O_14  and  C_15
REMARK    7  A    between atoms: C_20  and  C_21
REMARK    8  A    between atoms: C_21  and  C_22
REMARK    9  A    between atoms: C_28  and  O_29
REMARK   10  A    between atoms: C_30  and  O_31
REMARK   11  A    between atoms: O_31  and  C_32
REMARK                            x       y       z     vdW  Elec       q    Type
REMARK                         _______ _______ _______ _____ _____    ______ ____
ROOT
ATOM      1  C   UNL     1      -2.290  10.096  17.950  0.00  0.00    +0.000 C 
ATOM      2  C   UNL     1      -1.094   9.918  18.912  0.00  0.00    +0.000 C 
ATOM      3  N   UNL     1       0.003  10.884  18.799  0.00  0.00    +0.000 NA
ATOM      4  C   UNL     1       0.986  10.722  19.881  0.00  0.00    +0.000 C 
ATOM      5  C   UNL     1       0.607  11.407  21.200  0.00  0.00    +0.000 C 
ATOM      6  C   UNL     1       0.197  12.839  20.997  0.00  0.00    +0.000 A 
ATOM      7  C   UNL     1       0.266  13.744  22.078  0.00  0.00    +0.000 A 
ATOM      8  C   UNL     1      -0.098  15.092  21.942  0.00  0.00    +0.000 A 
ATOM      9  C   UNL     1      -0.535  15.538  20.689  0.00  0.00    +0.000 A 
ATOM     10  C   UNL     1      -0.586  14.630  19.614  0.00  0.00    +0.000 A 
ATOM     11  C   UNL     1      -0.271  13.261  19.749  0.00  0.00    +0.000 A 
ATOM     12  C   UNL     1      -0.317  12.310  18.542  0.00  0.00    +0.000 C 
ATOM     13  C   UNL     1      -1.554  12.480  17.627  0.00  0.00    +0.000 C 
ATOM     14  C   UNL     1      -2.746  11.575  17.975  0.00  0.00    +0.000 C 
ENDROOT
BRANCH   1  16
ATOM     15  C   UNL     1      -3.121  10.052  15.485  0.00  0.00    +0.000 C 
ATOM     16  C   UNL     1      -2.060   9.631  16.491  0.00  0.00    +0.000 C 
ENDBRANCH   1  16
BRANCH   8  17
ATOM     17  O   UNL     1      -0.031  15.996  22.967  0.00  0.00    +0.000 OA
ATOM     18  C   UNL     1      -0.919  15.851  24.065  0.00  0.00    +0.000 C 
ENDBRANCH   8  17
BRANCH   9  19
ATOM     19  O   UNL     1      -0.951  16.797  20.325  0.00  0.00    +0.000 OA
ATOM     20  C   UNL     1      -1.167  17.077  18.950  0.00  0.00    +0.000 C 
ENDBRANCH   9  19
BRANCH  14  21
ATOM     21  C   UNL     1      -3.398  11.908  19.334  0.00  0.00    +0.000 C 
BRANCH  21  22
ATOM     22  C   UNL     1      -4.901  12.257  19.279  0.00  0.00    +0.000 C 
ATOM     23  N   UNL     1      -5.596  11.167  18.561  0.00  0.00    +0.000 NA
ATOM     24  C   UNL     1      -7.041  11.363  18.635  0.00  0.00    +0.000 C 
ATOM     25  C   UNL     1      -7.529  11.196  20.078  0.00  0.00    +0.000 C 
ATOM     26  C   UNL     1      -6.717  12.016  21.045  0.00  0.00    +0.000 A 
ATOM     27  C   UNL     1      -7.198  12.255  22.344  0.00  0.00    +0.000 A 
ATOM     28  C   UNL     1      -6.462  13.025  23.248  0.00  0.00    +0.000 A 
ATOM     29  C   UNL     1      -5.243  13.588  22.875  0.00  0.00    +0.000 A 
ATOM     30  C   UNL     1      -4.772  13.340  21.581  0.00  0.00    +0.000 A 
ATOM     31  C   UNL     1      -5.463  12.520  20.673  0.00  0.00    +0.000 A 
ATOM     32  H   UNL     1      -5.351  10.284  19.005  0.00  0.00    +0.000 HD
BRANCH  28  33
ATOM     33  O   UNL     1      -6.978  13.218  24.503  0.00  0.00    +0.000 OA
ATOM     34  H   UNL     1      -7.573  13.986  24.476  0.00  0.00    +0.000 HD
ENDBRANCH  28  33
BRANCH  29  35
ATOM     35  O   UNL     1      -4.394  14.373  23.607  0.00  0.00    +0.000 OA
ATOM     36  C   UNL     1      -4.663  15.762  23.675  0.00  0.00    +0.000 C 
ENDBRANCH  29  35
ENDBRANCH  21  22
ENDBRANCH  14  21
TORSDOF 7
ENDMDL
MODEL 8
REMARK VINA RESULT:      -6.0      2.879      6.024
REMARK  Name = 
REMARK  11 active torsions:
REMARK  status: ('A' for Active; 'I' for Inactive)
REMARK    1  A    between atoms: C_1  and  C_2
REMARK    2  A    between atoms: C_2  and  C_3
REMARK    3  A    between atoms: C_10  and  O_11
REMARK    4  A    between atoms: O_11  and  C_12
REMARK    5  A    between atoms: C_13  and  O_14
REMARK    6  A    between atoms: O_14  and  C_15
REMARK    7  A    between atoms: C_20  and  C_21
REMARK    8  A    between atoms: C_21  and  C_22
REMARK    9  A    between atoms: C_28  and  O_29
REMARK   10  A    between atoms: C_30  and  O_31
REMARK   11  A    between atoms: O_31  and  C_32
REMARK                            x       y       z     vdW  Elec       q    Type
REMARK                         _______ _______ _______ _____ _____    ______ ____
ROOT
ATOM      1  C   UNL     1      -1.632  16.245  22.348  0.00  0.00    +0.000 C 
ATOM      2  C   UNL     1      -0.429  16.336  21.384  0.00  0.00    +0.000 C 
ATOM      3  N   UNL     1       0.691  15.420  21.625  0.00  0.00    +0.000 NA
ATOM      4  C   UNL     1       1.683  15.475  20.541  0.00  0.00    +0.000 C 
ATOM      5  C   UNL     1       1.340  14.625  19.311  0.00  0.00    +0.000 C 
ATOM      6  C   UNL     1       0.962  13.218  19.683  0.00  0.00    +0.000 A 
ATOM      7  C   UNL     1       1.067  12.191  18.721  0.00  0.00    +0.000 A 
ATOM      8  C   UNL     1       0.735  10.860  19.016  0.00  0.00    +0.000 A 
ATOM      9  C   UNL     1       0.292  10.558  20.309  0.00  0.00    +0.000 A 
ATOM     10  C   UNL     1       0.205  11.589  21.265  0.00  0.00    +0.000 A 
ATOM     11  C   UNL     1       0.488  12.939  20.967  0.00  0.00    +0.000 A 
ATOM     12  C   UNL     1       0.403  14.028  22.050  0.00  0.00    +0.000 C 
ATOM     13  C   UNL     1      -0.842  13.938  22.966  0.00  0.00    +0.000 C 
ATOM     14  C   UNL     1      -2.052  14.763  22.499  0.00  0.00    +0.000 C 
ENDROOT
BRANCH   1  16
ATOM     15  C   UNL     1      -0.536  18.118  23.782  0.00  0.00    +0.000 C 
ATOM     16  C   UNL     1      -1.433  16.890  23.741  0.00  0.00    +0.000 C 
ENDBRANCH   1  16
BRANCH   8  17
ATOM     17  O   UNL     1       0.838   9.841  18.109  0.00  0.00    +0.000 OA
ATOM     18  C   UNL     1       2.108   9.246  17.893  0.00  0.00    +0.000 C 
ENDBRANCH   8  17
BRANCH   9  19
ATOM     19  O   UNL     1      -0.098   9.343  20.819  0.00  0.00    +0.000 OA
ATOM     20  C   UNL     1       0.865   8.538  21.485  0.00  0.00    +0.000 C 
ENDBRANCH   9  19
BRANCH  14  21
ATOM     21  C   UNL     1      -2.677  14.251  21.183  0.00  0.00    +0.000 C 
BRANCH  21  22
ATOM     22  C   UNL     1      -3.768  13.172  21.346  0.00  0.00    +0.000 C 
ATOM     23  N   UNL     1      -4.913  13.784  22.053  0.00  0.00    +0.000 NA
ATOM     24  C   UNL     1      -6.040  12.856  22.075  0.00  0.00    +0.000 C 
ATOM     25  C   UNL     1      -6.583  12.639  20.658  0.00  0.00    +0.000 C 
ATOM     26  C   UNL     1      -5.486  12.299  19.684  0.00  0.00    +0.000 A 
ATOM     27  C   UNL     1      -5.804  11.751  18.429  0.00  0.00    +0.000 A 
ATOM     28  C   UNL     1      -4.798  11.417  17.519  0.00  0.00    +0.000 A 
ATOM     29  C   UNL     1      -3.456  11.604  17.843  0.00  0.00    +0.000 A 
ATOM     30  C   UNL     1      -3.152  12.154  19.093  0.00  0.00    +0.000 A 
ATOM     31  C   UNL     1      -4.145  12.554  20.002  0.00  0.00    +0.000 A 
ATOM     32  H   UNL     1      -5.182  14.630  21.553  0.00  0.00    +0.000 HD
BRANCH  28  33
ATOM     33  O   UNL     1      -5.169  10.893  16.308  0.00  0.00    +0.000 OA
ATOM     34  H   UNL     1      -5.099  11.592  15.636  0.00  0.00    +0.000 HD
ENDBRANCH  28  33
BRANCH  29  35
ATOM     35  O   UNL     1      -2.341  11.330  17.099  0.00  0.00    +0.000 OA
ATOM     36  C   UNL     1      -2.113   9.987  16.710  0.00  0.00    +0.000 C 
ENDBRANCH  29  35
ENDBRANCH  21  22
ENDBRANCH  14  21
TORSDOF 7
ENDMDL
MODEL 9
REMARK VINA RESULT:      -5.9      1.241      1.357
REMARK  Name = 
REMARK  11 active torsions:
REMARK  status: ('A' for Active; 'I' for Inactive)
REMARK    1  A    between atoms: C_1  and  C_2
REMARK    2  A    between atoms: C_2  and  C_3
REMARK    3  A    between atoms: C_10  and  O_11
REMARK    4  A    between atoms: O_11  and  C_12
REMARK    5  A    between atoms: C_13  and  O_14
REMARK    6  A    between atoms: O_14  and  C_15
REMARK    7  A    between atoms: C_20  and  C_21
REMARK    8  A    between atoms: C_21  and  C_22
REMARK    9  A    between atoms: C_28  and  O_29
REMARK   10  A    between atoms: C_30  and  O_31
REMARK   11  A    between atoms: O_31  and  C_32
REMARK                            x       y       z     vdW  Elec       q    Type
REMARK                         _______ _______ _______ _____ _____    ______ ____
ROOT
ATOM      1  C   UNL     1       0.116  10.134  18.671  0.00  0.00    +0.000 C 
ATOM      2  C   UNL     1      -0.143   9.697  20.129  0.00  0.00    +0.000 C 
ATOM      3  N   UNL     1       0.644  10.360  21.174  0.00  0.00    +0.000 NA
ATOM      4  C   UNL     1       0.179   9.994  22.521  0.00  0.00    +0.000 C 
ATOM      5  C   UNL     1      -1.032  10.792  23.021  0.00  0.00    +0.000 C 
ATOM      6  C   UNL     1      -0.843  12.274  22.853  0.00  0.00    +0.000 A 
ATOM      7  C   UNL     1      -1.596  13.167  23.646  0.00  0.00    +0.000 A 
ATOM      8  C   UNL     1      -1.454  14.558  23.535  0.00  0.00    +0.000 A 
ATOM      9  C   UNL     1      -0.529  15.060  22.610  0.00  0.00    +0.000 A 
ATOM     10  C   UNL     1       0.227  14.159  21.835  0.00  0.00    +0.000 A 
ATOM     11  C   UNL     1       0.058  12.759  21.901  0.00  0.00    +0.000 A 
ATOM     12  C   UNL     1       0.923  11.812  21.053  0.00  0.00    +0.000 C 
ATOM     13  C   UNL     1       1.120  12.253  19.583  0.00  0.00    +0.000 C 
ATOM     14  C   UNL     1       0.095  11.680  18.591  0.00  0.00    +0.000 C 
ENDROOT
BRANCH   1  16
ATOM     15  C   UNL     1       2.005   8.346  18.674  0.00  0.00    +0.000 C 
ATOM     16  C   UNL     1       1.407   9.582  18.018  0.00  0.00    +0.000 C 
ENDBRANCH   1  16
BRANCH   8  17
ATOM     17  O   UNL     1      -2.160  15.449  24.297  0.00  0.00    +0.000 OA
ATOM     18  C   UNL     1      -3.482  15.785  23.906  0.00  0.00    +0.000 C 
ENDBRANCH   8  17
BRANCH   9  19
ATOM     19  O   UNL     1      -0.232  16.370  22.321  0.00  0.00    +0.000 OA
ATOM     20  C   UNL     1      -0.960  17.028  21.294  0.00  0.00    +0.000 C 
ENDBRANCH   9  19
BRANCH  14  21
ATOM     21  C   UNL     1      -1.339  12.204  18.815  0.00  0.00    +0.000 C 
BRANCH  21  22
ATOM     22  C   UNL     1      -2.318  11.971  17.644  0.00  0.00    +0.000 C 
ATOM     23  N   UNL     1      -1.738  10.934  16.765  0.00  0.00    +0.000 NA
ATOM     24  C   UNL     1      -2.704  10.551  15.740  0.00  0.00    +0.000 C 
ATOM     25  C   UNL     1      -3.903   9.836  16.375  0.00  0.00    +0.000 C 
ATOM     26  C   UNL     1      -4.467  10.612  17.536  0.00  0.00    +0.000 A 
ATOM     27  C   UNL     1      -5.743  10.301  18.038  0.00  0.00    +0.000 A 
ATOM     28  C   UNL     1      -6.286  11.020  19.106  0.00  0.00    +0.000 A 
ATOM     29  C   UNL     1      -5.581  12.073  19.685  0.00  0.00    +0.000 A 
ATOM     30  C   UNL     1      -4.311  12.370  19.181  0.00  0.00    +0.000 A 
ATOM     31  C   UNL     1      -3.717  11.626  18.148  0.00  0.00    +0.000 A 
ATOM     32  H   UNL     1      -1.510  10.121  17.336  0.00  0.00    +0.000 HD
BRANCH  28  33
ATOM     33  O   UNL     1      -7.532  10.666  19.556  0.00  0.00    +0.000 OA
ATOM     34  H   UNL     1      -7.575   9.696  19.609  0.00  0.00    +0.000 HD
ENDBRANCH  28  33
BRANCH  29  35
ATOM     35  O   UNL     1      -5.947  12.893  20.718  0.00  0.00    +0.000 OA
ATOM     36  C   UNL     1      -5.177  14.059  20.947  0.00  0.00    +0.000 C 
ENDBRANCH  29  35
ENDBRANCH  21  22
ENDBRANCH  14  21
TORSDOF 7
ENDMDL
