MODEL 1
REMARK VINA RESULT:      -6.4      0.000      0.000
REMARK  Name = 
REMARK  5 active torsions:
REMARK  status: ('A' for Active; 'I' for Inactive)
REMARK    1  A    between atoms: C_1  and  C_2
REMARK    2  A    between atoms: N_7  and  C_8
REMARK    3  A    between atoms: C_11  and  C_12
REMARK    4  A    between atoms: C_12  and  C_13
REMARK    5  A    between atoms: C_13  and  O_14
REMARK                            x       y       z     vdW  Elec       q    Type
REMARK                         _______ _______ _______ _____ _____    ______ ____
ROOT
ATOM      1  C   UNL     1       2.009   7.771  19.608  0.00  0.00    +0.000 A 
ATOM      2  C   UNL     1       1.938   8.392  18.354  0.00  0.00    +0.000 A 
ATOM      3  C   UNL     1       1.164   9.544  18.158  0.00  0.00    +0.000 A 
ATOM      4  C   UNL     1       0.449  10.108  19.220  0.00  0.00    +0.000 A 
ATOM      5  C   UNL     1       0.527   9.505  20.476  0.00  0.00    +0.000 A 
ATOM      6  C   UNL     1       1.296   8.356  20.661  0.00  0.00    +0.000 A 
ENDROOT
BRANCH   1  13
ATOM      7  C   UNL     1       4.375   2.150  19.882  0.00  0.00    +0.000 C 
ATOM      8  C   UNL     1       3.262   3.134  20.086  0.00  0.00    +0.000 A 
ATOM      9  C   UNL     1       2.011   2.698  20.467  0.00  0.00    +0.000 A 
ATOM     10  C   UNL     1       1.063   3.674  20.612  0.00  0.00    +0.000 A 
ATOM     11  N   UNL     1       1.309   4.972  20.396  0.00  0.00    +0.000 NA
ATOM     12  C   UNL     1       2.548   5.326  20.017  0.00  0.00    +0.000 A 
ATOM     13  N   UNL     1       2.852   6.667  19.790  0.00  0.00    +0.000 N 
ATOM     14  N   UNL     1       3.548   4.440  19.869  0.00  0.00    +0.000 NA
ATOM     15  H   UNL     1       3.838   6.790  19.621  0.00  0.00    +0.000 HD
ENDBRANCH   1  13
BRANCH   4  16
ATOM     16  C   UNL     1      -0.437  11.314  19.025  0.00  0.00    +0.000 C 
BRANCH  16  17
ATOM     17  C   UNL     1      -1.513  11.070  17.967  0.00  0.00    +0.000 C 
BRANCH  17  18
ATOM     18  O   UNL     1      -1.671  12.192  17.103  0.00  0.00    +0.000 OA
ATOM     19  H   UNL     1      -0.925  12.795  17.285  0.00  0.00    +0.000 HD
ENDBRANCH  17  18
ENDBRANCH  16  17
ENDBRANCH   4  16
TORSDOF 4
ENDMDL
MODEL 2
REMARK VINA RESULT:      -6.4      5.285      6.852
REMARK  Name = 
REMARK  5 active torsions:
REMARK  status: ('A' for Active; 'I' for Inactive)
REMARK    1  A    between atoms: C_1  and  C_2
REMARK    2  A    between atoms: N_7  and  C_8
REMARK    3  A    between atoms: C_11  and  C_12
REMARK    4  A    between atoms: C_12  and  C_13
REMARK    5  A    between atoms: C_13  and  O_14
REMARK                            x       y       z     vdW  Elec       q    Type
REMARK                         _______ _______ _______ _____ _____    ______ ____
ROOT
ATOM      1  C   UNL     1       5.090   5.273  17.826  0.00  0.00    +0.000 A 
ATOM      2  C   UNL     1       4.099   6.263  17.880  0.00  0.00    +0.000 A 
ATOM      3  C   UNL     1       3.055   6.194  18.813  0.00  0.00    +0.000 A 
ATOM      4  C   UNL     1       2.985   5.134  19.723  0.00  0.00    +0.000 A 
ATOM      5  C   UNL     1       3.977   4.153  19.686  0.00  0.00    +0.000 A 
ATOM      6  C   UNL     1       5.010   4.227  18.752  0.00  0.00    +0.000 A 
ENDROOT
BRANCH   1  13
ATOM      7  C   UNL     1       8.580   5.736  12.839  0.00  0.00    +0.000 C 
ATOM      8  C   UNL     1       7.454   5.128  13.621  0.00  0.00    +0.000 A 
ATOM      9  C   UNL     1       6.603   4.223  13.023  0.00  0.00    +0.000 A 
ATOM     10  C   UNL     1       5.601   3.738  13.818  0.00  0.00    +0.000 A 
ATOM     11  N   UNL     1       5.433   4.110  15.093  0.00  0.00    +0.000 NA
ATOM     12  C   UNL     1       6.293   5.003  15.609  0.00  0.00    +0.000 A 
ATOM     13  N   UNL     1       6.162   5.412  16.935  0.00  0.00    +0.000 N 
ATOM     14  N   UNL     1       7.319   5.518  14.910  0.00  0.00    +0.000 NA
ATOM     15  H   UNL     1       6.936   5.995  17.211  0.00  0.00    +0.000 HD
ENDBRANCH   1  13
BRANCH   4  16
ATOM     16  C   UNL     1       1.843   5.004  20.700  0.00  0.00    +0.000 C 
BRANCH  16  17
ATOM     17  C   UNL     1       1.479   3.542  20.966  0.00  0.00    +0.000 C 
BRANCH  17  18
ATOM     18  O   UNL     1       0.391   3.111  20.153  0.00  0.00    +0.000 OA
ATOM     19  H   UNL     1      -0.403   3.580  20.472  0.00  0.00    +0.000 HD
ENDBRANCH  17  18
ENDBRANCH  16  17
ENDBRANCH   4  16
TORSDOF 4
ENDMDL
MODEL 3
REMARK VINA RESULT:      -6.3      0.110      1.169
REMARK  Name = 
REMARK  5 active torsions:
REMARK  status: ('A' for Active; 'I' for Inactive)
REMARK    1  A    between atoms: C_1  and  C_2
REMARK    2  A    between atoms: N_7  and  C_8
REMARK    3  A    between atoms: C_11  and  C_12
REMARK    4  A    between atoms: C_12  and  C_13
REMARK    5  A    between atoms: C_13  and  O_14
REMARK                            x       y       z     vdW  Elec       q    Type
REMARK                         _______ _______ _______ _____ _____    ______ ____
ROOT
ATOM      1  C   UNL     1       2.104   7.784  19.634  0.00  0.00    +0.000 A 
ATOM      2  C   UNL     1       1.363   8.300  20.706  0.00  0.00    +0.000 A 
ATOM      3  C   UNL     1       0.487   9.380  20.529  0.00  0.00    +0.000 A 
ATOM      4  C   UNL     1       0.327   9.964  19.269  0.00  0.00    +0.000 A 
ATOM      5  C   UNL     1       1.049   9.446  18.193  0.00  0.00    +0.000 A 
ATOM      6  C   UNL     1       1.920   8.374  18.378  0.00  0.00    +0.000 A 
ENDROOT
BRANCH   1  13
ATOM      7  C   UNL     1       4.310   2.098  19.891  0.00  0.00    +0.000 C 
ATOM      8  C   UNL     1       3.217   3.108  20.072  0.00  0.00    +0.000 A 
ATOM      9  C   UNL     1       1.940   2.699  20.398  0.00  0.00    +0.000 A 
ATOM     10  C   UNL     1       1.014   3.697  20.526  0.00  0.00    +0.000 A 
ATOM     11  N   UNL     1       1.301   4.991  20.342  0.00  0.00    +0.000 NA
ATOM     12  C   UNL     1       2.563   5.319  20.017  0.00  0.00    +0.000 A 
ATOM     13  N   UNL     1       2.910   6.655  19.826  0.00  0.00    +0.000 N 
ATOM     14  N   UNL     1       3.544   4.409  19.889  0.00  0.00    +0.000 NA
ATOM     15  H   UNL     1       3.904   6.754  19.696  0.00  0.00    +0.000 HD
ENDBRANCH   1  13
BRANCH   4  16
ATOM     16  C   UNL     1      -0.565  11.164  19.061  0.00  0.00    +0.000 C 
BRANCH  16  17
ATOM     17  C   UNL     1      -1.488  10.991  17.854  0.00  0.00    +0.000 C 
BRANCH  17  18
ATOM     18  O   UNL     1      -1.688  12.218  17.158  0.00  0.00    +0.000 OA
ATOM     19  H   UNL     1      -1.066  12.865  17.543  0.00  0.00    +0.000 HD
ENDBRANCH  17  18
ENDBRANCH  16  17
ENDBRANCH   4  16
TORSDOF 4
ENDMDL
MODEL 4
REMARK VINA RESULT:      -6.3      5.591      7.357
REMARK  Name = 
REMARK  5 active torsions:
REMARK  status: ('A' for Active; 'I' for Inactive)
REMARK    1  A    between atoms: C_1  and  C_2
REMARK    2  A    between atoms: N_7  and  C_8
REMARK    3  A    between atoms: C_11  and  C_12
REMARK    4  A    between atoms: C_12  and  C_13
REMARK    5  A    between atoms: C_13  and  O_14
REMARK                            x       y       z     vdW  Elec       q    Type
REMARK                         _______ _______ _______ _____ _____    ______ ____
ROOT
ATOM      1  C   UNL     1       5.102   4.902  17.634  0.00  0.00    +0.000 A 
ATOM      2  C   UNL     1       5.245   4.008  18.704  0.00  0.00    +0.000 A 
ATOM      3  C   UNL     1       4.156   3.677  19.522  0.00  0.00    +0.000 A 
ATOM      4  C   UNL     1       2.893   4.229  19.282  0.00  0.00    +0.000 A 
ATOM      5  C   UNL     1       2.739   5.108  18.209  0.00  0.00    +0.000 A 
ATOM      6  C   UNL     1       3.829   5.435  17.402  0.00  0.00    +0.000 A 
ENDROOT
BRANCH   1  13
ATOM      7  C   UNL     1       8.705   5.841  12.796  0.00  0.00    +0.000 C 
ATOM      8  C   UNL     1       7.595   5.125  13.507  0.00  0.00    +0.000 A 
ATOM      9  C   UNL     1       6.819   4.205  12.835  0.00  0.00    +0.000 A 
ATOM     10  C   UNL     1       5.825   3.620  13.569  0.00  0.00    +0.000 A 
ATOM     11  N   UNL     1       5.596   3.911  14.855  0.00  0.00    +0.000 NA
ATOM     12  C   UNL     1       6.385   4.824  15.447  0.00  0.00    +0.000 A 
ATOM     13  N   UNL     1       6.190   5.151  16.787  0.00  0.00    +0.000 N 
ATOM     14  N   UNL     1       7.398   5.436  14.810  0.00  0.00    +0.000 NA
ATOM     15  H   UNL     1       6.918   5.763  17.119  0.00  0.00    +0.000 HD
ENDBRANCH   1  13
BRANCH   4  16
ATOM     16  C   UNL     1       1.717   3.936  20.181  0.00  0.00    +0.000 C 
BRANCH  16  17
ATOM     17  C   UNL     1       2.154   3.614  21.611  0.00  0.00    +0.000 C 
BRANCH  17  18
ATOM     18  O   UNL     1       1.512   2.445  22.111  0.00  0.00    +0.000 OA
ATOM     19  H   UNL     1       2.053   2.123  22.857  0.00  0.00    +0.000 HD
ENDBRANCH  17  18
ENDBRANCH  16  17
ENDBRANCH   4  16
TORSDOF 4
ENDMDL
MODEL 5
REMARK VINA RESULT:      -6.3      4.175      6.809
REMARK  Name = 
REMARK  5 active torsions:
REMARK  status: ('A' for Active; 'I' for Inactive)
REMARK    1  A    between atoms: C_1  and  C_2
REMARK    2  A    between atoms: N_7  and  C_8
REMARK    3  A    between atoms: C_11  and  C_12
REMARK    4  A    between atoms: C_12  and  C_13
REMARK    5  A    between atoms: C_13  and  O_14
REMARK                            x       y       z     vdW  Elec       q    Type
REMARK                         _______ _______ _______ _____ _____    ______ ____
ROOT
ATOM      1  C   UNL     1       3.599   5.986  18.607  0.00  0.00    +0.000 A 
ATOM      2  C   UNL     1       4.382   6.792  17.769  0.00  0.00    +0.000 A 
ATOM      3  C   UNL     1       4.990   6.267  16.620  0.00  0.00    +0.000 A 
ATOM      4  C   UNL     1       4.821   4.921  16.279  0.00  0.00    +0.000 A 
ATOM      5  C   UNL     1       4.031   4.116  17.101  0.00  0.00    +0.000 A 
ATOM      6  C   UNL     1       3.432   4.645  18.243  0.00  0.00    +0.000 A 
ENDROOT
BRANCH   1  13
ATOM      7  C   UNL     1      -0.293   8.983  22.231  0.00  0.00    +0.000 C 
ATOM      8  C   UNL     1       0.515   8.845  20.976  0.00  0.00    +0.000 A 
ATOM      9  C   UNL     1       0.368   9.757  19.952  0.00  0.00    +0.000 A 
ATOM     10  C   UNL     1       1.140   9.533  18.845  0.00  0.00    +0.000 A 
ATOM     11  N   UNL     1       1.983   8.499  18.737  0.00  0.00    +0.000 NA
ATOM     12  C   UNL     1       2.070   7.643  19.769  0.00  0.00    +0.000 A 
ATOM     13  N   UNL     1       2.941   6.558  19.704  0.00  0.00    +0.000 N 
ATOM     14  N   UNL     1       1.365   7.794  20.903  0.00  0.00    +0.000 NA
ATOM     15  H   UNL     1       2.978   6.071  20.585  0.00  0.00    +0.000 HD
ENDBRANCH   1  13
BRANCH   4  16
ATOM     16  C   UNL     1       5.511   4.316  15.081  0.00  0.00    +0.000 C 
BRANCH  16  17
ATOM     17  C   UNL     1       6.945   4.825  14.926  0.00  0.00    +0.000 C 
BRANCH  17  18
ATOM     18  O   UNL     1       7.761   4.455  16.034  0.00  0.00    +0.000 OA
ATOM     19  H   UNL     1       7.249   3.811  16.559  0.00  0.00    +0.000 HD
ENDBRANCH  17  18
ENDBRANCH  16  17
ENDBRANCH   4  16
TORSDOF 4
ENDMDL
MODEL 6
REMARK VINA RESULT:      -6.2      4.150      6.834
REMARK  Name = 
REMARK  5 active torsions:
REMARK  status: ('A' for Active; 'I' for Inactive)
REMARK    1  A    between atoms: C_1  and  C_2
REMARK    2  A    between atoms: N_7  and  C_8
REMARK    3  A    between atoms: C_11  and  C_12
REMARK    4  A    between atoms: C_12  and  C_13
REMARK    5  A    between atoms: C_13  and  O_14
REMARK                            x       y       z     vdW  Elec       q    Type
REMARK                         _______ _______ _______ _____ _____    ______ ____
ROOT
ATOM      1  C   UNL     1       3.382   6.126  18.583  0.00  0.00    +0.000 A 
ATOM      2  C   UNL     1       3.193   4.768  18.290  0.00  0.00    +0.000 A 
ATOM      3  C   UNL     1       3.854   4.159  17.215  0.00  0.00    +0.000 A 
ATOM      4  C   UNL     1       4.729   4.896  16.410  0.00  0.00    +0.000 A 
ATOM      5  C   UNL     1       4.935   6.244  16.704  0.00  0.00    +0.000 A 
ATOM      6  C   UNL     1       4.271   6.843  17.774  0.00  0.00    +0.000 A 
ENDROOT
BRANCH   1  13
ATOM      7  C   UNL     1      -0.346   9.106  22.389  0.00  0.00    +0.000 C 
ATOM      8  C   UNL     1       0.418   8.981  21.104  0.00  0.00    +0.000 A 
ATOM      9  C   UNL     1       0.251   9.914  20.103  0.00  0.00    +0.000 A 
ATOM     10  C   UNL     1       0.983   9.701  18.967  0.00  0.00    +0.000 A 
ATOM     11  N   UNL     1       1.807   8.658  18.812  0.00  0.00    +0.000 NA
ATOM     12  C   UNL     1       1.915   7.781  19.824  0.00  0.00    +0.000 A 
ATOM     13  N   UNL     1       2.769   6.686  19.711  0.00  0.00    +0.000 N 
ATOM     14  N   UNL     1       1.251   7.920  20.985  0.00  0.00    +0.000 NA
ATOM     15  H   UNL     1       2.828   6.182  20.581  0.00  0.00    +0.000 HD
ENDBRANCH   1  13
BRANCH   4  16
ATOM     16  C   UNL     1       5.409   4.281  15.211  0.00  0.00    +0.000 C 
BRANCH  16  17
ATOM     17  C   UNL     1       6.749   4.951  14.906  0.00  0.00    +0.000 C 
BRANCH  17  18
ATOM     18  O   UNL     1       7.777   4.507  15.787  0.00  0.00    +0.000 OA
ATOM     19  H   UNL     1       8.579   5.017  15.564  0.00  0.00    +0.000 HD
ENDBRANCH  17  18
ENDBRANCH  16  17
ENDBRANCH   4  16
TORSDOF 4
ENDMDL
MODEL 7
REMARK VINA RESULT:      -6.2      5.761      7.439
REMARK  Name = 
REMARK  5 active torsions:
REMARK  status: ('A' for Active; 'I' for Inactive)
REMARK    1  A    between atoms: C_1  and  C_2
REMARK    2  A    between atoms: N_7  and  C_8
REMARK    3  A    between atoms: C_11  and  C_12
REMARK    4  A    between atoms: C_12  and  C_13
REMARK    5  A    between atoms: C_13  and  O_14
REMARK                            x       y       z     vdW  Elec       q    Type
REMARK                         _______ _______ _______ _____ _____    ______ ____
ROOT
ATOM      1  C   UNL     1       4.749   4.617  16.978  0.00  0.00    +0.000 A 
ATOM      2  C   UNL     1       4.425   3.266  17.167  0.00  0.00    +0.000 A 
ATOM      3  C   UNL     1       3.224   2.888  17.783  0.00  0.00    +0.000 A 
ATOM      4  C   UNL     1       2.313   3.856  18.217  0.00  0.00    +0.000 A 
ATOM      5  C   UNL     1       2.621   5.203  18.018  0.00  0.00    +0.000 A 
ATOM      6  C   UNL     1       3.820   5.571  17.408  0.00  0.00    +0.000 A 
ENDROOT
BRANCH   1  13
ATOM      7  C   UNL     1       8.869   5.994  12.689  0.00  0.00    +0.000 C 
ATOM      8  C   UNL     1       7.715   5.193  13.214  0.00  0.00    +0.000 A 
ATOM      9  C   UNL     1       7.070   4.287  12.399  0.00  0.00    +0.000 A 
ATOM     10  C   UNL     1       6.022   3.619  12.969  0.00  0.00    +0.000 A 
ATOM     11  N   UNL     1       5.624   3.820  14.231  0.00  0.00    +0.000 NA
ATOM     12  C   UNL     1       6.292   4.725  14.967  0.00  0.00    +0.000 A 
ATOM     13  N   UNL     1       5.919   4.961  16.289  0.00  0.00    +0.000 N 
ATOM     14  N   UNL     1       7.346   5.415  14.498  0.00  0.00    +0.000 NA
ATOM     15  H   UNL     1       6.573   5.578  16.744  0.00  0.00    +0.000 HD
ENDBRANCH   1  13
BRANCH   4  16
ATOM     16  C   UNL     1       1.040   3.480  18.934  0.00  0.00    +0.000 C 
BRANCH  16  17
ATOM     17  C   UNL     1       1.000   4.031  20.360  0.00  0.00    +0.000 C 
BRANCH  17  18
ATOM     18  O   UNL     1       1.208   3.007  21.330  0.00  0.00    +0.000 OA
ATOM     19  H   UNL     1       1.189   3.439  22.205  0.00  0.00    +0.000 HD
ENDBRANCH  17  18
ENDBRANCH  16  17
ENDBRANCH   4  16
TORSDOF 4
ENDMDL
MODEL 8
REMARK VINA RESULT:      -6.2      5.631      7.430
REMARK  Name = 
REMARK  5 active torsions:
REMARK  status: ('A' for Active; 'I' for Inactive)
REMARK    1  A    between atoms: C_1  and  C_2
REMARK    2  A    between atoms: N_7  and  C_8
REMARK    3  A    between atoms: C_11  and  C_12
REMARK    4  A    between atoms: C_12  and  C_13
REMARK    5  A    between atoms: C_13  and  O_14
REMARK                            x       y       z     vdW  Elec       q    Type
REMARK                         _______ _______ _______ _____ _____    ______ ____
ROOT
ATOM      1  C   UNL     1       4.675   4.499  17.051  0.00  0.00    +0.000 A 
ATOM      2  C   UNL     1       3.773   5.511  17.407  0.00  0.00    +0.000 A 
ATOM      3  C   UNL     1       2.625   5.228  18.160  0.00  0.00    +0.000 A 
ATOM      4  C   UNL     1       2.358   3.921  18.583  0.00  0.00    +0.000 A 
ATOM      5  C   UNL     1       3.260   2.910  18.246  0.00  0.00    +0.000 A 
ATOM      6  C   UNL     1       4.397   3.201  17.493  0.00  0.00    +0.000 A 
ENDROOT
BRANCH   1  13
ATOM      7  C   UNL     1       8.808   5.894  12.781  0.00  0.00    +0.000 C 
ATOM      8  C   UNL     1       7.630   5.116  13.285  0.00  0.00    +0.000 A 
ATOM      9  C   UNL     1       6.945   4.267  12.440  0.00  0.00    +0.000 A 
ATOM     10  C   UNL     1       5.878   3.616  12.993  0.00  0.00    +0.000 A 
ATOM     11  N   UNL     1       5.498   3.781  14.266  0.00  0.00    +0.000 NA
ATOM     12  C   UNL     1       6.204   4.630  15.031  0.00  0.00    +0.000 A 
ATOM     13  N   UNL     1       5.852   4.827  16.365  0.00  0.00    +0.000 N 
ATOM     14  N   UNL     1       7.279   5.299  14.579  0.00  0.00    +0.000 NA
ATOM     15  H   UNL     1       6.531   5.401  16.837  0.00  0.00    +0.000 HD
ENDBRANCH   1  13
BRANCH   4  16
ATOM     16  C   UNL     1       1.102   3.577  19.345  0.00  0.00    +0.000 C 
BRANCH  16  17
ATOM     17  C   UNL     1       1.410   2.915  20.689  0.00  0.00    +0.000 C 
BRANCH  17  18
ATOM     18  O   UNL     1       1.995   3.832  21.610  0.00  0.00    +0.000 OA
ATOM     19  H   UNL     1       2.447   3.298  22.290  0.00  0.00    +0.000 HD
ENDBRANCH  17  18
ENDBRANCH  16  17
ENDBRANCH   4  16
TORSDOF 4
ENDMDL
MODEL 9
REMARK VINA RESULT:      -6.2      5.528      6.891
REMARK  Name = 
REMARK  5 active torsions:
REMARK  status: ('A' for Active; 'I' for Inactive)
REMARK    1  A    between atoms: C_1  and  C_2
REMARK    2  A    between atoms: N_7  and  C_8
REMARK    3  A    between atoms: C_11  and  C_12
REMARK    4  A    between atoms: C_12  and  C_13
REMARK    5  A    between atoms: C_13  and  O_14
REMARK                            x       y       z     vdW  Elec       q    Type
REMARK                         _______ _______ _______ _____ _____    ______ ____
ROOT
ATOM      1  C   UNL     1       5.284   4.849  17.410  0.00  0.00    +0.000 A 
ATOM      2  C   UNL     1       4.767   5.544  16.308  0.00  0.00    +0.000 A 
ATOM      3  C   UNL     1       5.478   5.623  15.102  0.00  0.00    +0.000 A 
ATOM      4  C   UNL     1       6.722   4.999  14.970  0.00  0.00    +0.000 A 
ATOM      5  C   UNL     1       7.237   4.291  16.057  0.00  0.00    +0.000 A 
ATOM      6  C   UNL     1       6.525   4.221  17.254  0.00  0.00    +0.000 A 
ENDROOT
BRANCH   1  13
ATOM      7  C   UNL     1       1.690   2.800  21.899  0.00  0.00    +0.000 C 
ATOM      8  C   UNL     1       2.064   2.935  20.453  0.00  0.00    +0.000 A 
ATOM      9  C   UNL     1       1.380   2.223  19.490  0.00  0.00    +0.000 A 
ATOM     10  C   UNL     1       1.807   2.406  18.204  0.00  0.00    +0.000 A 
ATOM     11  N   UNL     1       2.827   3.210  17.878  0.00  0.00    +0.000 NA
ATOM     12  C   UNL     1       3.455   3.866  18.867  0.00  0.00    +0.000 A 
ATOM     13  N   UNL     1       4.515   4.722  18.574  0.00  0.00    +0.000 N 
ATOM     14  N   UNL     1       3.092   3.764  20.158  0.00  0.00    +0.000 NA
ATOM     15  H   UNL     1       4.813   5.222  19.396  0.00  0.00    +0.000 HD
ENDBRANCH   1  13
BRANCH   4  16
ATOM     16  C   UNL     1       7.535   5.115  13.704  0.00  0.00    +0.000 C 
BRANCH  16  17
ATOM     17  C   UNL     1       6.937   4.294  12.560  0.00  0.00    +0.000 C 
BRANCH  17  18
ATOM     18  O   UNL     1       6.344   3.087  13.028  0.00  0.00    +0.000 OA
ATOM     19  H   UNL     1       5.931   2.657  12.255  0.00  0.00    +0.000 HD
ENDBRANCH  17  18
ENDBRANCH  16  17
ENDBRANCH   4  16
TORSDOF 4
ENDMDL
