MODEL 1
REMARK VINA RESULT:      -8.3      0.000      0.000
REMARK  Name = 
REMARK  8 active torsions:
REMARK  status: ('A' for Active; 'I' for Inactive)
REMARK    1  A    between atoms: C_1  and  C_2
REMARK    2  A    between atoms: C_2  and  C_3
REMARK    3  A    between atoms: C_6  and  O_7
REMARK    4  A    between atoms: O_7  and  C_8
REMARK    5  A    between atoms: C_8  and  C_10
REMARK    6  A    between atoms: N_15  and  C_16
REMARK    7  A    between atoms: C_16  and  C_17
REMARK    8  A    between atoms: C_27  and  C_28
REMARK                            x       y       z     vdW  Elec       q    Type
REMARK                         _______ _______ _______ _____ _____    ______ ____
ROOT
ATOM      1  C   UNL     1       3.719   5.948  19.202  0.00  0.00    +0.000 A 
ATOM      2  S   UNL     1       2.610   5.864  20.508  0.00  0.00    +0.000 S 
ATOM      3  C   UNL     1       1.863   7.323  20.076  0.00  0.00    +0.000 A 
ATOM      4  N   UNL     1       0.882   7.861  20.842  0.00  0.00    +0.000 NA
ATOM      5  C   UNL     1       0.455   9.010  20.430  0.00  0.00    +0.000 A 
ATOM      6  N   UNL     1       0.892   9.677  19.302  0.00  0.00    +0.000 N 
ATOM      7  C   UNL     1       1.846   9.118  18.453  0.00  0.00    +0.000 A 
ATOM      8  O   UNL     1       2.200   9.648  17.402  0.00  0.00    +0.000 OA
ATOM      9  C   UNL     1       2.386   7.846  18.914  0.00  0.00    +0.000 A 
ATOM     10  C   UNL     1       3.431   7.021  18.356  0.00  0.00    +0.000 A 
ATOM     11  C   UNL     1       4.171   7.298  17.081  0.00  0.00    +0.000 C 
ENDROOT
BRANCH   1  12
ATOM     12  C   UNL     1       4.821   4.996  19.084  0.00  0.00    +0.000 C 
ATOM     13  O   UNL     1       5.832   5.001  19.780  0.00  0.00    +0.000 OA
BRANCH  12  14
ATOM     14  O   UNL     1       4.570   4.050  18.092  0.00  0.00    +0.000 OA
BRANCH  14  18
ATOM     15  C   UNL     1       6.770   4.614  14.555  0.00  0.00    +0.000 A 
ATOM     16  C   UNL     1       7.346   4.787  15.821  0.00  0.00    +0.000 A 
ATOM     17  C   UNL     1       6.594   4.556  16.973  0.00  0.00    +0.000 A 
ATOM     18  C   UNL     1       5.261   4.149  16.867  0.00  0.00    +0.000 A 
ATOM     19  C   UNL     1       4.695   3.925  15.618  0.00  0.00    +0.000 A 
ATOM     20  C   UNL     1       5.450   4.158  14.466  0.00  0.00    +0.000 A 
BRANCH  15  22
ATOM     21  C   UNL     1       7.018   4.136  12.103  0.00  0.00    +0.000 C 
ATOM     22  C   UNL     1       7.555   4.901  13.302  0.00  0.00    +0.000 C 
ENDBRANCH  15  22
ENDBRANCH  14  18
ENDBRANCH  12  14
ENDBRANCH   1  12
BRANCH   6  23
ATOM     23  C   UNL     1       0.292  10.944  18.927  0.00  0.00    +0.000 C 
BRANCH  23  24
ATOM     24  C   UNL     1      -1.136  10.816  18.443  0.00  0.00    +0.000 A 
ATOM     25  C   UNL     1      -2.167  11.570  19.031  0.00  0.00    +0.000 A 
ATOM     26  C   UNL     1      -3.469  11.525  18.524  0.00  0.00    +0.000 A 
ATOM     27  C   UNL     1      -3.760  10.721  17.426  0.00  0.00    +0.000 A 
ATOM     28  C   UNL     1      -2.752   9.952  16.861  0.00  0.00    +0.000 A 
ATOM     29  F   UNL     1      -3.028   9.182  15.799  0.00  0.00    +0.000 F 
ATOM     30  C   UNL     1      -1.453   9.981  17.361  0.00  0.00    +0.000 A 
ENDBRANCH  23  24
ENDBRANCH   6  23
TORSDOF 6
ENDMDL
MODEL 2
REMARK VINA RESULT:      -8.2      0.858      1.226
REMARK  Name = 
REMARK  8 active torsions:
REMARK  status: ('A' for Active; 'I' for Inactive)
REMARK    1  A    between atoms: C_1  and  C_2
REMARK    2  A    between atoms: C_2  and  C_3
REMARK    3  A    between atoms: C_6  and  O_7
REMARK    4  A    between atoms: O_7  and  C_8
REMARK    5  A    between atoms: C_8  and  C_10
REMARK    6  A    between atoms: N_15  and  C_16
REMARK    7  A    between atoms: C_16  and  C_17
REMARK    8  A    between atoms: C_27  and  C_28
REMARK                            x       y       z     vdW  Elec       q    Type
REMARK                         _______ _______ _______ _____ _____    ______ ____
ROOT
ATOM      1  C   UNL     1       3.674   5.887  19.160  0.00  0.00    +0.000 A 
ATOM      2  S   UNL     1       2.582   5.817  20.481  0.00  0.00    +0.000 S 
ATOM      3  C   UNL     1       1.860   7.294  20.067  0.00  0.00    +0.000 A 
ATOM      4  N   UNL     1       0.901   7.848  20.850  0.00  0.00    +0.000 NA
ATOM      5  C   UNL     1       0.492   9.008  20.450  0.00  0.00    +0.000 A 
ATOM      6  N   UNL     1       0.928   9.672  19.319  0.00  0.00    +0.000 N 
ATOM      7  C   UNL     1       1.858   9.099  18.454  0.00  0.00    +0.000 A 
ATOM      8  O   UNL     1       2.208   9.627  17.402  0.00  0.00    +0.000 OA
ATOM      9  C   UNL     1       2.378   7.813  18.901  0.00  0.00    +0.000 A 
ATOM     10  C   UNL     1       3.398   6.970  18.323  0.00  0.00    +0.000 A 
ATOM     11  C   UNL     1       4.126   7.239  17.040  0.00  0.00    +0.000 C 
ENDROOT
BRANCH   1  12
ATOM     12  C   UNL     1       4.755   4.913  19.021  0.00  0.00    +0.000 C 
ATOM     13  O   UNL     1       5.751   4.861  19.736  0.00  0.00    +0.000 OA
BRANCH  12  14
ATOM     14  O   UNL     1       4.501   4.018  17.983  0.00  0.00    +0.000 OA
BRANCH  14  18
ATOM     15  C   UNL     1       6.790   4.675  14.521  0.00  0.00    +0.000 A 
ATOM     16  C   UNL     1       7.336   4.806  15.805  0.00  0.00    +0.000 A 
ATOM     17  C   UNL     1       6.555   4.544  16.931  0.00  0.00    +0.000 A 
ATOM     18  C   UNL     1       5.222   4.149  16.779  0.00  0.00    +0.000 A 
ATOM     19  C   UNL     1       4.686   3.967  15.510  0.00  0.00    +0.000 A 
ATOM     20  C   UNL     1       5.470   4.230  14.385  0.00  0.00    +0.000 A 
BRANCH  15  22
ATOM     21  C   UNL     1       7.126   4.233  12.072  0.00  0.00    +0.000 C 
ATOM     22  C   UNL     1       7.607   4.995  13.296  0.00  0.00    +0.000 C 
ENDBRANCH  15  22
ENDBRANCH  14  18
ENDBRANCH  12  14
ENDBRANCH   1  12
BRANCH   6  23
ATOM     23  C   UNL     1       0.349  10.953  18.960  0.00  0.00    +0.000 C 
BRANCH  23  24
ATOM     24  C   UNL     1      -1.064  10.850  18.427  0.00  0.00    +0.000 A 
ATOM     25  C   UNL     1      -1.396   9.900  17.446  0.00  0.00    +0.000 A 
ATOM     26  C   UNL     1      -2.718   9.738  17.020  0.00  0.00    +0.000 A 
ATOM     27  C   UNL     1      -3.725  10.529  17.565  0.00  0.00    +0.000 A 
ATOM     28  C   UNL     1      -3.397  11.490  18.512  0.00  0.00    +0.000 A 
ATOM     29  F   UNL     1      -4.365  12.249  19.044  0.00  0.00    +0.000 F 
ATOM     30  C   UNL     1      -2.083  11.667  18.939  0.00  0.00    +0.000 A 
ENDBRANCH  23  24
ENDBRANCH   6  23
TORSDOF 6
ENDMDL
MODEL 3
REMARK VINA RESULT:      -8.1      3.034      8.707
REMARK  Name = 
REMARK  8 active torsions:
REMARK  status: ('A' for Active; 'I' for Inactive)
REMARK    1  A    between atoms: C_1  and  C_2
REMARK    2  A    between atoms: C_2  and  C_3
REMARK    3  A    between atoms: C_6  and  O_7
REMARK    4  A    between atoms: O_7  and  C_8
REMARK    5  A    between atoms: C_8  and  C_10
REMARK    6  A    between atoms: N_15  and  C_16
REMARK    7  A    between atoms: C_16  and  C_17
REMARK    8  A    between atoms: C_27  and  C_28
REMARK                            x       y       z     vdW  Elec       q    Type
REMARK                         _______ _______ _______ _____ _____    ______ ____
ROOT
ATOM      1  C   UNL     1       1.017   9.722  20.023  0.00  0.00    +0.000 A 
ATOM      2  S   UNL     1       0.835   8.585  21.295  0.00  0.00    +0.000 S 
ATOM      3  C   UNL     1       1.610   7.358  20.417  0.00  0.00    +0.000 A 
ATOM      4  N   UNL     1       1.710   6.100  20.913  0.00  0.00    +0.000 NA
ATOM      5  C   UNL     1       2.261   5.252  20.106  0.00  0.00    +0.000 A 
ATOM      6  N   UNL     1       2.754   5.539  18.848  0.00  0.00    +0.000 N 
ATOM      7  C   UNL     1       2.733   6.836  18.339  0.00  0.00    +0.000 A 
ATOM      8  O   UNL     1       3.233   7.139  17.258  0.00  0.00    +0.000 OA
ATOM      9  C   UNL     1       2.074   7.808  19.201  0.00  0.00    +0.000 A 
ATOM     10  C   UNL     1       1.790   9.206  18.981  0.00  0.00    +0.000 A 
ATOM     11  C   UNL     1       2.195   9.997  17.773  0.00  0.00    +0.000 C 
ENDROOT
BRANCH   1  12
ATOM     12  C   UNL     1       0.379  11.036  20.087  0.00  0.00    +0.000 C 
ATOM     13  O   UNL     1       0.968  12.108  19.997  0.00  0.00    +0.000 OA
BRANCH  12  14
ATOM     14  O   UNL     1      -1.003  10.922  20.233  0.00  0.00    +0.000 OA
BRANCH  14  18
ATOM     15  C   UNL     1      -3.134  10.807  16.613  0.00  0.00    +0.000 A 
ATOM     16  C   UNL     1      -2.051   9.953  16.862  0.00  0.00    +0.000 A 
ATOM     17  C   UNL     1      -1.390   9.996  18.090  0.00  0.00    +0.000 A 
ATOM     18  C   UNL     1      -1.810  10.892  19.077  0.00  0.00    +0.000 A 
ATOM     19  C   UNL     1      -2.914  11.707  18.860  0.00  0.00    +0.000 A 
ATOM     20  C   UNL     1      -3.573  11.663  17.630  0.00  0.00    +0.000 A 
BRANCH  15  22
ATOM     21  C   UNL     1      -3.067  10.005  14.234  0.00  0.00    +0.000 C 
ATOM     22  C   UNL     1      -3.831  10.804  15.277  0.00  0.00    +0.000 C 
ENDBRANCH  15  22
ENDBRANCH  14  18
ENDBRANCH  12  14
ENDBRANCH   1  12
BRANCH   6  23
ATOM     23  C   UNL     1       3.392   4.499  18.063  0.00  0.00    +0.000 C 
BRANCH  23  24
ATOM     24  C   UNL     1       4.901   4.618  18.015  0.00  0.00    +0.000 A 
ATOM     25  C   UNL     1       5.607   4.347  16.830  0.00  0.00    +0.000 A 
ATOM     26  C   UNL     1       6.988   4.546  16.756  0.00  0.00    +0.000 A 
ATOM     27  C   UNL     1       7.684   5.015  17.867  0.00  0.00    +0.000 A 
ATOM     28  C   UNL     1       6.995   5.255  19.048  0.00  0.00    +0.000 A 
ATOM     29  F   UNL     1       7.661   5.712  20.117  0.00  0.00    +0.000 F 
ATOM     30  C   UNL     1       5.620   5.052  19.138  0.00  0.00    +0.000 A 
ENDBRANCH  23  24
ENDBRANCH   6  23
TORSDOF 6
ENDMDL
MODEL 4
REMARK VINA RESULT:      -8.0      4.346      9.354
REMARK  Name = 
REMARK  8 active torsions:
REMARK  status: ('A' for Active; 'I' for Inactive)
REMARK    1  A    between atoms: C_1  and  C_2
REMARK    2  A    between atoms: C_2  and  C_3
REMARK    3  A    between atoms: C_6  and  O_7
REMARK    4  A    between atoms: O_7  and  C_8
REMARK    5  A    between atoms: C_8  and  C_10
REMARK    6  A    between atoms: N_15  and  C_16
REMARK    7  A    between atoms: C_16  and  C_17
REMARK    8  A    between atoms: C_27  and  C_28
REMARK                            x       y       z     vdW  Elec       q    Type
REMARK                         _______ _______ _______ _____ _____    ______ ____
ROOT
ATOM      1  C   UNL     1      -0.402  11.324  20.134  0.00  0.00    +0.000 A 
ATOM      2  S   UNL     1       0.019  11.244  18.473  0.00  0.00    +0.000 S 
ATOM      3  C   UNL     1       0.901   9.810  18.682  0.00  0.00    +0.000 A 
ATOM      4  N   UNL     1       1.588   9.256  17.653  0.00  0.00    +0.000 NA
ATOM      5  C   UNL     1       2.272   8.206  17.974  0.00  0.00    +0.000 A 
ATOM      6  N   UNL     1       2.322   7.628  19.228  0.00  0.00    +0.000 N 
ATOM      7  C   UNL     1       1.570   8.130  20.289  0.00  0.00    +0.000 A 
ATOM      8  O   UNL     1       1.531   7.594  21.394  0.00  0.00    +0.000 OA
ATOM      9  C   UNL     1       0.827   9.343  19.976  0.00  0.00    +0.000 A 
ATOM     10  C   UNL     1       0.016  10.183  20.824  0.00  0.00    +0.000 A 
ATOM     11  C   UNL     1      -0.288   9.925  22.270  0.00  0.00    +0.000 C 
ENDROOT
BRANCH   1  12
ATOM     12  C   UNL     1      -1.083  12.493  20.686  0.00  0.00    +0.000 C 
ATOM     13  O   UNL     1      -2.296  12.587  20.852  0.00  0.00    +0.000 OA
BRANCH  12  14
ATOM     14  O   UNL     1      -0.176  13.492  21.035  0.00  0.00    +0.000 OA
BRANCH  14  18
ATOM     15  C   UNL     1       0.939  16.596  18.431  0.00  0.00    +0.000 A 
ATOM     16  C   UNL     1       1.879  15.706  18.967  0.00  0.00    +0.000 A 
ATOM     17  C   UNL     1       1.467  14.665  19.800  0.00  0.00    +0.000 A 
ATOM     18  C   UNL     1       0.111  14.508  20.101  0.00  0.00    +0.000 A 
ATOM     19  C   UNL     1      -0.835  15.353  19.534  0.00  0.00    +0.000 A 
ATOM     20  C   UNL     1      -0.420  16.395  18.702  0.00  0.00    +0.000 A 
BRANCH  15  22
ATOM     21  C   UNL     1       0.201  18.629  17.156  0.00  0.00    +0.000 C 
ATOM     22  C   UNL     1       1.372  17.752  17.566  0.00  0.00    +0.000 C 
ENDBRANCH  15  22
ENDBRANCH  14  18
ENDBRANCH  12  14
ENDBRANCH   1  12
BRANCH   6  23
ATOM     23  C   UNL     1       3.096   6.419  19.441  0.00  0.00    +0.000 C 
BRANCH  23  24
ATOM     24  C   UNL     1       2.266   5.154  19.392  0.00  0.00    +0.000 A 
ATOM     25  C   UNL     1       1.907   4.575  18.162  0.00  0.00    +0.000 A 
ATOM     26  C   UNL     1       1.223   3.357  18.114  0.00  0.00    +0.000 A 
ATOM     27  C   UNL     1       0.883   2.703  19.295  0.00  0.00    +0.000 A 
ATOM     28  C   UNL     1       1.208   3.287  20.512  0.00  0.00    +0.000 A 
ATOM     29  F   UNL     1       0.888   2.657  21.651  0.00  0.00    +0.000 F 
ATOM     30  C   UNL     1       1.883   4.504  20.574  0.00  0.00    +0.000 A 
ENDBRANCH  23  24
ENDBRANCH   6  23
TORSDOF 6
ENDMDL
MODEL 5
REMARK VINA RESULT:      -7.9      3.275      9.685
REMARK  Name = 
REMARK  8 active torsions:
REMARK  status: ('A' for Active; 'I' for Inactive)
REMARK    1  A    between atoms: C_1  and  C_2
REMARK    2  A    between atoms: C_2  and  C_3
REMARK    3  A    between atoms: C_6  and  O_7
REMARK    4  A    between atoms: O_7  and  C_8
REMARK    5  A    between atoms: C_8  and  C_10
REMARK    6  A    between atoms: N_15  and  C_16
REMARK    7  A    between atoms: C_16  and  C_17
REMARK    8  A    between atoms: C_27  and  C_28
REMARK                            x       y       z     vdW  Elec       q    Type
REMARK                         _______ _______ _______ _____ _____    ______ ____
ROOT
ATOM      1  C   UNL     1       0.744  10.482  19.876  0.00  0.00    +0.000 A 
ATOM      2  S   UNL     1       1.511  10.565  18.344  0.00  0.00    +0.000 S 
ATOM      3  C   UNL     1       2.073   8.969  18.447  0.00  0.00    +0.000 A 
ATOM      4  N   UNL     1       2.874   8.445  17.486  0.00  0.00    +0.000 NA
ATOM      5  C   UNL     1       3.284   7.243  17.732  0.00  0.00    +0.000 A 
ATOM      6  N   UNL     1       2.952   6.488  18.840  0.00  0.00    +0.000 N 
ATOM      7  C   UNL     1       2.074   6.969  19.809  0.00  0.00    +0.000 A 
ATOM      8  O   UNL     1       1.698   6.294  20.765  0.00  0.00    +0.000 OA
ATOM      9  C   UNL     1       1.632   8.339  19.590  0.00  0.00    +0.000 A 
ATOM     10  C   UNL     1       0.801   9.191  20.407  0.00  0.00    +0.000 A 
ATOM     11  C   UNL     1       0.139   8.789  21.692  0.00  0.00    +0.000 C 
ENDROOT
BRANCH   1  12
ATOM     12  C   UNL     1       0.159  11.670  20.494  0.00  0.00    +0.000 C 
ATOM     13  O   UNL     1       0.259  11.967  21.681  0.00  0.00    +0.000 OA
BRANCH  12  14
ATOM     14  O   UNL     1      -0.511  12.452  19.555  0.00  0.00    +0.000 OA
BRANCH  14  18
ATOM     15  C   UNL     1      -4.464  11.654  18.370  0.00  0.00    +0.000 A 
ATOM     16  C   UNL     1      -3.364  11.232  17.611  0.00  0.00    +0.000 A 
ATOM     17  C   UNL     1      -2.065  11.484  18.055  0.00  0.00    +0.000 A 
ATOM     18  C   UNL     1      -1.859  12.159  19.262  0.00  0.00    +0.000 A 
ATOM     19  C   UNL     1      -2.941  12.537  20.047  0.00  0.00    +0.000 A 
ATOM     20  C   UNL     1      -4.240  12.284  19.600  0.00  0.00    +0.000 A 
BRANCH  15  22
ATOM     21  C   UNL     1      -6.789  12.589  18.232  0.00  0.00    +0.000 C 
ATOM     22  C   UNL     1      -5.872  11.429  17.884  0.00  0.00    +0.000 C 
ENDBRANCH  15  22
ENDBRANCH  14  18
ENDBRANCH  12  14
ENDBRANCH   1  12
BRANCH   6  23
ATOM     23  C   UNL     1       3.447   5.130  18.968  0.00  0.00    +0.000 C 
BRANCH  23  24
ATOM     24  C   UNL     1       4.841   4.939  18.410  0.00  0.00    +0.000 A 
ATOM     25  C   UNL     1       5.037   4.375  17.138  0.00  0.00    +0.000 A 
ATOM     26  C   UNL     1       6.316   4.284  16.581  0.00  0.00    +0.000 A 
ATOM     27  C   UNL     1       7.418   4.751  17.292  0.00  0.00    +0.000 A 
ATOM     28  C   UNL     1       7.233   5.280  18.562  0.00  0.00    +0.000 A 
ATOM     29  F   UNL     1       8.291   5.736  19.246  0.00  0.00    +0.000 F 
ATOM     30  C   UNL     1       5.965   5.369  19.131  0.00  0.00    +0.000 A 
ENDBRANCH  23  24
ENDBRANCH   6  23
TORSDOF 6
ENDMDL
MODEL 6
REMARK VINA RESULT:      -7.9      4.326      8.826
REMARK  Name = 
REMARK  8 active torsions:
REMARK  status: ('A' for Active; 'I' for Inactive)
REMARK    1  A    between atoms: C_1  and  C_2
REMARK    2  A    between atoms: C_2  and  C_3
REMARK    3  A    between atoms: C_6  and  O_7
REMARK    4  A    between atoms: O_7  and  C_8
REMARK    5  A    between atoms: C_8  and  C_10
REMARK    6  A    between atoms: N_15  and  C_16
REMARK    7  A    between atoms: C_16  and  C_17
REMARK    8  A    between atoms: C_27  and  C_28
REMARK                            x       y       z     vdW  Elec       q    Type
REMARK                         _______ _______ _______ _____ _____    ______ ____
ROOT
ATOM      1  C   UNL     1      -0.413  11.404  20.187  0.00  0.00    +0.000 A 
ATOM      2  S   UNL     1      -0.064  11.301  18.510  0.00  0.00    +0.000 S 
ATOM      3  C   UNL     1       0.828   9.872  18.700  0.00  0.00    +0.000 A 
ATOM      4  N   UNL     1       1.471   9.304  17.650  0.00  0.00    +0.000 NA
ATOM      5  C   UNL     1       2.170   8.259  17.956  0.00  0.00    +0.000 A 
ATOM      6  N   UNL     1       2.275   7.699  19.214  0.00  0.00    +0.000 N 
ATOM      7  C   UNL     1       1.569   8.215  20.300  0.00  0.00    +0.000 A 
ATOM      8  O   UNL     1       1.578   7.694  21.413  0.00  0.00    +0.000 OA
ATOM      9  C   UNL     1       0.811   9.422  20.002  0.00  0.00    +0.000 A 
ATOM     10  C   UNL     1       0.036  10.274  20.873  0.00  0.00    +0.000 A 
ATOM     11  C   UNL     1      -0.204  10.036  22.335  0.00  0.00    +0.000 C 
ENDROOT
BRANCH   1  12
ATOM     12  C   UNL     1      -1.071  12.580  20.751  0.00  0.00    +0.000 C 
ATOM     13  O   UNL     1      -2.275  12.811  20.687  0.00  0.00    +0.000 OA
BRANCH  12  14
ATOM     14  O   UNL     1      -0.160  13.406  21.408  0.00  0.00    +0.000 OA
BRANCH  14  18
ATOM     15  C   UNL     1       2.639  15.285  18.898  0.00  0.00    +0.000 A 
ATOM     16  C   UNL     1       1.268  15.563  18.816  0.00  0.00    +0.000 A 
ATOM     17  C   UNL     1       0.372  14.946  19.691  0.00  0.00    +0.000 A 
ATOM     18  C   UNL     1       0.843  14.048  20.653  0.00  0.00    +0.000 A 
ATOM     19  C   UNL     1       2.205  13.804  20.777  0.00  0.00    +0.000 A 
ATOM     20  C   UNL     1       3.100  14.422  19.900  0.00  0.00    +0.000 A 
BRANCH  15  22
ATOM     21  C   UNL     1       4.766  16.594  18.648  0.00  0.00    +0.000 C 
ATOM     22  C   UNL     1       3.614  15.908  17.933  0.00  0.00    +0.000 C 
ENDBRANCH  15  22
ENDBRANCH  14  18
ENDBRANCH  12  14
ENDBRANCH   1  12
BRANCH   6  23
ATOM     23  C   UNL     1       3.059   6.494  19.410  0.00  0.00    +0.000 C 
BRANCH  23  24
ATOM     24  C   UNL     1       2.242   5.221  19.329  0.00  0.00    +0.000 A 
ATOM     25  C   UNL     1       1.943   4.635  18.087  0.00  0.00    +0.000 A 
ATOM     26  C   UNL     1       1.271   3.411  18.014  0.00  0.00    +0.000 A 
ATOM     27  C   UNL     1       0.884   2.759  19.182  0.00  0.00    +0.000 A 
ATOM     28  C   UNL     1       1.150   3.350  20.409  0.00  0.00    +0.000 A 
ATOM     29  F   UNL     1       0.785   2.723  21.536  0.00  0.00    +0.000 F 
ATOM     30  C   UNL     1       1.812   4.573  20.496  0.00  0.00    +0.000 A 
ENDBRANCH  23  24
ENDBRANCH   6  23
TORSDOF 6
ENDMDL
MODEL 7
REMARK VINA RESULT:      -7.9      3.748      5.721
REMARK  Name = 
REMARK  8 active torsions:
REMARK  status: ('A' for Active; 'I' for Inactive)
REMARK    1  A    between atoms: C_1  and  C_2
REMARK    2  A    between atoms: C_2  and  C_3
REMARK    3  A    between atoms: C_6  and  O_7
REMARK    4  A    between atoms: O_7  and  C_8
REMARK    5  A    between atoms: C_8  and  C_10
REMARK    6  A    between atoms: N_15  and  C_16
REMARK    7  A    between atoms: C_16  and  C_17
REMARK    8  A    between atoms: C_27  and  C_28
REMARK                            x       y       z     vdW  Elec       q    Type
REMARK                         _______ _______ _______ _____ _____    ______ ____
ROOT
ATOM      1  C   UNL     1       0.761   9.358  20.126  0.00  0.00    +0.000 A 
ATOM      2  S   UNL     1       0.853   9.397  21.839  0.00  0.00    +0.000 S 
ATOM      3  C   UNL     1      -0.309  10.626  21.955  0.00  0.00    +0.000 A 
ATOM      4  N   UNL     1      -0.629  11.175  23.153  0.00  0.00    +0.000 NA
ATOM      5  C   UNL     1      -1.476  12.150  23.082  0.00  0.00    +0.000 A 
ATOM      6  N   UNL     1      -2.066  12.624  21.927  0.00  0.00    +0.000 N 
ATOM      7  C   UNL     1      -1.815  12.034  20.689  0.00  0.00    +0.000 A 
ATOM      8  O   UNL     1      -2.383  12.380  19.655  0.00  0.00    +0.000 OA
ATOM      9  C   UNL     1      -0.826  10.965  20.724  0.00  0.00    +0.000 A 
ATOM     10  C   UNL     1      -0.256  10.188  19.650  0.00  0.00    +0.000 A 
ATOM     11  C   UNL     1      -0.636  10.294  18.202  0.00  0.00    +0.000 C 
ENDROOT
BRANCH   1  12
ATOM     12  C   UNL     1       1.693   8.556  19.337  0.00  0.00    +0.000 C 
ATOM     13  O   UNL     1       1.899   8.697  18.136  0.00  0.00    +0.000 OA
BRANCH  12  14
ATOM     14  O   UNL     1       2.350   7.616  20.129  0.00  0.00    +0.000 OA
BRANCH  14  18
ATOM     15  C   UNL     1       2.225   3.494  19.319  0.00  0.00    +0.000 A 
ATOM     16  C   UNL     1       1.425   4.078  20.310  0.00  0.00    +0.000 A 
ATOM     17  C   UNL     1       1.467   5.456  20.526  0.00  0.00    +0.000 A 
ATOM     18  C   UNL     1       2.310   6.258  19.751  0.00  0.00    +0.000 A 
ATOM     19  C   UNL     1       3.069   5.697  18.732  0.00  0.00    +0.000 A 
ATOM     20  C   UNL     1       3.026   4.318  18.518  0.00  0.00    +0.000 A 
BRANCH  15  22
ATOM     21  C   UNL     1       3.462   1.533  18.355  0.00  0.00    +0.000 C 
ATOM     22  C   UNL     1       2.224   2.003  19.102  0.00  0.00    +0.000 C 
ENDBRANCH  15  22
ENDBRANCH  14  18
ENDBRANCH  12  14
ENDBRANCH   1  12
BRANCH   6  23
ATOM     23  C   UNL     1      -3.040  13.698  21.995  0.00  0.00    +0.000 C 
BRANCH  23  24
ATOM     24  C   UNL     1      -4.433  13.228  22.355  0.00  0.00    +0.000 A 
ATOM     25  C   UNL     1      -4.876  13.243  23.690  0.00  0.00    +0.000 A 
ATOM     26  C   UNL     1      -6.192  12.900  24.013  0.00  0.00    +0.000 A 
ATOM     27  C   UNL     1      -7.082  12.532  23.009  0.00  0.00    +0.000 A 
ATOM     28  C   UNL     1      -6.640  12.486  21.693  0.00  0.00    +0.000 A 
ATOM     29  F   UNL     1      -7.496  12.138  20.723  0.00  0.00    +0.000 F 
ATOM     30  C   UNL     1      -5.329  12.817  21.358  0.00  0.00    +0.000 A 
ENDBRANCH  23  24
ENDBRANCH   6  23
TORSDOF 6
ENDMDL
MODEL 8
REMARK VINA RESULT:      -7.8      4.429     10.805
REMARK  Name = 
REMARK  8 active torsions:
REMARK  status: ('A' for Active; 'I' for Inactive)
REMARK    1  A    between atoms: C_1  and  C_2
REMARK    2  A    between atoms: C_2  and  C_3
REMARK    3  A    between atoms: C_6  and  O_7
REMARK    4  A    between atoms: O_7  and  C_8
REMARK    5  A    between atoms: C_8  and  C_10
REMARK    6  A    between atoms: N_15  and  C_16
REMARK    7  A    between atoms: C_16  and  C_17
REMARK    8  A    between atoms: C_27  and  C_28
REMARK                            x       y       z     vdW  Elec       q    Type
REMARK                         _______ _______ _______ _____ _____    ______ ____
ROOT
ATOM      1  C   UNL     1      -0.690  11.508  20.345  0.00  0.00    +0.000 A 
ATOM      2  S   UNL     1      -0.337  11.383  18.671  0.00  0.00    +0.000 S 
ATOM      3  C   UNL     1       0.603   9.989  18.890  0.00  0.00    +0.000 A 
ATOM      4  N   UNL     1       1.265   9.421  17.852  0.00  0.00    +0.000 NA
ATOM      5  C   UNL     1       1.998   8.407  18.180  0.00  0.00    +0.000 A 
ATOM      6  N   UNL     1       2.121   7.876  19.449  0.00  0.00    +0.000 N 
ATOM      7  C   UNL     1       1.397   8.390  20.523  0.00  0.00    +0.000 A 
ATOM      8  O   UNL     1       1.424   7.893  21.647  0.00  0.00    +0.000 OA
ATOM      9  C   UNL     1       0.600   9.565  20.201  0.00  0.00    +0.000 A 
ATOM     10  C   UNL     1      -0.204  10.408  21.054  0.00  0.00    +0.000 A 
ATOM     11  C   UNL     1      -0.437  10.192  22.520  0.00  0.00    +0.000 C 
ENDROOT
BRANCH   1  12
ATOM     12  C   UNL     1      -1.388  12.673  20.885  0.00  0.00    +0.000 C 
ATOM     13  O   UNL     1      -0.896  13.494  21.653  0.00  0.00    +0.000 OA
BRANCH  12  14
ATOM     14  O   UNL     1      -2.690  12.758  20.393  0.00  0.00    +0.000 OA
BRANCH  14  18
ATOM     15  C   UNL     1      -5.595  14.445  22.917  0.00  0.00    +0.000 A 
ATOM     16  C   UNL     1      -5.147  15.101  21.763  0.00  0.00    +0.000 A 
ATOM     17  C   UNL     1      -4.207  14.494  20.930  0.00  0.00    +0.000 A 
ATOM     18  C   UNL     1      -3.711  13.225  21.245  0.00  0.00    +0.000 A 
ATOM     19  C   UNL     1      -4.186  12.544  22.359  0.00  0.00    +0.000 A 
ATOM     20  C   UNL     1      -5.126  13.155  23.192  0.00  0.00    +0.000 A 
BRANCH  15  22
ATOM     21  C   UNL     1      -7.731  14.185  24.211  0.00  0.00    +0.000 C 
ATOM     22  C   UNL     1      -6.576  15.105  23.851  0.00  0.00    +0.000 C 
ENDBRANCH  15  22
ENDBRANCH  14  18
ENDBRANCH  12  14
ENDBRANCH   1  12
BRANCH   6  23
ATOM     23  C   UNL     1       2.945   6.702  19.669  0.00  0.00    +0.000 C 
BRANCH  23  24
ATOM     24  C   UNL     1       2.185   5.399  19.549  0.00  0.00    +0.000 A 
ATOM     25  C   UNL     1       1.881   4.856  18.288  0.00  0.00    +0.000 A 
ATOM     26  C   UNL     1       1.263   3.608  18.174  0.00  0.00    +0.000 A 
ATOM     27  C   UNL     1       0.935   2.886  19.319  0.00  0.00    +0.000 A 
ATOM     28  C   UNL     1       1.207   3.432  20.566  0.00  0.00    +0.000 A 
ATOM     29  F   UNL     1       0.899   2.738  21.670  0.00  0.00    +0.000 F 
ATOM     30  C   UNL     1       1.814   4.679  20.694  0.00  0.00    +0.000 A 
ENDBRANCH  23  24
ENDBRANCH   6  23
TORSDOF 6
ENDMDL
MODEL 9
REMARK VINA RESULT:      -7.8      2.974      9.216
REMARK  Name = 
REMARK  8 active torsions:
REMARK  status: ('A' for Active; 'I' for Inactive)
REMARK    1  A    between atoms: C_1  and  C_2
REMARK    2  A    between atoms: C_2  and  C_3
REMARK    3  A    between atoms: C_6  and  O_7
REMARK    4  A    between atoms: O_7  and  C_8
REMARK    5  A    between atoms: C_8  and  C_10
REMARK    6  A    between atoms: N_15  and  C_16
REMARK    7  A    between atoms: C_16  and  C_17
REMARK    8  A    between atoms: C_27  and  C_28
REMARK                            x       y       z     vdW  Elec       q    Type
REMARK                         _______ _______ _______ _____ _____    ______ ____
ROOT
ATOM      1  C   UNL     1       1.090   9.307  20.074  0.00  0.00    +0.000 A 
ATOM      2  S   UNL     1       1.005   8.174  21.359  0.00  0.00    +0.000 S 
ATOM      3  C   UNL     1       1.737   6.953  20.439  0.00  0.00    +0.000 A 
ATOM      4  N   UNL     1       1.884   5.698  20.932  0.00  0.00    +0.000 NA
ATOM      5  C   UNL     1       2.393   4.854  20.094  0.00  0.00    +0.000 A 
ATOM      6  N   UNL     1       2.800   5.140  18.806  0.00  0.00    +0.000 N 
ATOM      7  C   UNL     1       2.730   6.435  18.294  0.00  0.00    +0.000 A 
ATOM      8  O   UNL     1       3.156   6.739  17.182  0.00  0.00    +0.000 OA
ATOM      9  C   UNL     1       2.115   7.402  19.193  0.00  0.00    +0.000 A 
ATOM     10  C   UNL     1       1.801   8.796  18.987  0.00  0.00    +0.000 A 
ATOM     11  C   UNL     1       2.117   9.586  17.752  0.00  0.00    +0.000 C 
ENDROOT
BRANCH   1  12
ATOM     12  C   UNL     1       0.441  10.613  20.174  0.00  0.00    +0.000 C 
ATOM     13  O   UNL     1       0.350  11.276  21.203  0.00  0.00    +0.000 OA
BRANCH  12  14
ATOM     14  O   UNL     1      -0.043  11.035  18.937  0.00  0.00    +0.000 OA
BRANCH  14  18
ATOM     15  C   UNL     1      -4.141  11.109  18.007  0.00  0.00    +0.000 A 
ATOM     16  C   UNL     1      -3.281  10.134  17.484  0.00  0.00    +0.000 A 
ATOM     17  C   UNL     1      -1.933  10.120  17.844  0.00  0.00    +0.000 A 
ATOM     18  C   UNL     1      -1.437  11.081  18.730  0.00  0.00    +0.000 A 
ATOM     19  C   UNL     1      -2.291  12.021  19.294  0.00  0.00    +0.000 A 
ATOM     20  C   UNL     1      -3.640  12.033  18.931  0.00  0.00    +0.000 A 
BRANCH  15  22
ATOM     21  C   UNL     1      -6.517  10.691  18.700  0.00  0.00    +0.000 C 
ATOM     22  C   UNL     1      -5.589  11.165  17.594  0.00  0.00    +0.000 C 
ENDBRANCH  15  22
ENDBRANCH  14  18
ENDBRANCH  12  14
ENDBRANCH   1  12
BRANCH   6  23
ATOM     23  C   UNL     1       3.400   4.105  17.986  0.00  0.00    +0.000 C 
BRANCH  23  24
ATOM     24  C   UNL     1       4.879   4.310  17.738  0.00  0.00    +0.000 A 
ATOM     25  C   UNL     1       5.428   4.118  16.458  0.00  0.00    +0.000 A 
ATOM     26  C   UNL     1       6.774   4.398  16.204  0.00  0.00    +0.000 A 
ATOM     27  C   UNL     1       7.591   4.869  17.228  0.00  0.00    +0.000 A 
ATOM     28  C   UNL     1       7.060   5.031  18.501  0.00  0.00    +0.000 A 
ATOM     29  F   UNL     1       7.842   5.491  19.487  0.00  0.00    +0.000 F 
ATOM     30  C   UNL     1       5.723   4.748  18.769  0.00  0.00    +0.000 A 
ENDBRANCH  23  24
ENDBRANCH   6  23
TORSDOF 6
ENDMDL
