MODEL 1
REMARK VINA RESULT:      -7.6      0.000      0.000
REMARK  Name = 
REMARK  4 active torsions:
REMARK  status: ('A' for Active; 'I' for Inactive)
REMARK    1  A    between atoms: C_1  and  C_2
REMARK    2  A    between atoms: C_2  and  C_3
REMARK    3  A    between atoms: C_2  and  C_4
REMARK    4  A    between atoms: C_4  and  N_5
REMARK                            x       y       z     vdW  Elec       q    Type
REMARK                         _______ _______ _______ _____ _____    ______ ____
ROOT
ATOM      1  N   UNL     1      -1.577  15.031  25.227  0.00  0.00    +0.000 NA
ATOM      2  C   UNL     1      -3.037  15.122  25.384  0.00  0.00    +0.000 C 
ATOM      3  C   UNL     1      -3.727  15.823  24.275  0.00  0.00    +0.000 C 
ATOM      4  C   UNL     1      -4.566  15.068  23.531  0.00  0.00    +0.000 C 
ATOM      5  C   UNL     1      -5.077  15.407  22.178  0.00  0.00    +0.000 C 
ATOM      6  C   UNL     1      -5.467  14.075  21.546  0.00  0.00    +0.000 C 
ATOM      7  O   UNL     1      -6.236  14.296  20.362  0.00  0.00    +0.000 OA
ATOM      8  C   UNL     1      -6.530  13.071  19.812  0.00  0.00    +0.000 A 
ATOM      9  C   UNL     1      -7.370  12.151  20.424  0.00  0.00    +0.000 A 
ATOM     10  C   UNL     1      -7.469  10.843  19.913  0.00  0.00    +0.000 A 
ATOM     11  C   UNL     1      -6.675  10.441  18.825  0.00  0.00    +0.000 A 
ATOM     12  C   UNL     1      -5.795  11.372  18.254  0.00  0.00    +0.000 A 
ATOM     13  C   UNL     1      -5.845  12.728  18.668  0.00  0.00    +0.000 A 
ATOM     14  C   UNL     1      -4.552  11.028  17.582  0.00  0.00    +0.000 A 
ATOM     15  C   UNL     1      -4.406  10.702  16.270  0.00  0.00    +0.000 A 
ATOM     16  C   UNL     1      -3.126  10.910  15.800  0.00  0.00    +0.000 A 
ATOM     17  N   UNL     1      -2.113  11.481  16.546  0.00  0.00    +0.000 NA
ATOM     18  C   UNL     1      -2.372  11.771  17.850  0.00  0.00    +0.000 A 
ATOM     19  N   UNL     1      -3.529  11.425  18.388  0.00  0.00    +0.000 NA
ATOM     20  N   UNL     1      -1.500  12.614  18.652  0.00  0.00    +0.000 N 
ATOM     21  C   UNL     1      -1.386  12.576  20.108  0.00  0.00    +0.000 A 
ATOM     22  C   UNL     1      -1.038  11.357  20.694  0.00  0.00    +0.000 A 
ATOM     23  C   UNL     1      -0.753  11.313  22.068  0.00  0.00    +0.000 A 
ATOM     24  C   UNL     1      -0.828  12.433  22.949  0.00  0.00    +0.000 A 
ATOM     25  C   UNL     1      -1.224  13.708  22.527  0.00  0.00    +0.000 A 
ATOM     26  C   UNL     1      -1.436  13.760  21.040  0.00  0.00    +0.000 A 
ATOM     27  C   UNL     1      -1.106  15.009  23.630  0.00  0.00    +0.000 C 
ATOM     28  H   UNL     1      -0.595  12.435  18.214  0.00  0.00    +0.000 HD
ENDROOT
BRANCH   1  29
ATOM     29  C   UNL     1      -1.024  16.175  26.166  0.00  0.00    +0.000 C 
BRANCH  29  31
ATOM     30  C   UNL     1       0.934  17.746  25.015  0.00  0.00    +0.000 C 
ATOM     31  C   UNL     1      -0.504  17.730  25.650  0.00  0.00    +0.000 C 
ATOM     32  C   UNL     1      -1.316  18.601  24.652  0.00  0.00    +0.000 C 
ENDBRANCH  29  31
ENDBRANCH   1  29
TORSDOF 2
ENDMDL
MODEL 2
REMARK VINA RESULT:      -7.3      3.259      4.829
REMARK  Name = 
REMARK  4 active torsions:
REMARK  status: ('A' for Active; 'I' for Inactive)
REMARK    1  A    between atoms: C_1  and  C_2
REMARK    2  A    between atoms: C_2  and  C_3
REMARK    3  A    between atoms: C_2  and  C_4
REMARK    4  A    between atoms: C_4  and  N_5
REMARK                            x       y       z     vdW  Elec       q    Type
REMARK                         _______ _______ _______ _____ _____    ______ ____
ROOT
ATOM      1  N   UNL     1       3.183  14.056  20.707  0.00  0.00    +0.000 NA
ATOM      2  C   UNL     1       2.594  14.883  21.772  0.00  0.00    +0.000 C 
ATOM      3  C   UNL     1       1.577  15.852  21.299  0.00  0.00    +0.000 C 
ATOM      4  C   UNL     1       0.316  15.645  21.739  0.00  0.00    +0.000 C 
ATOM      5  C   UNL     1      -0.921  16.214  21.144  0.00  0.00    +0.000 C 
ATOM      6  C   UNL     1      -2.046  15.280  21.575  0.00  0.00    +0.000 C 
ATOM      7  O   UNL     1      -3.316  15.878  21.306  0.00  0.00    +0.000 OA
ATOM      8  C   UNL     1      -4.293  14.985  21.677  0.00  0.00    +0.000 A 
ATOM      9  C   UNL     1      -4.521  14.621  22.997  0.00  0.00    +0.000 A 
ATOM     10  C   UNL     1      -5.395  13.556  23.290  0.00  0.00    +0.000 A 
ATOM     11  C   UNL     1      -5.988  12.816  22.253  0.00  0.00    +0.000 A 
ATOM     12  C   UNL     1      -5.703  13.169  20.926  0.00  0.00    +0.000 A 
ATOM     13  C   UNL     1      -4.968  14.352  20.658  0.00  0.00    +0.000 A 
ATOM     14  C   UNL     1      -5.717  12.242  19.805  0.00  0.00    +0.000 A 
ATOM     15  C   UNL     1      -6.796  11.903  19.050  0.00  0.00    +0.000 A 
ATOM     16  C   UNL     1      -6.455  11.428  17.800  0.00  0.00    +0.000 A 
ATOM     17  N   UNL     1      -5.162  11.388  17.317  0.00  0.00    +0.000 NA
ATOM     18  C   UNL     1      -4.159  11.755  18.159  0.00  0.00    +0.000 A 
ATOM     19  N   UNL     1      -4.425  12.047  19.420  0.00  0.00    +0.000 NA
ATOM     20  N   UNL     1      -2.806  12.021  17.695  0.00  0.00    +0.000 N 
ATOM     21  C   UNL     1      -1.594  11.912  18.504  0.00  0.00    +0.000 A 
ATOM     22  C   UNL     1      -1.333  10.681  19.110  0.00  0.00    +0.000 A 
ATOM     23  C   UNL     1      -0.102  10.481  19.754  0.00  0.00    +0.000 A 
ATOM     24  C   UNL     1       0.920  11.469  19.879  0.00  0.00    +0.000 A 
ATOM     25  C   UNL     1       0.783  12.771  19.382  0.00  0.00    +0.000 A 
ATOM     26  C   UNL     1      -0.499  12.943  18.617  0.00  0.00    +0.000 A 
ATOM     27  C   UNL     1       2.138  13.814  19.434  0.00  0.00    +0.000 C 
ATOM     28  H   UNL     1      -2.752  11.407  16.881  0.00  0.00    +0.000 HD
ENDROOT
BRANCH   1  29
ATOM     29  C   UNL     1       4.578  14.742  20.423  0.00  0.00    +0.000 C 
BRANCH  29  31
ATOM     30  C   UNL     1       5.464  14.701  17.808  0.00  0.00    +0.000 C 
ATOM     31  C   UNL     1       4.996  15.611  19.001  0.00  0.00    +0.000 C 
ATOM     32  C   UNL     1       4.020  16.598  18.300  0.00  0.00    +0.000 C 
ENDBRANCH  29  31
ENDBRANCH   1  29
TORSDOF 2
ENDMDL
MODEL 3
REMARK VINA RESULT:      -7.3      3.623      5.280
REMARK  Name = 
REMARK  4 active torsions:
REMARK  status: ('A' for Active; 'I' for Inactive)
REMARK    1  A    between atoms: C_1  and  C_2
REMARK    2  A    between atoms: C_2  and  C_3
REMARK    3  A    between atoms: C_2  and  C_4
REMARK    4  A    between atoms: C_4  and  N_5
REMARK                            x       y       z     vdW  Elec       q    Type
REMARK                         _______ _______ _______ _____ _____    ______ ____
ROOT
ATOM      1  N   UNL     1       3.153  14.776  19.619  0.00  0.00    +0.000 NA
ATOM      2  C   UNL     1       2.617  15.667  20.661  0.00  0.00    +0.000 C 
ATOM      3  C   UNL     1       1.466  16.492  20.223  0.00  0.00    +0.000 C 
ATOM      4  C   UNL     1       0.289  16.235  20.836  0.00  0.00    +0.000 C 
ATOM      5  C   UNL     1      -1.056  16.633  20.346  0.00  0.00    +0.000 C 
ATOM      6  C   UNL     1      -2.032  15.666  21.006  0.00  0.00    +0.000 C 
ATOM      7  O   UNL     1      -3.374  16.127  20.839  0.00  0.00    +0.000 OA
ATOM      8  C   UNL     1      -4.214  15.206  21.418  0.00  0.00    +0.000 A 
ATOM      9  C   UNL     1      -4.254  14.973  22.786  0.00  0.00    +0.000 A 
ATOM     10  C   UNL     1      -4.984  13.881  23.292  0.00  0.00    +0.000 A 
ATOM     11  C   UNL     1      -5.622  12.985  22.417  0.00  0.00    +0.000 A 
ATOM     12  C   UNL     1      -5.526  13.209  21.036  0.00  0.00    +0.000 A 
ATOM     13  C   UNL     1      -4.941  14.410  20.560  0.00  0.00    +0.000 A 
ATOM     14  C   UNL     1      -5.584  12.165  20.025  0.00  0.00    +0.000 A 
ATOM     15  C   UNL     1      -6.707  11.658  19.449  0.00  0.00    +0.000 A 
ATOM     16  C   UNL     1      -6.470  11.076  18.221  0.00  0.00    +0.000 A 
ATOM     17  N   UNL     1      -5.243  11.087  17.586  0.00  0.00    +0.000 NA
ATOM     18  C   UNL     1      -4.188  11.625  18.255  0.00  0.00    +0.000 A 
ATOM     19  N   UNL     1      -4.333  12.033  19.503  0.00  0.00    +0.000 NA
ATOM     20  N   UNL     1      -2.929  11.944  17.601  0.00  0.00    +0.000 N 
ATOM     21  C   UNL     1      -1.626  12.024  18.259  0.00  0.00    +0.000 A 
ATOM     22  C   UNL     1      -1.184  10.893  18.949  0.00  0.00    +0.000 A 
ATOM     23  C   UNL     1       0.127  10.865  19.451  0.00  0.00    +0.000 A 
ATOM     24  C   UNL     1       1.060  11.940  19.346  0.00  0.00    +0.000 A 
ATOM     25  C   UNL     1       0.746  13.163  18.742  0.00  0.00    +0.000 A 
ATOM     26  C   UNL     1      -0.626  13.145  18.130  0.00  0.00    +0.000 A 
ATOM     27  C   UNL     1       1.994  14.311  18.518  0.00  0.00    +0.000 C 
ATOM     28  H   UNL     1      -2.912  11.250  16.852  0.00  0.00    +0.000 HD
ENDROOT
BRANCH   1  29
ATOM     29  C   UNL     1       4.436  15.535  19.096  0.00  0.00    +0.000 C 
BRANCH  29  31
ATOM     30  C   UNL     1       6.642  14.559  17.753  0.00  0.00    +0.000 C 
ATOM     31  C   UNL     1       6.047  14.939  19.157  0.00  0.00    +0.000 C 
ATOM     32  C   UNL     1       7.215  15.733  19.807  0.00  0.00    +0.000 C 
ENDBRANCH  29  31
ENDBRANCH   1  29
TORSDOF 2
ENDMDL
MODEL 4
REMARK VINA RESULT:      -7.2      3.245      7.164
REMARK  Name = 
REMARK  4 active torsions:
REMARK  status: ('A' for Active; 'I' for Inactive)
REMARK    1  A    between atoms: C_1  and  C_2
REMARK    2  A    between atoms: C_2  and  C_3
REMARK    3  A    between atoms: C_2  and  C_4
REMARK    4  A    between atoms: C_4  and  N_5
REMARK                            x       y       z     vdW  Elec       q    Type
REMARK                         _______ _______ _______ _____ _____    ______ ____
ROOT
ATOM      1  N   UNL     1       0.636   9.101  18.651  0.00  0.00    +0.000 NA
ATOM      2  C   UNL     1       0.910   9.248  20.089  0.00  0.00    +0.000 C 
ATOM      3  C   UNL     1       0.921  10.651  20.567  0.00  0.00    +0.000 C 
ATOM      4  C   UNL     1      -0.054  10.985  21.442  0.00  0.00    +0.000 C 
ATOM      5  C   UNL     1      -0.492  12.365  21.776  0.00  0.00    +0.000 C 
ATOM      6  C   UNL     1      -1.915  12.223  22.303  0.00  0.00    +0.000 C 
ATOM      7  O   UNL     1      -2.336  13.440  22.923  0.00  0.00    +0.000 OA
ATOM      8  C   UNL     1      -3.633  13.273  23.348  0.00  0.00    +0.000 A 
ATOM      9  C   UNL     1      -3.988  12.399  24.366  0.00  0.00    +0.000 A 
ATOM     10  C   UNL     1      -5.347  12.125  24.614  0.00  0.00    +0.000 A 
ATOM     11  C   UNL     1      -6.346  12.681  23.796  0.00  0.00    +0.000 A 
ATOM     12  C   UNL     1      -5.962  13.521  22.740  0.00  0.00    +0.000 A 
ATOM     13  C   UNL     1      -4.607  13.923  22.624  0.00  0.00    +0.000 A 
ATOM     14  C   UNL     1      -6.715  13.695  21.509  0.00  0.00    +0.000 A 
ATOM     15  C   UNL     1      -7.728  14.577  21.298  0.00  0.00    +0.000 A 
ATOM     16  C   UNL     1      -7.916  14.879  19.965  0.00  0.00    +0.000 A 
ATOM     17  N   UNL     1      -7.103  14.416  18.948  0.00  0.00    +0.000 NA
ATOM     18  C   UNL     1      -6.116  13.539  19.275  0.00  0.00    +0.000 A 
ATOM     19  N   UNL     1      -6.014  13.086  20.512  0.00  0.00    +0.000 NA
ATOM     20  N   UNL     1      -5.037  13.200  18.360  0.00  0.00    +0.000 N 
ATOM     21  C   UNL     1      -4.264  11.960  18.380  0.00  0.00    +0.000 A 
ATOM     22  C   UNL     1      -4.971  10.760  18.271  0.00  0.00    +0.000 A 
ATOM     23  C   UNL     1      -4.261   9.558  18.118  0.00  0.00    +0.000 A 
ATOM     24  C   UNL     1      -2.838   9.452  18.101  0.00  0.00    +0.000 A 
ATOM     25  C   UNL     1      -1.991  10.554  18.264  0.00  0.00    +0.000 A 
ATOM     26  C   UNL     1      -2.762  11.842  18.336  0.00  0.00    +0.000 A 
ATOM     27  C   UNL     1      -0.308  10.333  18.051  0.00  0.00    +0.000 C 
ATOM     28  H   UNL     1      -5.498  13.323  17.456  0.00  0.00    +0.000 HD
ENDROOT
BRANCH   1  29
ATOM     29  C   UNL     1       2.064   8.862  18.018  0.00  0.00    +0.000 C 
BRANCH  29  31
ATOM     30  C   UNL     1       4.314   7.414  17.334  0.00  0.00    +0.000 C 
ATOM     31  C   UNL     1       2.807   7.331  17.771  0.00  0.00    +0.000 C 
ATOM     32  C   UNL     1       2.838   6.225  18.862  0.00  0.00    +0.000 C 
ENDBRANCH  29  31
ENDBRANCH   1  29
TORSDOF 2
ENDMDL
MODEL 5
REMARK VINA RESULT:      -7.1      0.774      1.005
REMARK  Name = 
REMARK  4 active torsions:
REMARK  status: ('A' for Active; 'I' for Inactive)
REMARK    1  A    between atoms: C_1  and  C_2
REMARK    2  A    between atoms: C_2  and  C_3
REMARK    3  A    between atoms: C_2  and  C_4
REMARK    4  A    between atoms: C_4  and  N_5
REMARK                            x       y       z     vdW  Elec       q    Type
REMARK                         _______ _______ _______ _____ _____    ______ ____
ROOT
ATOM      1  N   UNL     1      -2.323  16.085  25.012  0.00  0.00    +0.000 NA
ATOM      2  C   UNL     1      -3.793  16.055  25.056  0.00  0.00    +0.000 C 
ATOM      3  C   UNL     1      -4.450  16.547  23.822  0.00  0.00    +0.000 C 
ATOM      4  C   UNL     1      -5.159  15.631  23.125  0.00  0.00    +0.000 C 
ATOM      5  C   UNL     1      -5.588  15.753  21.708  0.00  0.00    +0.000 C 
ATOM      6  C   UNL     1      -5.809  14.323  21.226  0.00  0.00    +0.000 C 
ATOM      7  O   UNL     1      -6.497  14.324  19.973  0.00  0.00    +0.000 OA
ATOM      8  C   UNL     1      -6.639  13.020  19.566  0.00  0.00    +0.000 A 
ATOM      9  C   UNL     1      -7.443  12.104  20.231  0.00  0.00    +0.000 A 
ATOM     10  C   UNL     1      -7.387  10.740  19.886  0.00  0.00    +0.000 A 
ATOM     11  C   UNL     1      -6.477  10.288  18.915  0.00  0.00    +0.000 A 
ATOM     12  C   UNL     1      -5.638  11.223  18.292  0.00  0.00    +0.000 A 
ATOM     13  C   UNL     1      -5.837  12.608  18.525  0.00  0.00    +0.000 A 
ATOM     14  C   UNL     1      -4.320  10.920  17.756  0.00  0.00    +0.000 A 
ATOM     15  C   UNL     1      -4.042  10.453  16.511  0.00  0.00    +0.000 A 
ATOM     16  C   UNL     1      -2.750  10.724  16.106  0.00  0.00    +0.000 A 
ATOM     17  N   UNL     1      -1.854  11.476  16.841  0.00  0.00    +0.000 NA
ATOM     18  C   UNL     1      -2.241  11.895  18.076  0.00  0.00    +0.000 A 
ATOM     19  N   UNL     1      -3.403  11.508  18.573  0.00  0.00    +0.000 NA
ATOM     20  N   UNL     1      -1.512  12.909  18.821  0.00  0.00    +0.000 N 
ATOM     21  C   UNL     1      -1.512  13.059  20.275  0.00  0.00    +0.000 A 
ATOM     22  C   UNL     1      -1.108  11.958  21.034  0.00  0.00    +0.000 A 
ATOM     23  C   UNL     1      -0.931  12.108  22.419  0.00  0.00    +0.000 A 
ATOM     24  C   UNL     1      -1.173  13.315  23.143  0.00  0.00    +0.000 A 
ATOM     25  C   UNL     1      -1.642  14.485  22.534  0.00  0.00    +0.000 A 
ATOM     26  C   UNL     1      -1.739  14.336  21.042  0.00  0.00    +0.000 A 
ATOM     27  C   UNL     1      -1.726  15.916  23.468  0.00  0.00    +0.000 C 
ATOM     28  H   UNL     1      -0.562  12.766  18.473  0.00  0.00    +0.000 HD
ENDROOT
BRANCH   1  29
ATOM     29  C   UNL     1      -1.948  17.382  25.833  0.00  0.00    +0.000 C 
BRANCH  29  31
ATOM     30  C   UNL     1      -0.085  18.627  27.447  0.00  0.00    +0.000 C 
ATOM     31  C   UNL     1      -0.365  18.024  26.024  0.00  0.00    +0.000 C 
ATOM     32  C   UNL     1       0.920  17.188  25.761  0.00  0.00    +0.000 C 
ENDBRANCH  29  31
ENDBRANCH   1  29
TORSDOF 2
ENDMDL
MODEL 6
REMARK VINA RESULT:      -7.1      4.125      6.026
REMARK  Name = 
REMARK  4 active torsions:
REMARK  status: ('A' for Active; 'I' for Inactive)
REMARK    1  A    between atoms: C_1  and  C_2
REMARK    2  A    between atoms: C_2  and  C_3
REMARK    3  A    between atoms: C_2  and  C_4
REMARK    4  A    between atoms: C_4  and  N_5
REMARK                            x       y       z     vdW  Elec       q    Type
REMARK                         _______ _______ _______ _____ _____    ______ ____
ROOT
ATOM      1  N   UNL     1       3.856  14.627  19.078  0.00  0.00    +0.000 NA
ATOM      2  C   UNL     1       3.575  15.465  20.254  0.00  0.00    +0.000 C 
ATOM      3  C   UNL     1       2.421  16.381  20.089  0.00  0.00    +0.000 C 
ATOM      4  C   UNL     1       1.359  16.142  20.890  0.00  0.00    +0.000 C 
ATOM      5  C   UNL     1      -0.023  16.647  20.680  0.00  0.00    +0.000 C 
ATOM      6  C   UNL     1      -0.926  15.686  21.445  0.00  0.00    +0.000 C 
ATOM      7  O   UNL     1      -2.243  16.229  21.557  0.00  0.00    +0.000 OA
ATOM      8  C   UNL     1      -3.025  15.313  22.220  0.00  0.00    +0.000 A 
ATOM      9  C   UNL     1      -2.834  14.982  23.554  0.00  0.00    +0.000 A 
ATOM     10  C   UNL     1      -3.533  13.896  24.115  0.00  0.00    +0.000 A 
ATOM     11  C   UNL     1      -4.375  13.102  23.317  0.00  0.00    +0.000 A 
ATOM     12  C   UNL     1      -4.513  13.424  21.958  0.00  0.00    +0.000 A 
ATOM     13  C   UNL     1      -3.945  14.624  21.461  0.00  0.00    +0.000 A 
ATOM     14  C   UNL     1      -4.820  12.463  20.911  0.00  0.00    +0.000 A 
ATOM     15  C   UNL     1      -6.058  12.061  20.520  0.00  0.00    +0.000 A 
ATOM     16  C   UNL     1      -6.084  11.560  19.234  0.00  0.00    +0.000 A 
ATOM     17  N   UNL     1      -4.993  11.552  18.387  0.00  0.00    +0.000 NA
ATOM     18  C   UNL     1      -3.802  11.982  18.884  0.00  0.00    +0.000 A 
ATOM     19  N   UNL     1      -3.694  12.303  20.162  0.00  0.00    +0.000 NA
ATOM     20  N   UNL     1      -2.662  12.282  18.033  0.00  0.00    +0.000 N 
ATOM     21  C   UNL     1      -1.260  12.243  18.444  0.00  0.00    +0.000 A 
ATOM     22  C   UNL     1      -0.777  11.041  18.968  0.00  0.00    +0.000 A 
ATOM     23  C   UNL     1       0.598  10.907  19.218  0.00  0.00    +0.000 A 
ATOM     24  C   UNL     1       1.566  11.936  19.014  0.00  0.00    +0.000 A 
ATOM     25  C   UNL     1       1.230  13.215  18.555  0.00  0.00    +0.000 A 
ATOM     26  C   UNL     1      -0.228  13.316  18.206  0.00  0.00    +0.000 A 
ATOM     27  C   UNL     1       2.491  14.308  18.181  0.00  0.00    +0.000 C 
ATOM     28  H   UNL     1      -2.826  11.645  17.251  0.00  0.00    +0.000 HD
ENDROOT
BRANCH   1  29
ATOM     29  C   UNL     1       5.072  15.354  18.378  0.00  0.00    +0.000 C 
BRANCH  29  31
ATOM     30  C   UNL     1       7.091  13.693  17.489  0.00  0.00    +0.000 C 
ATOM     31  C   UNL     1       6.717  14.865  18.467  0.00  0.00    +0.000 C 
ATOM     32  C   UNL     1       7.901  15.852  18.268  0.00  0.00    +0.000 C 
ENDBRANCH  29  31
ENDBRANCH   1  29
TORSDOF 2
ENDMDL
MODEL 7
REMARK VINA RESULT:      -7.0      3.389      5.767
REMARK  Name = 
REMARK  4 active torsions:
REMARK  status: ('A' for Active; 'I' for Inactive)
REMARK    1  A    between atoms: C_1  and  C_2
REMARK    2  A    between atoms: C_2  and  C_3
REMARK    3  A    between atoms: C_2  and  C_4
REMARK    4  A    between atoms: C_4  and  N_5
REMARK                            x       y       z     vdW  Elec       q    Type
REMARK                         _______ _______ _______ _____ _____    ______ ____
ROOT
ATOM      1  N   UNL     1       1.981  14.447  19.937  0.00  0.00    +0.000 NA
ATOM      2  C   UNL     1       1.613  13.942  18.605  0.00  0.00    +0.000 C 
ATOM      3  C   UNL     1       1.045  12.572  18.608  0.00  0.00    +0.000 C 
ATOM      4  C   UNL     1      -0.246  12.468  18.223  0.00  0.00    +0.000 C 
ATOM      5  C   UNL     1      -1.145  11.315  18.486  0.00  0.00    +0.000 C 
ATOM      6  C   UNL     1      -2.560  11.875  18.401  0.00  0.00    +0.000 C 
ATOM      7  O   UNL     1      -3.511  10.810  18.351  0.00  0.00    +0.000 OA
ATOM      8  C   UNL     1      -4.768  11.365  18.312  0.00  0.00    +0.000 A 
ATOM      9  C   UNL     1      -5.237  12.100  17.233  0.00  0.00    +0.000 A 
ATOM     10  C   UNL     1      -6.449  12.808  17.339  0.00  0.00    +0.000 A 
ATOM     11  C   UNL     1      -7.158  12.830  18.553  0.00  0.00    +0.000 A 
ATOM     12  C   UNL     1      -6.639  12.122  19.647  0.00  0.00    +0.000 A 
ATOM     13  C   UNL     1      -5.518  11.273  19.464  0.00  0.00    +0.000 A 
ATOM     14  C   UNL     1      -6.864  12.476  21.039  0.00  0.00    +0.000 A 
ATOM     15  C   UNL     1      -7.913  12.092  21.812  0.00  0.00    +0.000 A 
ATOM     16  C   UNL     1      -7.637  12.138  23.163  0.00  0.00    +0.000 A 
ATOM     17  N   UNL     1      -6.397  12.447  23.687  0.00  0.00    +0.000 NA
ATOM     18  C   UNL     1      -5.416  12.815  22.818  0.00  0.00    +0.000 A 
ATOM     19  N   UNL     1      -5.688  12.955  21.533  0.00  0.00    +0.000 NA
ATOM     20  N   UNL     1      -4.017  12.893  23.207  0.00  0.00    +0.000 N 
ATOM     21  C   UNL     1      -3.002  13.727  22.566  0.00  0.00    +0.000 A 
ATOM     22  C   UNL     1      -3.245  15.102  22.506  0.00  0.00    +0.000 A 
ATOM     23  C   UNL     1      -2.228  15.958  22.054  0.00  0.00    +0.000 A 
ATOM     24  C   UNL     1      -0.945  15.527  21.601  0.00  0.00    +0.000 A 
ATOM     25  C   UNL     1      -0.573  14.179  21.540  0.00  0.00    +0.000 A 
ATOM     26  C   UNL     1      -1.635  13.283  22.111  0.00  0.00    +0.000 A 
ATOM     27  C   UNL     1       1.046  13.793  21.149  0.00  0.00    +0.000 C 
ATOM     28  H   UNL     1      -4.099  13.123  24.199  0.00  0.00    +0.000 HD
ENDROOT
BRANCH   1  29
ATOM     29  C   UNL     1       3.547  14.252  19.997  0.00  0.00    +0.000 C 
BRANCH  29  31
ATOM     30  C   UNL     1       5.921  15.634  20.282  0.00  0.00    +0.000 C 
ATOM     31  C   UNL     1       4.716  15.318  19.324  0.00  0.00    +0.000 C 
ATOM     32  C   UNL     1       5.433  15.037  17.973  0.00  0.00    +0.000 C 
ENDBRANCH  29  31
ENDBRANCH   1  29
TORSDOF 2
ENDMDL
MODEL 8
REMARK VINA RESULT:      -6.9      3.303      7.904
REMARK  Name = 
REMARK  4 active torsions:
REMARK  status: ('A' for Active; 'I' for Inactive)
REMARK    1  A    between atoms: C_1  and  C_2
REMARK    2  A    between atoms: C_2  and  C_3
REMARK    3  A    between atoms: C_2  and  C_4
REMARK    4  A    between atoms: C_4  and  N_5
REMARK                            x       y       z     vdW  Elec       q    Type
REMARK                         _______ _______ _______ _____ _____    ______ ____
ROOT
ATOM      1  N   UNL     1       1.275  10.693  19.171  0.00  0.00    +0.000 NA
ATOM      2  C   UNL     1       1.993  11.960  18.961  0.00  0.00    +0.000 C 
ATOM      3  C   UNL     1       1.185  13.019  18.312  0.00  0.00    +0.000 C 
ATOM      4  C   UNL     1       0.928  14.111  19.066  0.00  0.00    +0.000 C 
ATOM      5  C   UNL     1      -0.135  15.117  18.810  0.00  0.00    +0.000 C 
ATOM      6  C   UNL     1      -0.409  15.771  20.160  0.00  0.00    +0.000 C 
ATOM      7  O   UNL     1      -1.202  16.947  19.988  0.00  0.00    +0.000 OA
ATOM      8  C   UNL     1      -1.450  17.477  21.232  0.00  0.00    +0.000 A 
ATOM      9  C   UNL     1      -0.457  18.024  22.032  0.00  0.00    +0.000 A 
ATOM     10  C   UNL     1      -0.740  18.362  23.369  0.00  0.00    +0.000 A 
ATOM     11  C   UNL     1      -2.004  18.091  23.920  0.00  0.00    +0.000 A 
ATOM     12  C   UNL     1      -2.977  17.491  23.108  0.00  0.00    +0.000 A 
ATOM     13  C   UNL     1      -2.728  17.326  21.722  0.00  0.00    +0.000 A 
ATOM     14  C   UNL     1      -4.049  16.640  23.599  0.00  0.00    +0.000 A 
ATOM     15  C   UNL     1      -5.266  17.049  24.047  0.00  0.00    +0.000 A 
ATOM     16  C   UNL     1      -6.230  16.065  23.974  0.00  0.00    +0.000 A 
ATOM     17  N   UNL     1      -6.019  14.819  23.415  0.00  0.00    +0.000 NA
ATOM     18  C   UNL     1      -4.761  14.518  22.995  0.00  0.00    +0.000 A 
ATOM     19  N   UNL     1      -3.770  15.366  23.208  0.00  0.00    +0.000 NA
ATOM     20  N   UNL     1      -4.473  13.370  22.150  0.00  0.00    +0.000 N 
ATOM     21  C   UNL     1      -3.191  12.674  22.069  0.00  0.00    +0.000 A 
ATOM     22  C   UNL     1      -2.664  12.156  23.255  0.00  0.00    +0.000 A 
ATOM     23  C   UNL     1      -1.524  11.339  23.200  0.00  0.00    +0.000 A 
ATOM     24  C   UNL     1      -0.815  11.015  22.004  0.00  0.00    +0.000 A 
ATOM     25  C   UNL     1      -1.179  11.508  20.746  0.00  0.00    +0.000 A 
ATOM     26  C   UNL     1      -2.451  12.305  20.808  0.00  0.00    +0.000 A 
ATOM     27  C   UNL     1      -0.364  10.913  19.366  0.00  0.00    +0.000 C 
ATOM     28  H   UNL     1      -5.215  12.726  22.431  0.00  0.00    +0.000 HD
ENDROOT
BRANCH   1  29
ATOM     29  C   UNL     1       1.783   9.771  17.993  0.00  0.00    +0.000 C 
BRANCH  29  31
ATOM     30  C   UNL     1       3.516   7.689  17.458  0.00  0.00    +0.000 C 
ATOM     31  C   UNL     1       2.150   8.097  18.118  0.00  0.00    +0.000 C 
ATOM     32  C   UNL     1       2.204   7.346  19.479  0.00  0.00    +0.000 C 
ENDBRANCH  29  31
ENDBRANCH   1  29
TORSDOF 2
ENDMDL
MODEL 9
REMARK VINA RESULT:      -6.9      3.991      6.813
REMARK  Name = 
REMARK  4 active torsions:
REMARK  status: ('A' for Active; 'I' for Inactive)
REMARK    1  A    between atoms: C_1  and  C_2
REMARK    2  A    between atoms: C_2  and  C_3
REMARK    3  A    between atoms: C_2  and  C_4
REMARK    4  A    between atoms: C_4  and  N_5
REMARK                            x       y       z     vdW  Elec       q    Type
REMARK                         _______ _______ _______ _____ _____    ______ ____
ROOT
ATOM      1  N   UNL     1      -5.593  12.842  20.874  0.00  0.00    +0.000 NA
ATOM      2  C   UNL     1      -5.906  14.255  20.606  0.00  0.00    +0.000 C 
ATOM      3  C   UNL     1      -5.086  15.218  21.380  0.00  0.00    +0.000 C 
ATOM      4  C   UNL     1      -4.255  16.000  20.656  0.00  0.00    +0.000 C 
ATOM      5  C   UNL     1      -3.090  16.757  21.182  0.00  0.00    +0.000 C 
ATOM      6  C   UNL     1      -2.175  16.979  19.984  0.00  0.00    +0.000 C 
ATOM      7  O   UNL     1      -1.166  17.939  20.303  0.00  0.00    +0.000 OA
ATOM      8  C   UNL     1      -0.348  18.076  19.207  0.00  0.00    +0.000 A 
ATOM      9  C   UNL     1      -0.777  18.631  18.009  0.00  0.00    +0.000 A 
ATOM     10  C   UNL     1       0.044  18.557  16.867  0.00  0.00    +0.000 A 
ATOM     11  C   UNL     1       1.269  17.869  16.914  0.00  0.00    +0.000 A 
ATOM     12  C   UNL     1       1.659  17.271  18.122  0.00  0.00    +0.000 A 
ATOM     13  C   UNL     1       0.905  17.513  19.299  0.00  0.00    +0.000 A 
ATOM     14  C   UNL     1       2.512  16.098  18.223  0.00  0.00    +0.000 A 
ATOM     15  C   UNL     1       3.870  16.086  18.253  0.00  0.00    +0.000 A 
ATOM     16  C   UNL     1       4.390  14.949  18.839  0.00  0.00    +0.000 A 
ATOM     17  N   UNL     1       3.620  13.963  19.426  0.00  0.00    +0.000 NA
ATOM     18  C   UNL     1       2.267  14.080  19.339  0.00  0.00    +0.000 A 
ATOM     19  N   UNL     1       1.730  15.060  18.634  0.00  0.00    +0.000 NA
ATOM     20  N   UNL     1       1.360  13.274  20.140  0.00  0.00    +0.000 N 
ATOM     21  C   UNL     1      -0.019  12.943  19.788  0.00  0.00    +0.000 A 
ATOM     22  C   UNL     1      -0.234  12.292  18.571  0.00  0.00    +0.000 A 
ATOM     23  C   UNL     1      -1.516  11.807  18.270  0.00  0.00    +0.000 A 
ATOM     24  C   UNL     1      -2.660  11.960  19.109  0.00  0.00    +0.000 A 
ATOM     25  C   UNL     1      -2.622  12.645  20.330  0.00  0.00    +0.000 A 
ATOM     26  C   UNL     1      -1.227  13.078  20.681  0.00  0.00    +0.000 A 
ATOM     27  C   UNL     1      -4.009  12.613  21.330  0.00  0.00    +0.000 C 
ATOM     28  H   UNL     1       1.912  12.424  20.270  0.00  0.00    +0.000 HD
ENDROOT
BRANCH   1  29
ATOM     29  C   UNL     1      -6.741  12.382  21.858  0.00  0.00    +0.000 C 
BRANCH  29  31
ATOM     30  C   UNL     1      -5.357  12.808  24.210  0.00  0.00    +0.000 C 
ATOM     31  C   UNL     1      -6.778  12.663  23.554  0.00  0.00    +0.000 C 
ATOM     32  C   UNL     1      -7.560  13.843  24.195  0.00  0.00    +0.000 C 
ENDBRANCH  29  31
ENDBRANCH   1  29
TORSDOF 2
ENDMDL
