MODEL 1
REMARK VINA RESULT:      -7.6      0.000      0.000
REMARK  Name = 
REMARK  5 active torsions:
REMARK  status: ('A' for Active; 'I' for Inactive)
REMARK    1  A    between atoms: C_1  and  N_2
REMARK    2  A    between atoms: C_6  and  S_7
REMARK    3  A    between atoms: S_7  and  N_10
REMARK    4  A    between atoms: N_10  and  C_11
REMARK    5  A    between atoms: N_14  and  C_15
REMARK                            x       y       z     vdW  Elec       q    Type
REMARK                         _______ _______ _______ _____ _____    ______ ____
ROOT
ATOM      1  C   UNL     1       2.852   6.121  18.624  0.00  0.00    +0.000 C 
ATOM      2  C   UNL     1       2.740   5.455  20.004  0.00  0.00    +0.000 C 
ATOM      3  C   UNL     1       1.628   6.215  20.701  0.00  0.00    +0.000 C 
ATOM      4  N   UNL     1       1.857   7.576  20.248  0.00  0.00    +0.000 N 
ATOM      5  C   UNL     1       2.358   7.572  18.863  0.00  0.00    +0.000 C 
ENDROOT
BRANCH   4   6
ATOM      6  C   UNL     1       1.155   8.645  20.763  0.00  0.00    +0.000 A 
ATOM      7  C   UNL     1       0.897   8.732  22.140  0.00  0.00    +0.000 A 
ATOM      8  C   UNL     1       0.104   9.755  22.676  0.00  0.00    +0.000 A 
ATOM      9  C   UNL     1      -0.423  10.732  21.838  0.00  0.00    +0.000 A 
ATOM     10 CL   UNL     1      -1.399  11.992  22.486  0.00  0.00    +0.000 Cl
ATOM     11  C   UNL     1      -0.171  10.686  20.474  0.00  0.00    +0.000 A 
ATOM     12  C   UNL     1       0.601   9.643  19.945  0.00  0.00    +0.000 A 
ENDBRANCH   4   6
BRANCH   1  13
ATOM     13  N   UNL     1       4.276   5.986  18.207  0.00  0.00    +0.000 NA
ATOM     14  H   UNL     1       4.917   6.356  18.913  0.00  0.00    +0.000 HD
BRANCH  13  15
ATOM     15  S   UNL     1       4.871   4.487  17.751  0.00  0.00    +0.000 S 
ATOM     16  O   UNL     1       3.756   3.675  17.327  0.00  0.00    +0.000 OA
ATOM     17  O   UNL     1       5.770   4.073  18.803  0.00  0.00    +0.000 OA
BRANCH  15  23
ATOM     18  C   UNL     1       7.343   6.529  17.267  0.00  0.00    +0.000 C 
ATOM     19  N   UNL     1       6.909   5.585  16.262  0.00  0.00    +0.000 N 
ATOM     20  N   UNL     1       7.548   5.573  15.072  0.00  0.00    +0.000 NA
ATOM     21  C   UNL     1       6.957   4.588  14.398  0.00  0.00    +0.000 A 
ATOM     22  C   UNL     1       5.918   4.000  15.129  0.00  0.00    +0.000 A 
ATOM     23  C   UNL     1       5.887   4.676  16.336  0.00  0.00    +0.000 A 
ENDBRANCH  15  23
ENDBRANCH  13  15
ENDBRANCH   1  13
TORSDOF 4
ENDMDL
MODEL 2
REMARK VINA RESULT:      -7.5      0.189      1.034
REMARK  Name = 
REMARK  5 active torsions:
REMARK  status: ('A' for Active; 'I' for Inactive)
REMARK    1  A    between atoms: C_1  and  N_2
REMARK    2  A    between atoms: C_6  and  S_7
REMARK    3  A    between atoms: S_7  and  N_10
REMARK    4  A    between atoms: N_10  and  C_11
REMARK    5  A    between atoms: N_14  and  C_15
REMARK                            x       y       z     vdW  Elec       q    Type
REMARK                         _______ _______ _______ _____ _____    ______ ____
ROOT
ATOM      1  C   UNL     1       2.873   6.116  18.712  0.00  0.00    +0.000 C 
ATOM      2  C   UNL     1       2.712   5.448  20.086  0.00  0.00    +0.000 C 
ATOM      3  C   UNL     1       1.581   6.211  20.747  0.00  0.00    +0.000 C 
ATOM      4  N   UNL     1       1.830   7.572  20.305  0.00  0.00    +0.000 N 
ATOM      5  C   UNL     1       2.377   7.569  18.938  0.00  0.00    +0.000 C 
ENDROOT
BRANCH   4   6
ATOM      6  C   UNL     1       1.116   8.643  20.798  0.00  0.00    +0.000 A 
ATOM      7  C   UNL     1       0.812   9.737  19.974  0.00  0.00    +0.000 A 
ATOM      8  C   UNL     1       0.173  10.879  20.474  0.00  0.00    +0.000 A 
ATOM      9  C   UNL     1      -0.202  10.932  21.812  0.00  0.00    +0.000 A 
ATOM     10 CL   UNL     1      -0.985  12.330  22.436  0.00  0.00    +0.000 Cl
ATOM     11  C   UNL     1       0.067   9.858  22.650  0.00  0.00    +0.000 A 
ATOM     12  C   UNL     1       0.730   8.732  22.146  0.00  0.00    +0.000 A 
ENDBRANCH   4   6
BRANCH   1  13
ATOM     13  N   UNL     1       4.310   5.977  18.342  0.00  0.00    +0.000 NA
ATOM     14  H   UNL     1       4.929   6.328  19.077  0.00  0.00    +0.000 HD
BRANCH  13  15
ATOM     15  S   UNL     1       4.908   4.481  17.879  0.00  0.00    +0.000 S 
ATOM     16  O   UNL     1       3.790   3.655  17.490  0.00  0.00    +0.000 OA
ATOM     17  O   UNL     1       5.840   4.084  18.908  0.00  0.00    +0.000 OA
BRANCH  15  23
ATOM     18  C   UNL     1       7.322   6.568  17.302  0.00  0.00    +0.000 C 
ATOM     19  N   UNL     1       6.883   5.601  16.322  0.00  0.00    +0.000 N 
ATOM     20  N   UNL     1       7.490   5.587  15.116  0.00  0.00    +0.000 NA
ATOM     21  C   UNL     1       6.903   4.580  14.471  0.00  0.00    +0.000 A 
ATOM     22  C   UNL     1       5.896   3.980  15.236  0.00  0.00    +0.000 A 
ATOM     23  C   UNL     1       5.883   4.672  16.435  0.00  0.00    +0.000 A 
ENDBRANCH  15  23
ENDBRANCH  13  15
ENDBRANCH   1  13
TORSDOF 4
ENDMDL
MODEL 3
REMARK VINA RESULT:      -7.4      3.134      4.199
REMARK  Name = 
REMARK  5 active torsions:
REMARK  status: ('A' for Active; 'I' for Inactive)
REMARK    1  A    between atoms: C_1  and  N_2
REMARK    2  A    between atoms: C_6  and  S_7
REMARK    3  A    between atoms: S_7  and  N_10
REMARK    4  A    between atoms: N_10  and  C_11
REMARK    5  A    between atoms: N_14  and  C_15
REMARK                            x       y       z     vdW  Elec       q    Type
REMARK                         _______ _______ _______ _____ _____    ______ ____
ROOT
ATOM      1  C   UNL     1       2.633   7.428  18.766  0.00  0.00    +0.000 C 
ATOM      2  C   UNL     1       2.161   8.396  17.670  0.00  0.00    +0.000 C 
ATOM      3  C   UNL     1       1.697   9.625  18.426  0.00  0.00    +0.000 C 
ATOM      4  N   UNL     1       1.073   9.044  19.602  0.00  0.00    +0.000 N 
ATOM      5  C   UNL     1       1.794   7.827  20.009  0.00  0.00    +0.000 C 
ENDROOT
BRANCH   4   6
ATOM      6  C   UNL     1       0.370   9.809  20.509  0.00  0.00    +0.000 A 
ATOM      7  C   UNL     1       0.309   9.433  21.860  0.00  0.00    +0.000 A 
ATOM      8  C   UNL     1      -0.477  10.136  22.783  0.00  0.00    +0.000 A 
ATOM      9  C   UNL     1      -1.196  11.253  22.370  0.00  0.00    +0.000 A 
ATOM     10 CL   UNL     1      -2.164  12.121  23.495  0.00  0.00    +0.000 Cl
ATOM     11  C   UNL     1      -1.142  11.661  21.045  0.00  0.00    +0.000 A 
ATOM     12  C   UNL     1      -0.374  10.935  20.125  0.00  0.00    +0.000 A 
ENDBRANCH   4   6
BRANCH   1  13
ATOM     13  N   UNL     1       2.397   6.053  18.243  0.00  0.00    +0.000 NA
ATOM     14  H   UNL     1       2.362   6.034  17.221  0.00  0.00    +0.000 HD
BRANCH  13  15
ATOM     15  S   UNL     1       3.402   4.799  18.717  0.00  0.00    +0.000 S 
ATOM     16  O   UNL     1       4.602   5.375  19.273  0.00  0.00    +0.000 OA
ATOM     17  O   UNL     1       3.433   3.868  17.613  0.00  0.00    +0.000 OA
BRANCH  15  23
ATOM     18  C   UNL     1       4.483   2.201  20.329  0.00  0.00    +0.000 C 
ATOM     19  N   UNL     1       3.216   2.828  20.630  0.00  0.00    +0.000 N 
ATOM     20  N   UNL     1       2.449   2.293  21.605  0.00  0.00    +0.000 NA
ATOM     21  C   UNL     1       1.395   3.105  21.668  0.00  0.00    +0.000 A 
ATOM     22  C   UNL     1       1.459   4.126  20.712  0.00  0.00    +0.000 A 
ATOM     23  C   UNL     1       2.645   3.918  20.030  0.00  0.00    +0.000 A 
ENDBRANCH  15  23
ENDBRANCH  13  15
ENDBRANCH   1  13
TORSDOF 4
ENDMDL
MODEL 4
REMARK VINA RESULT:      -7.4      2.495      4.661
REMARK  Name = 
REMARK  5 active torsions:
REMARK  status: ('A' for Active; 'I' for Inactive)
REMARK    1  A    between atoms: C_1  and  N_2
REMARK    2  A    between atoms: C_6  and  S_7
REMARK    3  A    between atoms: S_7  and  N_10
REMARK    4  A    between atoms: N_10  and  C_11
REMARK    5  A    between atoms: N_14  and  C_15
REMARK                            x       y       z     vdW  Elec       q    Type
REMARK                         _______ _______ _______ _____ _____    ______ ____
ROOT
ATOM      1  C   UNL     1       5.038   4.916  18.291  0.00  0.00    +0.000 C 
ATOM      2  C   UNL     1       4.933   5.568  16.904  0.00  0.00    +0.000 C 
ATOM      3  C   UNL     1       4.322   6.930  17.171  0.00  0.00    +0.000 C 
ATOM      4  N   UNL     1       3.369   6.635  18.227  0.00  0.00    +0.000 N 
ATOM      5  C   UNL     1       3.897   5.580  19.108  0.00  0.00    +0.000 C 
ENDROOT
BRANCH   4   6
ATOM      6  C   UNL     1       2.468   7.575  18.681  0.00  0.00    +0.000 A 
ATOM      7  C   UNL     1       2.020   8.600  17.833  0.00  0.00    +0.000 A 
ATOM      8  C   UNL     1       1.181   9.623  18.296  0.00  0.00    +0.000 A 
ATOM      9  C   UNL     1       0.751   9.618  19.619  0.00  0.00    +0.000 A 
ATOM     10 CL   UNL     1      -0.277  10.870  20.197  0.00  0.00    +0.000 Cl
ATOM     11  C   UNL     1       1.161   8.609  20.478  0.00  0.00    +0.000 A 
ATOM     12  C   UNL     1       2.021   7.606  20.011  0.00  0.00    +0.000 A 
ENDBRANCH   4   6
BRANCH   1  13
ATOM     13  N   UNL     1       4.906   3.448  18.077  0.00  0.00    +0.000 NA
ATOM     14  H   UNL     1       5.466   2.912  18.744  0.00  0.00    +0.000 HD
BRANCH  13  15
ATOM     15  S   UNL     1       3.384   2.745  18.048  0.00  0.00    +0.000 S 
ATOM     16  O   UNL     1       3.547   1.341  17.759  0.00  0.00    +0.000 OA
ATOM     17  O   UNL     1       2.557   3.609  17.238  0.00  0.00    +0.000 OA
BRANCH  15  23
ATOM     18  C   UNL     1       4.681   1.879  20.891  0.00  0.00    +0.000 C 
ATOM     19  N   UNL     1       3.346   2.423  20.781  0.00  0.00    +0.000 N 
ATOM     20  N   UNL     1       2.610   2.552  21.907  0.00  0.00    +0.000 NA
ATOM     21  C   UNL     1       1.475   3.109  21.487  0.00  0.00    +0.000 A 
ATOM     22  C   UNL     1       1.461   3.295  20.099  0.00  0.00    +0.000 A 
ATOM     23  C   UNL     1       2.683   2.823  19.652  0.00  0.00    +0.000 A 
ENDBRANCH  15  23
ENDBRANCH  13  15
ENDBRANCH   1  13
TORSDOF 4
ENDMDL
MODEL 5
REMARK VINA RESULT:      -7.4      2.574      4.888
REMARK  Name = 
REMARK  5 active torsions:
REMARK  status: ('A' for Active; 'I' for Inactive)
REMARK    1  A    between atoms: C_1  and  N_2
REMARK    2  A    between atoms: C_6  and  S_7
REMARK    3  A    between atoms: S_7  and  N_10
REMARK    4  A    between atoms: N_10  and  C_11
REMARK    5  A    between atoms: N_14  and  C_15
REMARK                            x       y       z     vdW  Elec       q    Type
REMARK                         _______ _______ _______ _____ _____    ______ ____
ROOT
ATOM      1  C   UNL     1       4.639   4.712  18.337  0.00  0.00    +0.000 C 
ATOM      2  C   UNL     1       4.786   5.460  17.004  0.00  0.00    +0.000 C 
ATOM      3  C   UNL     1       4.333   6.874  17.310  0.00  0.00    +0.000 C 
ATOM      4  N   UNL     1       3.232   6.650  18.231  0.00  0.00    +0.000 N 
ATOM      5  C   UNL     1       3.509   5.476  19.077  0.00  0.00    +0.000 C 
ENDROOT
BRANCH   4   6
ATOM      6  C   UNL     1       2.417   7.676  18.658  0.00  0.00    +0.000 A 
ATOM      7  C   UNL     1       2.111   8.746  17.803  0.00  0.00    +0.000 A 
ATOM      8  C   UNL     1       1.366   9.848  18.243  0.00  0.00    +0.000 A 
ATOM      9  C   UNL     1       0.886   9.882  19.548  0.00  0.00    +0.000 A 
ATOM     10 CL   UNL     1      -0.028  11.231  20.098  0.00  0.00    +0.000 Cl
ATOM     11  C   UNL     1       1.156   8.831  20.414  0.00  0.00    +0.000 A 
ATOM     12  C   UNL     1       1.924   7.747  19.971  0.00  0.00    +0.000 A 
ENDBRANCH   4   6
BRANCH   1  13
ATOM     13  N   UNL     1       4.340   3.294  17.994  0.00  0.00    +0.000 NA
ATOM     14  H   UNL     1       5.010   2.914  17.321  0.00  0.00    +0.000 HD
BRANCH  13  15
ATOM     15  S   UNL     1       4.183   2.157  19.216  0.00  0.00    +0.000 S 
ATOM     16  O   UNL     1       5.316   2.293  20.099  0.00  0.00    +0.000 OA
ATOM     17  O   UNL     1       3.857   0.909  18.566  0.00  0.00    +0.000 OA
BRANCH  15  23
ATOM     18  C   UNL     1       1.135   2.721  18.262  0.00  0.00    +0.000 C 
ATOM     19  N   UNL     1       1.532   2.758  19.651  0.00  0.00    +0.000 N 
ATOM     20  N   UNL     1       0.598   3.061  20.579  0.00  0.00    +0.000 NA
ATOM     21  C   UNL     1       1.252   2.973  21.736  0.00  0.00    +0.000 A 
ATOM     22  C   UNL     1       2.605   2.661  21.553  0.00  0.00    +0.000 A 
ATOM     23  C   UNL     1       2.775   2.544  20.185  0.00  0.00    +0.000 A 
ENDBRANCH  15  23
ENDBRANCH  13  15
ENDBRANCH   1  13
TORSDOF 4
ENDMDL
MODEL 6
REMARK VINA RESULT:      -7.3      3.160      4.341
REMARK  Name = 
REMARK  5 active torsions:
REMARK  status: ('A' for Active; 'I' for Inactive)
REMARK    1  A    between atoms: C_1  and  N_2
REMARK    2  A    between atoms: C_6  and  S_7
REMARK    3  A    between atoms: S_7  and  N_10
REMARK    4  A    between atoms: N_10  and  C_11
REMARK    5  A    between atoms: N_14  and  C_15
REMARK                            x       y       z     vdW  Elec       q    Type
REMARK                         _______ _______ _______ _____ _____    ______ ____
ROOT
ATOM      1  C   UNL     1       2.632   7.447  18.744  0.00  0.00    +0.000 C 
ATOM      2  C   UNL     1       2.138   8.360  17.611  0.00  0.00    +0.000 C 
ATOM      3  C   UNL     1       1.716   9.637  18.310  0.00  0.00    +0.000 C 
ATOM      4  N   UNL     1       1.124   9.133  19.536  0.00  0.00    +0.000 N 
ATOM      5  C   UNL     1       1.840   7.928  19.989  0.00  0.00    +0.000 C 
ENDROOT
BRANCH   4   6
ATOM      6  C   UNL     1       0.461   9.958  20.421  0.00  0.00    +0.000 A 
ATOM      7  C   UNL     1       0.229  11.304  20.101  0.00  0.00    +0.000 A 
ATOM      8  C   UNL     1      -0.354  12.187  21.020  0.00  0.00    +0.000 A 
ATOM      9  C   UNL     1      -0.744  11.725  22.272  0.00  0.00    +0.000 A 
ATOM     10 CL   UNL     1      -1.459  12.801  23.407  0.00  0.00    +0.000 Cl
ATOM     11  C   UNL     1      -0.545  10.394  22.613  0.00  0.00    +0.000 A 
ATOM     12  C   UNL     1       0.063   9.526  21.696  0.00  0.00    +0.000 A 
ENDBRANCH   4   6
BRANCH   1  13
ATOM     13  N   UNL     1       2.359   6.050  18.307  0.00  0.00    +0.000 NA
ATOM     14  H   UNL     1       2.262   5.979  17.292  0.00  0.00    +0.000 HD
BRANCH  13  15
ATOM     15  S   UNL     1       3.387   4.814  18.783  0.00  0.00    +0.000 S 
ATOM     16  O   UNL     1       4.567   5.413  19.359  0.00  0.00    +0.000 OA
ATOM     17  O   UNL     1       3.453   3.895  17.671  0.00  0.00    +0.000 OA
BRANCH  15  23
ATOM     18  C   UNL     1       4.485   2.196  20.350  0.00  0.00    +0.000 C 
ATOM     19  N   UNL     1       3.212   2.808  20.659  0.00  0.00    +0.000 N 
ATOM     20  N   UNL     1       2.448   2.249  21.623  0.00  0.00    +0.000 NA
ATOM     21  C   UNL     1       1.387   3.051  21.698  0.00  0.00    +0.000 A 
ATOM     22  C   UNL     1       1.445   4.090  20.761  0.00  0.00    +0.000 A 
ATOM     23  C   UNL     1       2.634   3.904  20.078  0.00  0.00    +0.000 A 
ENDBRANCH  15  23
ENDBRANCH  13  15
ENDBRANCH   1  13
TORSDOF 4
ENDMDL
MODEL 7
REMARK VINA RESULT:      -7.2      1.306      2.029
REMARK  Name = 
REMARK  5 active torsions:
REMARK  status: ('A' for Active; 'I' for Inactive)
REMARK    1  A    between atoms: C_1  and  N_2
REMARK    2  A    between atoms: C_6  and  S_7
REMARK    3  A    between atoms: S_7  and  N_10
REMARK    4  A    between atoms: N_10  and  C_11
REMARK    5  A    between atoms: N_14  and  C_15
REMARK                            x       y       z     vdW  Elec       q    Type
REMARK                         _______ _______ _______ _____ _____    ______ ____
ROOT
ATOM      1  C   UNL     1       3.093   6.984  18.550  0.00  0.00    +0.000 C 
ATOM      2  C   UNL     1       2.593   7.953  17.468  0.00  0.00    +0.000 C 
ATOM      3  C   UNL     1       2.106   9.163  18.240  0.00  0.00    +0.000 C 
ATOM      4  N   UNL     1       1.502   8.555  19.413  0.00  0.00    +0.000 N 
ATOM      5  C   UNL     1       2.252   7.349  19.802  0.00  0.00    +0.000 C 
ENDROOT
BRANCH   4   6
ATOM      6  C   UNL     1       0.787   9.293  20.333  0.00  0.00    +0.000 A 
ATOM      7  C   UNL     1       0.696   8.871  21.668  0.00  0.00    +0.000 A 
ATOM      8  C   UNL     1      -0.103   9.548  22.599  0.00  0.00    +0.000 A 
ATOM      9  C   UNL     1      -0.804  10.685  22.212  0.00  0.00    +0.000 A 
ATOM     10 CL   UNL     1      -1.787  11.522  23.348  0.00  0.00    +0.000 Cl
ATOM     11  C   UNL     1      -0.720  11.140  20.903  0.00  0.00    +0.000 A 
ATOM     12  C   UNL     1       0.061  10.440  19.974  0.00  0.00    +0.000 A 
ENDBRANCH   4   6
BRANCH   1  13
ATOM     13  N   UNL     1       2.884   5.610  18.013  0.00  0.00    +0.000 NA
ATOM     14  H   UNL     1       2.575   5.624  17.038  0.00  0.00    +0.000 HD
BRANCH  13  15
ATOM     15  S   UNL     1       4.118   4.480  18.115  0.00  0.00    +0.000 S 
ATOM     16  O   UNL     1       4.005   3.593  16.982  0.00  0.00    +0.000 OA
ATOM     17  O   UNL     1       4.111   3.998  19.476  0.00  0.00    +0.000 OA
BRANCH  15  23
ATOM     18  C   UNL     1       5.360   5.944  15.500  0.00  0.00    +0.000 C 
ATOM     19  N   UNL     1       6.065   5.878  16.761  0.00  0.00    +0.000 N 
ATOM     20  N   UNL     1       7.296   6.430  16.838  0.00  0.00    +0.000 NA
ATOM     21  C   UNL     1       7.652   6.246  18.109  0.00  0.00    +0.000 A 
ATOM     22  C   UNL     1       6.680   5.543  18.831  0.00  0.00    +0.000 A 
ATOM     23  C   UNL     1       5.660   5.294  17.931  0.00  0.00    +0.000 A 
ENDBRANCH  15  23
ENDBRANCH  13  15
ENDBRANCH   1  13
TORSDOF 4
ENDMDL
MODEL 8
REMARK VINA RESULT:      -7.2      0.908      1.286
REMARK  Name = 
REMARK  5 active torsions:
REMARK  status: ('A' for Active; 'I' for Inactive)
REMARK    1  A    between atoms: C_1  and  N_2
REMARK    2  A    between atoms: C_6  and  S_7
REMARK    3  A    between atoms: S_7  and  N_10
REMARK    4  A    between atoms: N_10  and  C_11
REMARK    5  A    between atoms: N_14  and  C_15
REMARK                            x       y       z     vdW  Elec       q    Type
REMARK                         _______ _______ _______ _____ _____    ______ ____
ROOT
ATOM      1  C   UNL     1       3.520   6.259  18.612  0.00  0.00    +0.000 C 
ATOM      2  C   UNL     1       3.110   7.200  17.470  0.00  0.00    +0.000 C 
ATOM      3  C   UNL     1       2.645   8.463  18.167  0.00  0.00    +0.000 C 
ATOM      4  N   UNL     1       1.966   7.934  19.337  0.00  0.00    +0.000 N 
ATOM      5  C   UNL     1       2.645   6.715  19.810  0.00  0.00    +0.000 C 
ENDROOT
BRANCH   4   6
ATOM      6  C   UNL     1       1.246   8.741  20.192  0.00  0.00    +0.000 A 
ATOM      7  C   UNL     1       1.219   8.474  21.569  0.00  0.00    +0.000 A 
ATOM      8  C   UNL     1       0.419   9.219  22.446  0.00  0.00    +0.000 A 
ATOM      9  C   UNL     1      -0.349  10.271  21.958  0.00  0.00    +0.000 A 
ATOM     10 CL   UNL     1      -1.334  11.190  23.026  0.00  0.00    +0.000 Cl
ATOM     11  C   UNL     1      -0.330  10.573  20.603  0.00  0.00    +0.000 A 
ATOM     12  C   UNL     1       0.453   9.805  19.732  0.00  0.00    +0.000 A 
ENDBRANCH   4   6
BRANCH   1  13
ATOM     13  N   UNL     1       3.273   4.873  18.125  0.00  0.00    +0.000 NA
ATOM     14  H   UNL     1       2.760   4.865  17.241  0.00  0.00    +0.000 HD
BRANCH  13  15
ATOM     15  S   UNL     1       4.559   3.812  17.950  0.00  0.00    +0.000 S 
ATOM     16  O   UNL     1       4.033   2.542  17.510  0.00  0.00    +0.000 OA
ATOM     17  O   UNL     1       5.356   3.944  19.147  0.00  0.00    +0.000 OA
BRANCH  15  23
ATOM     18  C   UNL     1       7.373   5.414  18.128  0.00  0.00    +0.000 C 
ATOM     19  N   UNL     1       6.771   5.041  16.868  0.00  0.00    +0.000 N 
ATOM     20  N   UNL     1       7.399   5.396  15.725  0.00  0.00    +0.000 NA
ATOM     21  C   UNL     1       6.634   4.882  14.764  0.00  0.00    +0.000 A 
ATOM     22  C   UNL     1       5.501   4.241  15.279  0.00  0.00    +0.000 A 
ATOM     23  C   UNL     1       5.596   4.372  16.653  0.00  0.00    +0.000 A 
ENDBRANCH  15  23
ENDBRANCH  13  15
ENDBRANCH   1  13
TORSDOF 4
ENDMDL
MODEL 9
REMARK VINA RESULT:      -7.2      2.608      4.410
REMARK  Name = 
REMARK  5 active torsions:
REMARK  status: ('A' for Active; 'I' for Inactive)
REMARK    1  A    between atoms: C_1  and  N_2
REMARK    2  A    between atoms: C_6  and  S_7
REMARK    3  A    between atoms: S_7  and  N_10
REMARK    4  A    between atoms: N_10  and  C_11
REMARK    5  A    between atoms: N_14  and  C_15
REMARK                            x       y       z     vdW  Elec       q    Type
REMARK                         _______ _______ _______ _____ _____    ______ ____
ROOT
ATOM      1  C   UNL     1       3.839   5.308  18.264  0.00  0.00    +0.000 C 
ATOM      2  C   UNL     1       4.392   6.327  17.257  0.00  0.00    +0.000 C 
ATOM      3  C   UNL     1       3.963   7.673  17.807  0.00  0.00    +0.000 C 
ATOM      4  N   UNL     1       2.640   7.382  18.331  0.00  0.00    +0.000 N 
ATOM      5  C   UNL     1       2.600   6.015  18.876  0.00  0.00    +0.000 C 
ENDROOT
BRANCH   4   6
ATOM      6  C   UNL     1       1.806   8.375  18.801  0.00  0.00    +0.000 A 
ATOM      7  C   UNL     1       1.467   8.437  20.161  0.00  0.00    +0.000 A 
ATOM      8  C   UNL     1       0.546   9.374  20.647  0.00  0.00    +0.000 A 
ATOM      9  C   UNL     1      -0.033  10.290  19.776  0.00  0.00    +0.000 A 
ATOM     10 CL   UNL     1      -1.166  11.443  20.363  0.00  0.00    +0.000 Cl
ATOM     11  C   UNL     1       0.294  10.268  18.427  0.00  0.00    +0.000 A 
ATOM     12  C   UNL     1       1.197   9.310  17.948  0.00  0.00    +0.000 A 
ENDBRANCH   4   6
BRANCH   1  13
ATOM     13  N   UNL     1       3.555   4.065  17.493  0.00  0.00    +0.000 NA
ATOM     14  H   UNL     1       4.369   3.446  17.453  0.00  0.00    +0.000 HD
BRANCH  13  15
ATOM     15  S   UNL     1       2.240   3.112  17.905  0.00  0.00    +0.000 S 
ATOM     16  O   UNL     1       2.504   1.767  17.453  0.00  0.00    +0.000 OA
ATOM     17  O   UNL     1       1.066   3.847  17.497  0.00  0.00    +0.000 OA
BRANCH  15  23
ATOM     18  C   UNL     1       4.479   2.160  20.051  0.00  0.00    +0.000 C 
ATOM     19  N   UNL     1       3.158   2.592  20.448  0.00  0.00    +0.000 N 
ATOM     20  N   UNL     1       2.844   2.574  21.762  0.00  0.00    +0.000 NA
ATOM     21  C   UNL     1       1.604   3.057  21.804  0.00  0.00    +0.000 A 
ATOM     22  C   UNL     1       1.105   3.341  20.526  0.00  0.00    +0.000 A 
ATOM     23  C   UNL     1       2.126   3.012  19.652  0.00  0.00    +0.000 A 
ENDBRANCH  15  23
ENDBRANCH  13  15
ENDBRANCH   1  13
TORSDOF 4
ENDMDL
