MODEL 1
REMARK VINA RESULT:      -7.8      0.000      0.000
REMARK  Name = 
REMARK  7 active torsions:
REMARK  status: ('A' for Active; 'I' for Inactive)
REMARK    1  A    between atoms: C_1  and  O_2
REMARK    2  A    between atoms: O_2  and  C_3
REMARK    3  A    between atoms: N_11  and  C_12
REMARK    4  A    between atoms: C_12  and  C_13
REMARK    5  A    between atoms: C_13  and  C_14
REMARK    6  A    between atoms: C_15  and  C_16
REMARK    7  A    between atoms: C_23  and  O_24
REMARK                            x       y       z     vdW  Elec       q    Type
REMARK                         _______ _______ _______ _____ _____    ______ ____
ROOT
ATOM      1  C   UNL     1       2.895   3.239  17.909  0.00  0.00    +0.000 A 
ATOM      2  C   UNL     1       3.643   2.961  19.049  0.00  0.00    +0.000 A 
ATOM      3  C   UNL     1       4.966   3.382  19.133  0.00  0.00    +0.000 A 
ATOM      4  C   UNL     1       5.545   4.115  18.085  0.00  0.00    +0.000 A 
ATOM      5  C   UNL     1       4.775   4.457  16.960  0.00  0.00    +0.000 A 
ATOM      6  C   UNL     1       3.454   3.990  16.878  0.00  0.00    +0.000 A 
ATOM      7  C   UNL     1       5.318   5.361  15.879  0.00  0.00    +0.000 C 
ATOM      8  C   UNL     1       5.657   6.780  16.382  0.00  0.00    +0.000 C 
ATOM      9  N   UNL     1       6.921   6.933  17.147  0.00  0.00    +0.000 NA
ATOM     10  C   UNL     1       6.902   6.170  18.423  0.00  0.00    +0.000 C 
ATOM     11  C   UNL     1       6.942   4.643  18.261  0.00  0.00    +0.000 C 
ENDROOT
BRANCH   1  13
ATOM     12  C   UNL     1       0.957   2.879  19.187  0.00  0.00    +0.000 C 
ATOM     13  O   UNL     1       1.607   2.780  17.922  0.00  0.00    +0.000 OA
ENDBRANCH   1  13
BRANCH  11  14
ATOM     14  O   UNL     1       7.800   4.266  17.184  0.00  0.00    +0.000 OA
ATOM     15  H   UNL     1       8.688   4.569  17.451  0.00  0.00    +0.000 HD
ENDBRANCH  11  14
BRANCH   9  16
ATOM     16  C   UNL     1       7.123   8.377  17.442  0.00  0.00    +0.000 C 
BRANCH  16  17
ATOM     17  C   UNL     1       8.378   8.623  18.274  0.00  0.00    +0.000 C 
BRANCH  17  18
ATOM     18  C   UNL     1       8.918  10.036  18.134  0.00  0.00    +0.000 C 
ATOM     19  C   UNL     1       9.382  11.249  18.015  0.00  0.00    +0.000 C 
BRANCH  19  20
ATOM     20  C   UNL     1       9.898  12.574  17.895  0.00  0.00    +0.000 A 
ATOM     21  C   UNL     1      11.243  12.794  17.607  0.00  0.00    +0.000 A 
ATOM     22  C   UNL     1      11.719  14.100  17.518  0.00  0.00    +0.000 A 
ATOM     23  C   UNL     1      10.826  15.142  17.723  0.00  0.00    +0.000 A 
ATOM     24  N   UNL     1       9.514  14.964  17.997  0.00  0.00    +0.000 NA
ATOM     25  C   UNL     1       9.081  13.682  18.075  0.00  0.00    +0.000 A 
ENDBRANCH  19  20
ENDBRANCH  17  18
ENDBRANCH  16  17
ENDBRANCH   9  16
TORSDOF 6
ENDMDL
MODEL 2
REMARK VINA RESULT:      -7.8      0.936      1.009
REMARK  Name = 
REMARK  7 active torsions:
REMARK  status: ('A' for Active; 'I' for Inactive)
REMARK    1  A    between atoms: C_1  and  O_2
REMARK    2  A    between atoms: O_2  and  C_3
REMARK    3  A    between atoms: N_11  and  C_12
REMARK    4  A    between atoms: C_12  and  C_13
REMARK    5  A    between atoms: C_13  and  C_14
REMARK    6  A    between atoms: C_15  and  C_16
REMARK    7  A    between atoms: C_23  and  O_24
REMARK                            x       y       z     vdW  Elec       q    Type
REMARK                         _______ _______ _______ _____ _____    ______ ____
ROOT
ATOM      1  C   UNL     1       2.805   3.544  17.929  0.00  0.00    +0.000 A 
ATOM      2  C   UNL     1       3.561   3.178  19.038  0.00  0.00    +0.000 A 
ATOM      3  C   UNL     1       4.918   3.480  19.085  0.00  0.00    +0.000 A 
ATOM      4  C   UNL     1       5.527   4.181  18.032  0.00  0.00    +0.000 A 
ATOM      5  C   UNL     1       4.754   4.612  16.940  0.00  0.00    +0.000 A 
ATOM      6  C   UNL     1       3.395   4.265  16.893  0.00  0.00    +0.000 A 
ATOM      7  C   UNL     1       5.340   5.488  15.858  0.00  0.00    +0.000 C 
ATOM      8  C   UNL     1       5.818   6.861  16.374  0.00  0.00    +0.000 C 
ATOM      9  N   UNL     1       7.115   6.887  17.099  0.00  0.00    +0.000 NA
ATOM     10  C   UNL     1       7.069   6.101  18.361  0.00  0.00    +0.000 C 
ATOM     11  C   UNL     1       6.969   4.581  18.170  0.00  0.00    +0.000 C 
ENDROOT
BRANCH   1  13
ATOM     12  C   UNL     1       1.081   2.568  19.190  0.00  0.00    +0.000 C 
ATOM     13  O   UNL     1       1.482   3.200  17.977  0.00  0.00    +0.000 OA
ENDBRANCH   1  13
BRANCH  11  14
ATOM     14  O   UNL     1       7.756   4.153  17.058  0.00  0.00    +0.000 OA
ATOM     15  H   UNL     1       7.145   4.159  16.299  0.00  0.00    +0.000 HD
ENDBRANCH  11  14
BRANCH   9  16
ATOM     16  C   UNL     1       7.453   8.301  17.413  0.00  0.00    +0.000 C 
BRANCH  16  17
ATOM     17  C   UNL     1       8.497   8.410  18.520  0.00  0.00    +0.000 C 
BRANCH  17  18
ATOM     18  C   UNL     1       9.073   9.809  18.660  0.00  0.00    +0.000 C 
ATOM     19  C   UNL     1       9.568  11.009  18.781  0.00  0.00    +0.000 C 
BRANCH  19  20
ATOM     20  C   UNL     1      10.116  12.320  18.925  0.00  0.00    +0.000 A 
ATOM     21  C   UNL     1      10.480  12.808  20.178  0.00  0.00    +0.000 A 
ATOM     22  C   UNL     1      10.992  14.099  20.286  0.00  0.00    +0.000 A 
ATOM     23  C   UNL     1      11.119  14.856  19.131  0.00  0.00    +0.000 A 
ATOM     24  N   UNL     1      10.783  14.411  17.899  0.00  0.00    +0.000 NA
ATOM     25  C   UNL     1      10.289  13.150  17.826  0.00  0.00    +0.000 A 
ENDBRANCH  19  20
ENDBRANCH  17  18
ENDBRANCH  16  17
ENDBRANCH   9  16
TORSDOF 6
ENDMDL
MODEL 3
REMARK VINA RESULT:      -7.7      1.826      2.376
REMARK  Name = 
REMARK  7 active torsions:
REMARK  status: ('A' for Active; 'I' for Inactive)
REMARK    1  A    between atoms: C_1  and  O_2
REMARK    2  A    between atoms: O_2  and  C_3
REMARK    3  A    between atoms: N_11  and  C_12
REMARK    4  A    between atoms: C_12  and  C_13
REMARK    5  A    between atoms: C_13  and  C_14
REMARK    6  A    between atoms: C_15  and  C_16
REMARK    7  A    between atoms: C_23  and  O_24
REMARK                            x       y       z     vdW  Elec       q    Type
REMARK                         _______ _______ _______ _____ _____    ______ ____
ROOT
ATOM      1  C   UNL     1       1.963   2.842  19.183  0.00  0.00    +0.000 A 
ATOM      2  C   UNL     1       2.810   1.844  18.710  0.00  0.00    +0.000 A 
ATOM      3  C   UNL     1       3.844   2.166  17.837  0.00  0.00    +0.000 A 
ATOM      4  C   UNL     1       4.059   3.499  17.452  0.00  0.00    +0.000 A 
ATOM      5  C   UNL     1       3.248   4.519  17.978  0.00  0.00    +0.000 A 
ATOM      6  C   UNL     1       2.188   4.170  18.828  0.00  0.00    +0.000 A 
ATOM      7  C   UNL     1       3.536   5.975  17.699  0.00  0.00    +0.000 C 
ATOM      8  C   UNL     1       4.901   6.445  18.243  0.00  0.00    +0.000 C 
ATOM      9  N   UNL     1       6.101   6.056  17.458  0.00  0.00    +0.000 NA
ATOM     10  C   UNL     1       6.295   4.583  17.418  0.00  0.00    +0.000 C 
ATOM     11  C   UNL     1       5.251   3.817  16.593  0.00  0.00    +0.000 C 
ENDROOT
BRANCH   1  13
ATOM     12  C   UNL     1       1.211   2.730  21.406  0.00  0.00    +0.000 C 
ATOM     13  O   UNL     1       0.977   2.424  20.034  0.00  0.00    +0.000 OA
ENDBRANCH   1  13
BRANCH  11  14
ATOM     14  O   UNL     1       4.891   4.549  15.421  0.00  0.00    +0.000 OA
ATOM     15  H   UNL     1       5.727   4.678  14.936  0.00  0.00    +0.000 HD
ENDBRANCH  11  14
BRANCH   9  16
ATOM     16  C   UNL     1       7.296   6.692  18.075  0.00  0.00    +0.000 C 
BRANCH  16  17
ATOM     17  C   UNL     1       7.903   7.766  17.177  0.00  0.00    +0.000 C 
BRANCH  17  18
ATOM     18  C   UNL     1       8.388   8.983  17.947  0.00  0.00    +0.000 C 
ATOM     19  C   UNL     1       8.803  10.027  18.608  0.00  0.00    +0.000 C 
BRANCH  19  20
ATOM     20  C   UNL     1       9.254  11.164  19.345  0.00  0.00    +0.000 A 
ATOM     21  C   UNL     1       9.468  11.087  20.719  0.00  0.00    +0.000 A 
ATOM     22  C   UNL     1       9.887  12.220  21.410  0.00  0.00    +0.000 A 
ATOM     23  C   UNL     1      10.078  13.394  20.697  0.00  0.00    +0.000 A 
ATOM     24  N   UNL     1       9.888  13.502  19.363  0.00  0.00    +0.000 NA
ATOM     25  C   UNL     1       9.481  12.381  18.717  0.00  0.00    +0.000 A 
ENDBRANCH  19  20
ENDBRANCH  17  18
ENDBRANCH  16  17
ENDBRANCH   9  16
TORSDOF 6
ENDMDL
MODEL 4
REMARK VINA RESULT:      -7.7      1.686      2.093
REMARK  Name = 
REMARK  7 active torsions:
REMARK  status: ('A' for Active; 'I' for Inactive)
REMARK    1  A    between atoms: C_1  and  O_2
REMARK    2  A    between atoms: O_2  and  C_3
REMARK    3  A    between atoms: N_11  and  C_12
REMARK    4  A    between atoms: C_12  and  C_13
REMARK    5  A    between atoms: C_13  and  C_14
REMARK    6  A    between atoms: C_15  and  C_16
REMARK    7  A    between atoms: C_23  and  O_24
REMARK                            x       y       z     vdW  Elec       q    Type
REMARK                         _______ _______ _______ _____ _____    ______ ____
ROOT
ATOM      1  C   UNL     1       2.169   4.116  19.346  0.00  0.00    +0.000 A 
ATOM      2  C   UNL     1       2.848   2.923  19.118  0.00  0.00    +0.000 A 
ATOM      3  C   UNL     1       3.819   2.855  18.124  0.00  0.00    +0.000 A 
ATOM      4  C   UNL     1       4.141   3.992  17.366  0.00  0.00    +0.000 A 
ATOM      5  C   UNL     1       3.505   5.216  17.637  0.00  0.00    +0.000 A 
ATOM      6  C   UNL     1       2.503   5.256  18.618  0.00  0.00    +0.000 A 
ATOM      7  C   UNL     1       3.923   6.491  16.941  0.00  0.00    +0.000 C 
ATOM      8  C   UNL     1       5.380   6.902  17.241  0.00  0.00    +0.000 C 
ATOM      9  N   UNL     1       6.445   6.158  16.520  0.00  0.00    +0.000 NA
ATOM     10  C   UNL     1       6.469   4.717  16.884  0.00  0.00    +0.000 C 
ATOM     11  C   UNL     1       5.269   3.903  16.377  0.00  0.00    +0.000 C 
ENDROOT
BRANCH   1  13
ATOM     12  C   UNL     1       1.367   2.982  21.240  0.00  0.00    +0.000 C 
ATOM     13  O   UNL     1       1.232   4.080  20.342  0.00  0.00    +0.000 OA
ENDBRANCH   1  13
BRANCH  11  14
ATOM     14  O   UNL     1       4.877   4.333  15.072  0.00  0.00    +0.000 OA
ATOM     15  H   UNL     1       3.906   4.253  15.061  0.00  0.00    +0.000 HD
ENDBRANCH  11  14
BRANCH   9  16
ATOM     16  C   UNL     1       7.758   6.771  16.855  0.00  0.00    +0.000 C 
BRANCH  16  17
ATOM     17  C   UNL     1       7.784   7.333  18.273  0.00  0.00    +0.000 C 
BRANCH  17  18
ATOM     18  C   UNL     1       8.414   8.714  18.355  0.00  0.00    +0.000 C 
ATOM     19  C   UNL     1       8.953   9.899  18.425  0.00  0.00    +0.000 C 
BRANCH  19  20
ATOM     20  C   UNL     1       9.538  11.200  18.489  0.00  0.00    +0.000 A 
ATOM     21  C   UNL     1       8.975  12.271  17.800  0.00  0.00    +0.000 A 
ATOM     22  C   UNL     1       9.583  13.522  17.866  0.00  0.00    +0.000 A 
ATOM     23  C   UNL     1      10.737  13.654  18.624  0.00  0.00    +0.000 A 
ATOM     24  N   UNL     1      11.305  12.638  19.311  0.00  0.00    +0.000 NA
ATOM     25  C   UNL     1      10.690  11.433  19.228  0.00  0.00    +0.000 A 
ENDBRANCH  19  20
ENDBRANCH  17  18
ENDBRANCH  16  17
ENDBRANCH   9  16
TORSDOF 6
ENDMDL
MODEL 5
REMARK VINA RESULT:      -7.7      5.656      7.787
REMARK  Name = 
REMARK  7 active torsions:
REMARK  status: ('A' for Active; 'I' for Inactive)
REMARK    1  A    between atoms: C_1  and  O_2
REMARK    2  A    between atoms: O_2  and  C_3
REMARK    3  A    between atoms: N_11  and  C_12
REMARK    4  A    between atoms: C_12  and  C_13
REMARK    5  A    between atoms: C_13  and  C_14
REMARK    6  A    between atoms: C_15  and  C_16
REMARK    7  A    between atoms: C_23  and  O_24
REMARK                            x       y       z     vdW  Elec       q    Type
REMARK                         _______ _______ _______ _____ _____    ______ ____
ROOT
ATOM      1  C   UNL     1       7.140   5.003  14.982  0.00  0.00    +0.000 A 
ATOM      2  C   UNL     1       6.060   4.416  14.329  0.00  0.00    +0.000 A 
ATOM      3  C   UNL     1       5.055   3.797  15.064  0.00  0.00    +0.000 A 
ATOM      4  C   UNL     1       5.106   3.785  16.468  0.00  0.00    +0.000 A 
ATOM      5  C   UNL     1       6.160   4.433  17.135  0.00  0.00    +0.000 A 
ATOM      6  C   UNL     1       7.183   5.020  16.374  0.00  0.00    +0.000 A 
ATOM      7  C   UNL     1       6.177   4.564  18.639  0.00  0.00    +0.000 C 
ATOM      8  C   UNL     1       4.995   5.385  19.196  0.00  0.00    +0.000 C 
ATOM      9  N   UNL     1       3.680   4.697  19.269  0.00  0.00    +0.000 NA
ATOM     10  C   UNL     1       3.166   4.322  17.925  0.00  0.00    +0.000 C 
ATOM     11  C   UNL     1       3.948   3.200  17.226  0.00  0.00    +0.000 C 
ENDROOT
BRANCH   1  13
ATOM     12  C   UNL     1       7.920   5.288  12.785  0.00  0.00    +0.000 C 
ATOM     13  O   UNL     1       8.075   5.583  14.170  0.00  0.00    +0.000 OA
ENDBRANCH   1  13
BRANCH  11  14
ATOM     14  O   UNL     1       4.365   2.208  18.165  0.00  0.00    +0.000 OA
ATOM     15  H   UNL     1       5.168   1.815  17.778  0.00  0.00    +0.000 HD
ENDBRANCH  11  14
BRANCH   9  16
ATOM     16  C   UNL     1       2.707   5.608  19.930  0.00  0.00    +0.000 C 
BRANCH  16  17
ATOM     17  C   UNL     1       2.647   6.973  19.252  0.00  0.00    +0.000 C 
BRANCH  17  18
ATOM     18  C   UNL     1       1.782   7.973  20.002  0.00  0.00    +0.000 C 
ATOM     19  C   UNL     1       1.041   8.831  20.645  0.00  0.00    +0.000 C 
BRANCH  19  20
ATOM     20  C   UNL     1       0.239   9.781  21.347  0.00  0.00    +0.000 A 
ATOM     21  C   UNL     1      -0.419  10.803  20.665  0.00  0.00    +0.000 A 
ATOM     22  C   UNL     1      -1.176  11.726  21.383  0.00  0.00    +0.000 A 
ATOM     23  C   UNL     1      -1.247  11.591  22.761  0.00  0.00    +0.000 A 
ATOM     24  N   UNL     1      -0.629  10.607  23.452  0.00  0.00    +0.000 NA
ATOM     25  C   UNL     1       0.100   9.724  22.727  0.00  0.00    +0.000 A 
ENDBRANCH  19  20
ENDBRANCH  17  18
ENDBRANCH  16  17
ENDBRANCH   9  16
TORSDOF 6
ENDMDL
MODEL 6
REMARK VINA RESULT:      -7.6      1.496      1.747
REMARK  Name = 
REMARK  7 active torsions:
REMARK  status: ('A' for Active; 'I' for Inactive)
REMARK    1  A    between atoms: C_1  and  O_2
REMARK    2  A    between atoms: O_2  and  C_3
REMARK    3  A    between atoms: N_11  and  C_12
REMARK    4  A    between atoms: C_12  and  C_13
REMARK    5  A    between atoms: C_13  and  C_14
REMARK    6  A    between atoms: C_15  and  C_16
REMARK    7  A    between atoms: C_23  and  O_24
REMARK                            x       y       z     vdW  Elec       q    Type
REMARK                         _______ _______ _______ _____ _____    ______ ____
ROOT
ATOM      1  C   UNL     1       2.434   3.669  19.059  0.00  0.00    +0.000 A 
ATOM      2  C   UNL     1       3.142   2.552  18.625  0.00  0.00    +0.000 A 
ATOM      3  C   UNL     1       4.085   2.678  17.610  0.00  0.00    +0.000 A 
ATOM      4  C   UNL     1       4.352   3.932  17.039  0.00  0.00    +0.000 A 
ATOM      5  C   UNL     1       3.688   5.075  17.520  0.00  0.00    +0.000 A 
ATOM      6  C   UNL     1       2.714   4.922  18.518  0.00  0.00    +0.000 A 
ATOM      7  C   UNL     1       4.047   6.458  17.030  0.00  0.00    +0.000 C 
ATOM      8  C   UNL     1       5.499   6.864  17.358  0.00  0.00    +0.000 C 
ATOM      9  N   UNL     1       6.565   6.283  16.501  0.00  0.00    +0.000 NA
ATOM     10  C   UNL     1       6.642   4.803  16.626  0.00  0.00    +0.000 C 
ATOM     11  C   UNL     1       5.452   4.042  16.022  0.00  0.00    +0.000 C 
ENDROOT
BRANCH   1  13
ATOM     12  C   UNL     1       1.958   3.858  21.351  0.00  0.00    +0.000 C 
ATOM     13  O   UNL     1       1.529   3.441  20.058  0.00  0.00    +0.000 OA
ENDBRANCH   1  13
BRANCH  11  14
ATOM     14  O   UNL     1       5.010   4.663  14.814  0.00  0.00    +0.000 OA
ATOM     15  H   UNL     1       4.050   4.502  14.784  0.00  0.00    +0.000 HD
ENDBRANCH  11  14
BRANCH   9  16
ATOM     16  C   UNL     1       7.869   6.878  16.899  0.00  0.00    +0.000 C 
BRANCH  16  17
ATOM     17  C   UNL     1       7.770   7.652  18.210  0.00  0.00    +0.000 C 
BRANCH  17  18
ATOM     18  C   UNL     1       8.389   9.037  18.132  0.00  0.00    +0.000 C 
ATOM     19  C   UNL     1       8.920  10.226  18.065  0.00  0.00    +0.000 C 
BRANCH  19  20
ATOM     20  C   UNL     1       9.509  11.524  17.979  0.00  0.00    +0.000 A 
ATOM     21  C   UNL     1      10.887  11.676  17.847  0.00  0.00    +0.000 A 
ATOM     22  C   UNL     1      11.431  12.957  17.788  0.00  0.00    +0.000 A 
ATOM     23  C   UNL     1      10.570  14.042  17.864  0.00  0.00    +0.000 A 
ATOM     24  N   UNL     1       9.229  13.930  17.984  0.00  0.00    +0.000 NA
ATOM     25  C   UNL     1       8.729  12.671  18.038  0.00  0.00    +0.000 A 
ENDBRANCH  19  20
ENDBRANCH  17  18
ENDBRANCH  16  17
ENDBRANCH   9  16
TORSDOF 6
ENDMDL
MODEL 7
REMARK VINA RESULT:      -7.5      5.414      7.790
REMARK  Name = 
REMARK  7 active torsions:
REMARK  status: ('A' for Active; 'I' for Inactive)
REMARK    1  A    between atoms: C_1  and  O_2
REMARK    2  A    between atoms: O_2  and  C_3
REMARK    3  A    between atoms: N_11  and  C_12
REMARK    4  A    between atoms: C_12  and  C_13
REMARK    5  A    between atoms: C_13  and  C_14
REMARK    6  A    between atoms: C_15  and  C_16
REMARK    7  A    between atoms: C_23  and  O_24
REMARK                            x       y       z     vdW  Elec       q    Type
REMARK                         _______ _______ _______ _____ _____    ______ ____
ROOT
ATOM      1  C   UNL     1       7.195   5.031  14.824  0.00  0.00    +0.000 A 
ATOM      2  C   UNL     1       6.321   4.106  14.260  0.00  0.00    +0.000 A 
ATOM      3  C   UNL     1       5.356   3.490  15.050  0.00  0.00    +0.000 A 
ATOM      4  C   UNL     1       5.235   3.818  16.410  0.00  0.00    +0.000 A 
ATOM      5  C   UNL     1       6.071   4.800  16.970  0.00  0.00    +0.000 A 
ATOM      6  C   UNL     1       7.063   5.382  16.166  0.00  0.00    +0.000 A 
ATOM      7  C   UNL     1       5.880   5.280  18.389  0.00  0.00    +0.000 C 
ATOM      8  C   UNL     1       4.515   5.959  18.626  0.00  0.00    +0.000 C 
ATOM      9  N   UNL     1       3.340   5.062  18.771  0.00  0.00    +0.000 NA
ATOM     10  C   UNL     1       3.068   4.288  17.531  0.00  0.00    +0.000 C 
ATOM     11  C   UNL     1       4.111   3.210  17.201  0.00  0.00    +0.000 C 
ENDROOT
BRANCH   1  13
ATOM     12  C   UNL     1       7.850   5.325  12.588  0.00  0.00    +0.000 C 
ATOM     13  O   UNL     1       8.109   5.578  13.967  0.00  0.00    +0.000 OA
ENDBRANCH   1  13
BRANCH  11  14
ATOM     14  O   UNL     1       4.574   2.569  18.390  0.00  0.00    +0.000 OA
ATOM     15  H   UNL     1       3.985   2.890  19.097  0.00  0.00    +0.000 HD
ENDBRANCH  11  14
BRANCH   9  16
ATOM     16  C   UNL     1       2.150   5.891  19.103  0.00  0.00    +0.000 C 
BRANCH  16  17
ATOM     17  C   UNL     1       1.929   5.999  20.609  0.00  0.00    +0.000 C 
BRANCH  17  18
ATOM     18  C   UNL     1       1.336   7.334  21.029  0.00  0.00    +0.000 C 
ATOM     19  C   UNL     1       0.827   8.479  21.390  0.00  0.00    +0.000 C 
BRANCH  19  20
ATOM     20  C   UNL     1       0.280   9.734  21.794  0.00  0.00    +0.000 A 
ATOM     21  C   UNL     1      -0.677   9.805  22.804  0.00  0.00    +0.000 A 
ATOM     22  C   UNL     1      -1.205  11.044  23.159  0.00  0.00    +0.000 A 
ATOM     23  C   UNL     1      -0.754  12.170  22.487  0.00  0.00    +0.000 A 
ATOM     24  N   UNL     1       0.178  12.138  21.508  0.00  0.00    +0.000 NA
ATOM     25  C   UNL     1       0.674  10.918  21.186  0.00  0.00    +0.000 A 
ENDBRANCH  19  20
ENDBRANCH  17  18
ENDBRANCH  16  17
ENDBRANCH   9  16
TORSDOF 6
ENDMDL
MODEL 8
REMARK VINA RESULT:      -7.3      1.651      1.815
REMARK  Name = 
REMARK  7 active torsions:
REMARK  status: ('A' for Active; 'I' for Inactive)
REMARK    1  A    between atoms: C_1  and  O_2
REMARK    2  A    between atoms: O_2  and  C_3
REMARK    3  A    between atoms: N_11  and  C_12
REMARK    4  A    between atoms: C_12  and  C_13
REMARK    5  A    between atoms: C_13  and  C_14
REMARK    6  A    between atoms: C_15  and  C_16
REMARK    7  A    between atoms: C_23  and  O_24
REMARK                            x       y       z     vdW  Elec       q    Type
REMARK                         _______ _______ _______ _____ _____    ______ ____
ROOT
ATOM      1  C   UNL     1       2.590   4.357  19.235  0.00  0.00    +0.000 A 
ATOM      2  C   UNL     1       3.580   3.580  19.830  0.00  0.00    +0.000 A 
ATOM      3  C   UNL     1       4.858   3.542  19.280  0.00  0.00    +0.000 A 
ATOM      4  C   UNL     1       5.166   4.306  18.144  0.00  0.00    +0.000 A 
ATOM      5  C   UNL     1       4.188   5.143  17.578  0.00  0.00    +0.000 A 
ATOM      6  C   UNL     1       2.896   5.140  18.124  0.00  0.00    +0.000 A 
ATOM      7  C   UNL     1       4.519   6.084  16.443  0.00  0.00    +0.000 C 
ATOM      8  C   UNL     1       5.566   7.153  16.821  0.00  0.00    +0.000 C 
ATOM      9  N   UNL     1       6.984   6.711  16.869  0.00  0.00    +0.000 NA
ATOM     10  C   UNL     1       7.218   5.689  17.924  0.00  0.00    +0.000 C 
ATOM     11  C   UNL     1       6.584   4.319  17.646  0.00  0.00    +0.000 C 
ENDROOT
BRANCH   1  13
ATOM     12  C   UNL     1       1.252   3.353  20.883  0.00  0.00    +0.000 C 
ATOM     13  O   UNL     1       1.368   4.326  19.848  0.00  0.00    +0.000 OA
ENDBRANCH   1  13
BRANCH  11  14
ATOM     14  O   UNL     1       6.671   3.988  16.259  0.00  0.00    +0.000 OA
ATOM     15  H   UNL     1       7.109   3.118  16.234  0.00  0.00    +0.000 HD
ENDBRANCH  11  14
BRANCH   9  16
ATOM     16  C   UNL     1       7.839   7.898  17.137  0.00  0.00    +0.000 C 
BRANCH  16  17
ATOM     17  C   UNL     1       8.289   7.965  18.593  0.00  0.00    +0.000 C 
BRANCH  17  18
ATOM     18  C   UNL     1       8.872   9.316  18.975  0.00  0.00    +0.000 C 
ATOM     19  C   UNL     1       9.371  10.475  19.302  0.00  0.00    +0.000 C 
BRANCH  19  20
ATOM     20  C   UNL     1       9.906  11.750  19.658  0.00  0.00    +0.000 A 
ATOM     21  C   UNL     1       9.688  12.288  20.924  0.00  0.00    +0.000 A 
ATOM     22  C   UNL     1      10.205  13.544  21.231  0.00  0.00    +0.000 A 
ATOM     23  C   UNL     1      10.926  14.217  20.256  0.00  0.00    +0.000 A 
ATOM     24  N   UNL     1      11.163  13.721  19.021  0.00  0.00    +0.000 NA
ATOM     25  C   UNL     1      10.647  12.496  18.752  0.00  0.00    +0.000 A 
ENDBRANCH  19  20
ENDBRANCH  17  18
ENDBRANCH  16  17
ENDBRANCH   9  16
TORSDOF 6
ENDMDL
MODEL 9
REMARK VINA RESULT:      -7.3      3.725      4.430
REMARK  Name = 
REMARK  7 active torsions:
REMARK  status: ('A' for Active; 'I' for Inactive)
REMARK    1  A    between atoms: C_1  and  O_2
REMARK    2  A    between atoms: O_2  and  C_3
REMARK    3  A    between atoms: N_11  and  C_12
REMARK    4  A    between atoms: C_12  and  C_13
REMARK    5  A    between atoms: C_13  and  C_14
REMARK    6  A    between atoms: C_15  and  C_16
REMARK    7  A    between atoms: C_23  and  O_24
REMARK                            x       y       z     vdW  Elec       q    Type
REMARK                         _______ _______ _______ _____ _____    ______ ____
ROOT
ATOM      1  C   UNL     1       1.167   9.470  19.362  0.00  0.00    +0.000 A 
ATOM      2  C   UNL     1       1.114   8.678  20.505  0.00  0.00    +0.000 A 
ATOM      3  C   UNL     1       1.700   7.416  20.504  0.00  0.00    +0.000 A 
ATOM      4  C   UNL     1       2.374   6.947  19.365  0.00  0.00    +0.000 A 
ATOM      5  C   UNL     1       2.488   7.769  18.231  0.00  0.00    +0.000 A 
ATOM      6  C   UNL     1       1.858   9.023  18.238  0.00  0.00    +0.000 A 
ATOM      7  C   UNL     1       3.321   7.357  17.041  0.00  0.00    +0.000 C 
ATOM      8  C   UNL     1       4.819   7.190  17.372  0.00  0.00    +0.000 C 
ATOM      9  N   UNL     1       5.212   5.944  18.079  0.00  0.00    +0.000 NA
ATOM     10  C   UNL     1       4.603   5.850  19.433  0.00  0.00    +0.000 C 
ATOM     11  C   UNL     1       3.084   5.624  19.442  0.00  0.00    +0.000 C 
ENDROOT
BRANCH   1  13
ATOM     12  C   UNL     1      -0.570  10.861  18.610  0.00  0.00    +0.000 C 
ATOM     13  O   UNL     1       0.560  10.691  19.463  0.00  0.00    +0.000 OA
ENDBRANCH   1  13
BRANCH  11  14
ATOM     14  O   UNL     1       2.694   4.741  18.390  0.00  0.00    +0.000 OA
ATOM     15  H   UNL     1       1.727   4.657  18.476  0.00  0.00    +0.000 HD
ENDBRANCH  11  14
BRANCH   9  16
ATOM     16  C   UNL     1       6.694   5.919  18.205  0.00  0.00    +0.000 C 
BRANCH  16  17
ATOM     17  C   UNL     1       7.373   6.800  17.161  0.00  0.00    +0.000 C 
BRANCH  17  18
ATOM     18  C   UNL     1       8.017   8.041  17.758  0.00  0.00    +0.000 C 
ATOM     19  C   UNL     1       8.570   9.106  18.269  0.00  0.00    +0.000 C 
BRANCH  19  20
ATOM     20  C   UNL     1       9.165  10.279  18.823  0.00  0.00    +0.000 A 
ATOM     21  C   UNL     1       9.237  10.461  20.202  0.00  0.00    +0.000 A 
ATOM     22  C   UNL     1       9.804  11.628  20.709  0.00  0.00    +0.000 A 
ATOM     23  C   UNL     1      10.280  12.572  19.812  0.00  0.00    +0.000 A 
ATOM     24  N   UNL     1      10.233  12.425  18.469  0.00  0.00    +0.000 NA
ATOM     25  C   UNL     1       9.676  11.279  18.006  0.00  0.00    +0.000 A 
ENDBRANCH  19  20
ENDBRANCH  17  18
ENDBRANCH  16  17
ENDBRANCH   9  16
TORSDOF 6
ENDMDL
