MODEL 1
REMARK VINA RESULT:      -7.4      0.000      0.000
REMARK  Name = 
REMARK  9 active torsions:
REMARK  status: ('A' for Active; 'I' for Inactive)
REMARK    1  A    between atoms: C_1  and  C_2
REMARK    2  A    between atoms: C_5  and  C_6
REMARK    3  A    between atoms: C_6  and  N_7
REMARK    4  A    between atoms: N_7  and  C_8
REMARK    5  A    between atoms: N_7  and  C_9
REMARK    6  A    between atoms: C_9  and  C_10
REMARK    7  A    between atoms: N_13  and  C_14
REMARK    8  A    between atoms: C_15  and  C_16
REMARK    9  A    between atoms: C_15  and  C_17
REMARK                            x       y       z     vdW  Elec       q    Type
REMARK                         _______ _______ _______ _____ _____    ______ ____
ROOT
ATOM      1  N   UNL     1       5.744   5.717  18.075  0.00  0.00    +0.000 NA
ATOM      2  C   UNL     1       4.940   6.415  17.071  0.00  0.00    +0.000 C 
ENDROOT
BRANCH   1   3
ATOM      3  C   UNL     1       6.589   4.673  17.451  0.00  0.00    +0.000 C 
BRANCH   3   8
ATOM      4  C   UNL     1       6.156   3.542  12.765  0.00  0.00    +0.000 C 
ATOM      5  C   UNL     1       6.639   4.301  13.930  0.00  0.00    +0.000 A 
ATOM      6  N   UNL     1       7.481   5.311  13.988  0.00  0.00    +0.000 NA
ATOM      7  N   UNL     1       7.600   5.641  15.324  0.00  0.00    +0.000 NA
ATOM      8  C   UNL     1       6.828   4.804  15.984  0.00  0.00    +0.000 A 
ATOM      9  O   UNL     1       6.176   3.922  15.161  0.00  0.00    +0.000 OA
ENDBRANCH   3   8
ENDBRANCH   1   3
BRANCH   1  10
ATOM     10  C   UNL     1       4.915   5.236  19.203  0.00  0.00    +0.000 C 
BRANCH  10  11
ATOM     11  C   UNL     1       3.992   4.061  18.816  0.00  0.00    +0.000 C 
ATOM     12  C   UNL     1       4.340   2.775  19.561  0.00  0.00    +0.000 C 
ATOM     13  C   UNL     1       3.118   1.922  19.307  0.00  0.00    +0.000 C 
ATOM     14  N   UNL     1       2.005   2.859  19.456  0.00  0.00    +0.000 NA
ATOM     15  C   UNL     1       0.783   2.349  18.856  0.00  0.00    +0.000 C 
ATOM     16  C   UNL     1       2.459   4.221  19.067  0.00  0.00    +0.000 C 
ATOM     17  C   UNL     1       2.122   5.124  20.268  0.00  0.00    +0.000 C 
ATOM     18  C   UNL     1       1.782   4.814  17.815  0.00  0.00    +0.000 C 
ENDBRANCH  10  11
ENDBRANCH   1  10
TORSDOF 4
ENDMDL
MODEL 2
REMARK VINA RESULT:      -7.3      1.087      1.691
REMARK  Name = 
REMARK  9 active torsions:
REMARK  status: ('A' for Active; 'I' for Inactive)
REMARK    1  A    between atoms: C_1  and  C_2
REMARK    2  A    between atoms: C_5  and  C_6
REMARK    3  A    between atoms: C_6  and  N_7
REMARK    4  A    between atoms: N_7  and  C_8
REMARK    5  A    between atoms: N_7  and  C_9
REMARK    6  A    between atoms: C_9  and  C_10
REMARK    7  A    between atoms: N_13  and  C_14
REMARK    8  A    between atoms: C_15  and  C_16
REMARK    9  A    between atoms: C_15  and  C_17
REMARK                            x       y       z     vdW  Elec       q    Type
REMARK                         _______ _______ _______ _____ _____    ______ ____
ROOT
ATOM      1  N   UNL     1       5.248   5.400  18.621  0.00  0.00    +0.000 NA
ATOM      2  C   UNL     1       6.511   5.398  19.360  0.00  0.00    +0.000 C 
ENDROOT
BRANCH   1   3
ATOM      3  C   UNL     1       5.314   6.310  17.454  0.00  0.00    +0.000 C 
BRANCH   3   8
ATOM      4  C   UNL     1       6.133   3.742  13.435  0.00  0.00    +0.000 C 
ATOM      5  C   UNL     1       6.445   4.689  14.517  0.00  0.00    +0.000 A 
ATOM      6  N   UNL     1       7.558   5.347  14.766  0.00  0.00    +0.000 NA
ATOM      7  N   UNL     1       7.324   6.088  15.907  0.00  0.00    +0.000 NA
ATOM      8  C   UNL     1       6.089   5.822  16.277  0.00  0.00    +0.000 A 
ATOM      9  O   UNL     1       5.461   4.941  15.434  0.00  0.00    +0.000 OA
ENDBRANCH   3   8
ENDBRANCH   1   3
BRANCH   1  10
ATOM     10  C   UNL     1       4.091   5.636  19.513  0.00  0.00    +0.000 C 
BRANCH  10  11
ATOM     11  C   UNL     1       3.254   4.363  19.765  0.00  0.00    +0.000 C 
ATOM     12  C   UNL     1       2.311   4.510  20.957  0.00  0.00    +0.000 C 
ATOM     13  C   UNL     1       1.380   3.334  20.770  0.00  0.00    +0.000 C 
ATOM     14  N   UNL     1       1.127   3.319  19.329  0.00  0.00    +0.000 NA
ATOM     15  C   UNL     1       0.597   2.040  18.886  0.00  0.00    +0.000 C 
ATOM     16  C   UNL     1       2.315   3.866  18.620  0.00  0.00    +0.000 C 
ATOM     17  C   UNL     1       1.774   5.001  17.730  0.00  0.00    +0.000 C 
ATOM     18  C   UNL     1       3.069   2.868  17.719  0.00  0.00    +0.000 C 
ENDBRANCH  10  11
ENDBRANCH   1  10
TORSDOF 4
ENDMDL
MODEL 3
REMARK VINA RESULT:      -7.2      1.015      1.917
REMARK  Name = 
REMARK  9 active torsions:
REMARK  status: ('A' for Active; 'I' for Inactive)
REMARK    1  A    between atoms: C_1  and  C_2
REMARK    2  A    between atoms: C_5  and  C_6
REMARK    3  A    between atoms: C_6  and  N_7
REMARK    4  A    between atoms: N_7  and  C_8
REMARK    5  A    between atoms: N_7  and  C_9
REMARK    6  A    between atoms: C_9  and  C_10
REMARK    7  A    between atoms: N_13  and  C_14
REMARK    8  A    between atoms: C_15  and  C_16
REMARK    9  A    between atoms: C_15  and  C_17
REMARK                            x       y       z     vdW  Elec       q    Type
REMARK                         _______ _______ _______ _____ _____    ______ ____
ROOT
ATOM      1  N   UNL     1       5.583   5.511  17.785  0.00  0.00    +0.000 NA
ATOM      2  C   UNL     1       5.717   6.857  17.227  0.00  0.00    +0.000 C 
ENDROOT
BRANCH   1   3
ATOM      3  C   UNL     1       6.582   4.588  17.199  0.00  0.00    +0.000 C 
BRANCH   3   8
ATOM      4  C   UNL     1       5.912   3.427  12.548  0.00  0.00    +0.000 C 
ATOM      5  C   UNL     1       6.488   4.163  13.685  0.00  0.00    +0.000 A 
ATOM      6  N   UNL     1       7.407   5.107  13.700  0.00  0.00    +0.000 NA
ATOM      7  N   UNL     1       7.593   5.446  15.025  0.00  0.00    +0.000 NA
ATOM      8  C   UNL     1       6.782   4.680  15.723  0.00  0.00    +0.000 A 
ATOM      9  O   UNL     1       6.038   3.838  14.936  0.00  0.00    +0.000 OA
ENDBRANCH   3   8
ENDBRANCH   1   3
BRANCH   1  10
ATOM     10  C   UNL     1       4.186   5.024  17.711  0.00  0.00    +0.000 C 
BRANCH  10  11
ATOM     11  C   UNL     1       3.570   4.748  19.099  0.00  0.00    +0.000 C 
ATOM     12  C   UNL     1       2.435   5.712  19.436  0.00  0.00    +0.000 C 
ATOM     13  C   UNL     1       1.780   5.030  20.616  0.00  0.00    +0.000 C 
ATOM     14  N   UNL     1       1.772   3.617  20.236  0.00  0.00    +0.000 NA
ATOM     15  C   UNL     1       1.567   2.749  21.385  0.00  0.00    +0.000 C 
ATOM     16  C   UNL     1       2.937   3.342  19.353  0.00  0.00    +0.000 C 
ATOM     17  C   UNL     1       2.348   2.694  18.087  0.00  0.00    +0.000 C 
ATOM     18  C   UNL     1       3.999   2.387  19.932  0.00  0.00    +0.000 C 
ENDBRANCH  10  11
ENDBRANCH   1  10
TORSDOF 4
ENDMDL
MODEL 4
REMARK VINA RESULT:      -7.2      1.101      2.078
REMARK  Name = 
REMARK  9 active torsions:
REMARK  status: ('A' for Active; 'I' for Inactive)
REMARK    1  A    between atoms: C_1  and  C_2
REMARK    2  A    between atoms: C_5  and  C_6
REMARK    3  A    between atoms: C_6  and  N_7
REMARK    4  A    between atoms: N_7  and  C_8
REMARK    5  A    between atoms: N_7  and  C_9
REMARK    6  A    between atoms: C_9  and  C_10
REMARK    7  A    between atoms: N_13  and  C_14
REMARK    8  A    between atoms: C_15  and  C_16
REMARK    9  A    between atoms: C_15  and  C_17
REMARK                            x       y       z     vdW  Elec       q    Type
REMARK                         _______ _______ _______ _____ _____    ______ ____
ROOT
ATOM      1  N   UNL     1       6.831   5.099  18.640  0.00  0.00    +0.000 NA
ATOM      2  C   UNL     1       7.692   6.204  19.061  0.00  0.00    +0.000 C 
ENDROOT
BRANCH   1   3
ATOM      3  C   UNL     1       7.493   4.270  17.605  0.00  0.00    +0.000 C 
BRANCH   3   8
ATOM      4  C   UNL     1       5.695   3.646  13.155  0.00  0.00    +0.000 C 
ATOM      5  C   UNL     1       6.413   4.344  14.235  0.00  0.00    +0.000 A 
ATOM      6  N   UNL     1       7.050   5.496  14.215  0.00  0.00    +0.000 NA
ATOM      7  N   UNL     1       7.557   5.681  15.486  0.00  0.00    +0.000 NA
ATOM      8  C   UNL     1       7.199   4.625  16.187  0.00  0.00    +0.000 A 
ATOM      9  O   UNL     1       6.459   3.730  15.457  0.00  0.00    +0.000 OA
ENDBRANCH   3   8
ENDBRANCH   1   3
BRANCH   1  10
ATOM     10  C   UNL     1       5.477   5.569  18.270  0.00  0.00    +0.000 C 
BRANCH  10  11
ATOM     11  C   UNL     1       4.386   5.105  19.260  0.00  0.00    +0.000 C 
ATOM     12  C   UNL     1       3.228   6.095  19.358  0.00  0.00    +0.000 C 
ATOM     13  C   UNL     1       2.170   5.275  20.061  0.00  0.00    +0.000 C 
ATOM     14  N   UNL     1       2.273   3.962  19.426  0.00  0.00    +0.000 NA
ATOM     15  C   UNL     1       1.641   2.923  20.224  0.00  0.00    +0.000 C 
ATOM     16  C   UNL     1       3.675   3.743  18.980  0.00  0.00    +0.000 C 
ATOM     17  C   UNL     1       3.580   3.393  17.484  0.00  0.00    +0.000 C 
ATOM     18  C   UNL     1       4.428   2.603  19.694  0.00  0.00    +0.000 C 
ENDBRANCH  10  11
ENDBRANCH   1  10
TORSDOF 4
ENDMDL
MODEL 5
REMARK VINA RESULT:      -7.1      1.017      1.133
REMARK  Name = 
REMARK  9 active torsions:
REMARK  status: ('A' for Active; 'I' for Inactive)
REMARK    1  A    between atoms: C_1  and  C_2
REMARK    2  A    between atoms: C_5  and  C_6
REMARK    3  A    between atoms: C_6  and  N_7
REMARK    4  A    between atoms: N_7  and  C_8
REMARK    5  A    between atoms: N_7  and  C_9
REMARK    6  A    between atoms: C_9  and  C_10
REMARK    7  A    between atoms: N_13  and  C_14
REMARK    8  A    between atoms: C_15  and  C_16
REMARK    9  A    between atoms: C_15  and  C_17
REMARK                            x       y       z     vdW  Elec       q    Type
REMARK                         _______ _______ _______ _____ _____    ______ ____
ROOT
ATOM      1  N   UNL     1       6.367   4.541  18.364  0.00  0.00    +0.000 NA
ATOM      2  C   UNL     1       6.602   5.676  19.257  0.00  0.00    +0.000 C 
ENDROOT
BRANCH   1   3
ATOM      3  C   UNL     1       7.508   4.341  17.442  0.00  0.00    +0.000 C 
BRANCH   3   8
ATOM      4  C   UNL     1       5.943   3.527  12.935  0.00  0.00    +0.000 C 
ATOM      5  C   UNL     1       6.574   4.285  14.027  0.00  0.00    +0.000 A 
ATOM      6  N   UNL     1       7.150   5.470  14.008  0.00  0.00    +0.000 NA
ATOM      7  N   UNL     1       7.590   5.708  15.295  0.00  0.00    +0.000 NA
ATOM      8  C   UNL     1       7.258   4.650  16.004  0.00  0.00    +0.000 A 
ATOM      9  O   UNL     1       6.600   3.700  15.265  0.00  0.00    +0.000 OA
ENDBRANCH   3   8
ENDBRANCH   1   3
BRANCH   1  10
ATOM     10  C   UNL     1       5.050   4.635  17.693  0.00  0.00    +0.000 C 
BRANCH  10  11
ATOM     11  C   UNL     1       3.964   3.773  18.372  0.00  0.00    +0.000 C 
ATOM     12  C   UNL     1       4.482   3.055  19.617  0.00  0.00    +0.000 C 
ATOM     13  C   UNL     1       3.199   2.607  20.279  0.00  0.00    +0.000 C 
ATOM     14  N   UNL     1       2.309   3.757  20.122  0.00  0.00    +0.000 NA
ATOM     15  C   UNL     1       0.915   3.393  20.318  0.00  0.00    +0.000 C 
ATOM     16  C   UNL     1       2.672   4.488  18.879  0.00  0.00    +0.000 C 
ATOM     17  C   UNL     1       2.905   5.947  19.314  0.00  0.00    +0.000 C 
ATOM     18  C   UNL     1       1.601   4.484  17.770  0.00  0.00    +0.000 C 
ENDBRANCH  10  11
ENDBRANCH   1  10
TORSDOF 4
ENDMDL
MODEL 6
REMARK VINA RESULT:      -7.0      1.065      1.326
REMARK  Name = 
REMARK  9 active torsions:
REMARK  status: ('A' for Active; 'I' for Inactive)
REMARK    1  A    between atoms: C_1  and  C_2
REMARK    2  A    between atoms: C_5  and  C_6
REMARK    3  A    between atoms: C_6  and  N_7
REMARK    4  A    between atoms: N_7  and  C_8
REMARK    5  A    between atoms: N_7  and  C_9
REMARK    6  A    between atoms: C_9  and  C_10
REMARK    7  A    between atoms: N_13  and  C_14
REMARK    8  A    between atoms: C_15  and  C_16
REMARK    9  A    between atoms: C_15  and  C_17
REMARK                            x       y       z     vdW  Elec       q    Type
REMARK                         _______ _______ _______ _____ _____    ______ ____
ROOT
ATOM      1  N   UNL     1       5.065   4.734  17.483  0.00  0.00    +0.000 NA
ATOM      2  C   UNL     1       4.748   6.081  17.005  0.00  0.00    +0.000 C 
ENDROOT
BRANCH   1   3
ATOM      3  C   UNL     1       6.397   4.297  17.004  0.00  0.00    +0.000 C 
BRANCH   3   8
ATOM      4  C   UNL     1       6.238   3.398  12.251  0.00  0.00    +0.000 C 
ATOM      5  C   UNL     1       6.618   4.122  13.475  0.00  0.00    +0.000 A 
ATOM      6  N   UNL     1       7.386   5.182  13.623  0.00  0.00    +0.000 NA
ATOM      7  N   UNL     1       7.426   5.445  14.978  0.00  0.00    +0.000 NA
ATOM      8  C   UNL     1       6.686   4.524  15.558  0.00  0.00    +0.000 A 
ATOM      9  O   UNL     1       6.132   3.646  14.662  0.00  0.00    +0.000 OA
ENDBRANCH   3   8
ENDBRANCH   1   3
BRANCH   1  10
ATOM     10  C   UNL     1       3.971   3.779  17.197  0.00  0.00    +0.000 C 
BRANCH  10  11
ATOM     11  C   UNL     1       3.509   2.999  18.446  0.00  0.00    +0.000 C 
ATOM     12  C   UNL     1       4.562   2.991  19.552  0.00  0.00    +0.000 C 
ATOM     13  C   UNL     1       3.765   2.517  20.745  0.00  0.00    +0.000 C 
ATOM     14  N   UNL     1       2.496   3.233  20.619  0.00  0.00    +0.000 NA
ATOM     15  C   UNL     1       1.446   2.621  21.418  0.00  0.00    +0.000 C 
ATOM     16  C   UNL     1       2.219   3.486  19.179  0.00  0.00    +0.000 C 
ATOM     17  C   UNL     1       1.982   5.003  19.067  0.00  0.00    +0.000 C 
ATOM     18  C   UNL     1       0.985   2.763  18.603  0.00  0.00    +0.000 C 
ENDBRANCH  10  11
ENDBRANCH   1  10
TORSDOF 4
ENDMDL
MODEL 7
REMARK VINA RESULT:      -7.0      1.043      1.715
REMARK  Name = 
REMARK  9 active torsions:
REMARK  status: ('A' for Active; 'I' for Inactive)
REMARK    1  A    between atoms: C_1  and  C_2
REMARK    2  A    between atoms: C_5  and  C_6
REMARK    3  A    between atoms: C_6  and  N_7
REMARK    4  A    between atoms: N_7  and  C_8
REMARK    5  A    between atoms: N_7  and  C_9
REMARK    6  A    between atoms: C_9  and  C_10
REMARK    7  A    between atoms: N_13  and  C_14
REMARK    8  A    between atoms: C_15  and  C_16
REMARK    9  A    between atoms: C_15  and  C_17
REMARK                            x       y       z     vdW  Elec       q    Type
REMARK                         _______ _______ _______ _____ _____    ______ ____
ROOT
ATOM      1  N   UNL     1       5.039   4.782  17.561  0.00  0.00    +0.000 NA
ATOM      2  C   UNL     1       4.530   6.046  17.027  0.00  0.00    +0.000 C 
ENDROOT
BRANCH   1   3
ATOM      3  C   UNL     1       6.464   4.587  17.205  0.00  0.00    +0.000 C 
BRANCH   3   8
ATOM      4  C   UNL     1       6.448   3.601  12.468  0.00  0.00    +0.000 C 
ATOM      5  C   UNL     1       6.812   4.333  13.692  0.00  0.00    +0.000 A 
ATOM      6  N   UNL     1       7.618   5.362  13.849  0.00  0.00    +0.000 NA
ATOM      7  N   UNL     1       7.617   5.651  15.200  0.00  0.00    +0.000 NA
ATOM      8  C   UNL     1       6.818   4.773  15.768  0.00  0.00    +0.000 A 
ATOM      9  O   UNL     1       6.260   3.902  14.868  0.00  0.00    +0.000 OA
ENDBRANCH   3   8
ENDBRANCH   1   3
BRANCH   1  10
ATOM     10  C   UNL     1       4.162   3.644  17.207  0.00  0.00    +0.000 C 
BRANCH  10  11
ATOM     11  C   UNL     1       2.909   3.547  18.104  0.00  0.00    +0.000 C 
ATOM     12  C   UNL     1       2.016   2.364  17.735  0.00  0.00    +0.000 C 
ATOM     13  C   UNL     1       1.105   2.268  18.937  0.00  0.00    +0.000 C 
ATOM     14  N   UNL     1       2.003   2.489  20.069  0.00  0.00    +0.000 NA
ATOM     15  C   UNL     1       1.276   2.844  21.277  0.00  0.00    +0.000 C 
ATOM     16  C   UNL     1       3.120   3.374  19.642  0.00  0.00    +0.000 C 
ATOM     17  C   UNL     1       4.408   2.612  20.005  0.00  0.00    +0.000 C 
ATOM     18  C   UNL     1       3.171   4.755  20.323  0.00  0.00    +0.000 C 
ENDBRANCH  10  11
ENDBRANCH   1  10
TORSDOF 4
ENDMDL
MODEL 8
REMARK VINA RESULT:      -7.0      1.010      1.218
REMARK  Name = 
REMARK  9 active torsions:
REMARK  status: ('A' for Active; 'I' for Inactive)
REMARK    1  A    between atoms: C_1  and  C_2
REMARK    2  A    between atoms: C_5  and  C_6
REMARK    3  A    between atoms: C_6  and  N_7
REMARK    4  A    between atoms: N_7  and  C_8
REMARK    5  A    between atoms: N_7  and  C_9
REMARK    6  A    between atoms: C_9  and  C_10
REMARK    7  A    between atoms: N_13  and  C_14
REMARK    8  A    between atoms: C_15  and  C_16
REMARK    9  A    between atoms: C_15  and  C_17
REMARK                            x       y       z     vdW  Elec       q    Type
REMARK                         _______ _______ _______ _____ _____    ______ ____
ROOT
ATOM      1  N   UNL     1       5.767   5.335  18.755  0.00  0.00    +0.000 NA
ATOM      2  C   UNL     1       4.894   6.050  17.823  0.00  0.00    +0.000 C 
ENDROOT
BRANCH   1   3
ATOM      3  C   UNL     1       6.996   4.859  18.078  0.00  0.00    +0.000 C 
BRANCH   3   8
ATOM      4  C   UNL     1       6.086   3.582  13.499  0.00  0.00    +0.000 C 
ATOM      5  C   UNL     1       6.625   4.417  14.585  0.00  0.00    +0.000 A 
ATOM      6  N   UNL     1       7.343   5.519  14.523  0.00  0.00    +0.000 NA
ATOM      7  N   UNL     1       7.597   5.891  15.828  0.00  0.00    +0.000 NA
ATOM      8  C   UNL     1       7.022   4.985  16.592  0.00  0.00    +0.000 A 
ATOM      9  O   UNL     1       6.376   4.015  15.869  0.00  0.00    +0.000 OA
ENDBRANCH   3   8
ENDBRANCH   1   3
BRANCH   1  10
ATOM     10  C   UNL     1       5.035   4.283  19.496  0.00  0.00    +0.000 C 
BRANCH  10  11
ATOM     11  C   UNL     1       3.703   3.887  18.823  0.00  0.00    +0.000 C 
ATOM     12  C   UNL     1       3.868   2.730  17.839  0.00  0.00    +0.000 C 
ATOM     13  C   UNL     1       2.436   2.302  17.612  0.00  0.00    +0.000 C 
ATOM     14  N   UNL     1       1.842   2.363  18.947  0.00  0.00    +0.000 NA
ATOM     15  C   UNL     1       0.389   2.390  18.891  0.00  0.00    +0.000 C 
ATOM     16  C   UNL     1       2.530   3.417  19.740  0.00  0.00    +0.000 C 
ATOM     17  C   UNL     1       2.998   2.718  21.030  0.00  0.00    +0.000 C 
ATOM     18  C   UNL     1       1.659   4.625  20.137  0.00  0.00    +0.000 C 
ENDBRANCH  10  11
ENDBRANCH   1  10
TORSDOF 4
ENDMDL
MODEL 9
REMARK VINA RESULT:      -6.9      2.032      3.502
REMARK  Name = 
REMARK  9 active torsions:
REMARK  status: ('A' for Active; 'I' for Inactive)
REMARK    1  A    between atoms: C_1  and  C_2
REMARK    2  A    between atoms: C_5  and  C_6
REMARK    3  A    between atoms: C_6  and  N_7
REMARK    4  A    between atoms: N_7  and  C_8
REMARK    5  A    between atoms: N_7  and  C_9
REMARK    6  A    between atoms: C_9  and  C_10
REMARK    7  A    between atoms: N_13  and  C_14
REMARK    8  A    between atoms: C_15  and  C_16
REMARK    9  A    between atoms: C_15  and  C_17
REMARK                            x       y       z     vdW  Elec       q    Type
REMARK                         _______ _______ _______ _____ _____    ______ ____
ROOT
ATOM      1  N   UNL     1       5.461   4.516  16.046  0.00  0.00    +0.000 NA
ATOM      2  C   UNL     1       5.398   4.573  14.585  0.00  0.00    +0.000 C 
ENDROOT
BRANCH   1   3
ATOM      3  C   UNL     1       6.858   4.375  16.517  0.00  0.00    +0.000 C 
BRANCH   3   8
ATOM      4  C   UNL     1       8.072   8.861  17.868  0.00  0.00    +0.000 C 
ATOM      5  C   UNL     1       7.893   7.408  18.022  0.00  0.00    +0.000 A 
ATOM      6  N   UNL     1       8.182   6.626  19.042  0.00  0.00    +0.000 NA
ATOM      7  N   UNL     1       7.828   5.347  18.661  0.00  0.00    +0.000 NA
ATOM      8  C   UNL     1       7.357   5.439  17.436  0.00  0.00    +0.000 A 
ATOM      9  O   UNL     1       7.360   6.726  16.961  0.00  0.00    +0.000 OA
ENDBRANCH   3   8
ENDBRANCH   1   3
BRANCH   1  10
ATOM     10  C   UNL     1       4.528   3.506  16.596  0.00  0.00    +0.000 C 
BRANCH  10  11
ATOM     11  C   UNL     1       3.426   4.122  17.484  0.00  0.00    +0.000 C 
ATOM     12  C   UNL     1       2.103   3.367  17.382  0.00  0.00    +0.000 C 
ATOM     13  C   UNL     1       1.339   3.906  18.570  0.00  0.00    +0.000 C 
ATOM     14  N   UNL     1       2.345   3.960  19.631  0.00  0.00    +0.000 NA
ATOM     15  C   UNL     1       1.931   4.824  20.725  0.00  0.00    +0.000 C 
ATOM     16  C   UNL     1       3.682   4.195  19.023  0.00  0.00    +0.000 C 
ATOM     17  C   UNL     1       4.578   3.061  19.554  0.00  0.00    +0.000 C 
ATOM     18  C   UNL     1       4.347   5.539  19.381  0.00  0.00    +0.000 C 
ENDBRANCH  10  11
ENDBRANCH   1  10
TORSDOF 4
ENDMDL
