MODEL 1
REMARK VINA RESULT:      -7.0      0.000      0.000
REMARK  Name = 
REMARK  7 active torsions:
REMARK  status: ('A' for Active; 'I' for Inactive)
REMARK    1  A    between atoms: C_1  and  N_2
REMARK    2  A    between atoms: N_2  and  C_3
REMARK    3  A    between atoms: N_2  and  C_4
REMARK    4  A    between atoms: C_4  and  C_5
REMARK    5  A    between atoms: C_10  and  O_11
REMARK    6  A    between atoms: O_11  and  C_12
REMARK    7  A    between atoms: C_12  and  C_14
REMARK                            x       y       z     vdW  Elec       q    Type
REMARK                         _______ _______ _______ _____ _____    ______ ____
ROOT
ATOM      1  O   UNL     1       4.803   3.524  17.713  0.00  0.00    +0.000 OA
ENDROOT
BRANCH   1   7
ATOM      2  C   UNL     1       3.328   4.576  19.314  0.00  0.00    +0.000 C 
ATOM      3  C   UNL     1       3.124   3.293  20.145  0.00  0.00    +0.000 C 
ATOM      4  C   UNL     1       2.011   2.400  19.600  0.00  0.00    +0.000 C 
ATOM      5  C   UNL     1       2.206   2.078  18.122  0.00  0.00    +0.000 C 
ATOM      6  C   UNL     1       2.409   3.335  17.278  0.00  0.00    +0.000 C 
ATOM      7  C   UNL     1       3.536   4.225  17.823  0.00  0.00    +0.000 C 
BRANCH   2   8
ATOM      8  C   UNL     1       2.175   5.600  19.496  0.00  0.00    +0.000 C 
BRANCH   8  10
ATOM      9  C   UNL     1       2.616   7.608  18.179  0.00  0.00    +0.000 C 
ATOM     10  N   UNL     1       2.610   7.010  19.517  0.00  0.00    +0.000 NA
ATOM     11  C   UNL     1       1.743   7.801  20.396  0.00  0.00    +0.000 C 
ENDBRANCH   8  10
ENDBRANCH   2   8
ENDBRANCH   1   7
BRANCH   1  12
ATOM     12  C   UNL     1       5.671   4.005  16.787  0.00  0.00    +0.000 C 
ATOM     13  O   UNL     1       5.888   3.494  15.700  0.00  0.00    +0.000 OA
BRANCH  12  14
ATOM     14  C   UNL     1       6.357   5.221  17.299  0.00  0.00    +0.000 A 
ATOM     15  C   UNL     1       7.287   5.101  18.349  0.00  0.00    +0.000 A 
ATOM     16  C   UNL     1       8.012   6.213  18.791  0.00  0.00    +0.000 A 
ATOM     17  C   UNL     1       7.815   7.450  18.186  0.00  0.00    +0.000 A 
ATOM     18 CL   UNL     1       8.724   8.813  18.709  0.00  0.00    +0.000 Cl
ATOM     19  C   UNL     1       6.887   7.592  17.159  0.00  0.00    +0.000 A 
ATOM     20  C   UNL     1       6.153   6.483  16.716  0.00  0.00    +0.000 A 
ATOM     21 CL   UNL     1       4.990   6.786  15.473  0.00  0.00    +0.000 Cl
ENDBRANCH  12  14
ENDBRANCH   1  12
TORSDOF 5
ENDMDL
MODEL 2
REMARK VINA RESULT:      -6.7      1.824      2.807
REMARK  Name = 
REMARK  7 active torsions:
REMARK  status: ('A' for Active; 'I' for Inactive)
REMARK    1  A    between atoms: C_1  and  N_2
REMARK    2  A    between atoms: N_2  and  C_3
REMARK    3  A    between atoms: N_2  and  C_4
REMARK    4  A    between atoms: C_4  and  C_5
REMARK    5  A    between atoms: C_10  and  O_11
REMARK    6  A    between atoms: O_11  and  C_12
REMARK    7  A    between atoms: C_12  and  C_14
REMARK                            x       y       z     vdW  Elec       q    Type
REMARK                         _______ _______ _______ _____ _____    ______ ____
ROOT
ATOM      1  O   UNL     1       3.955   3.674  18.650  0.00  0.00    +0.000 OA
ENDROOT
BRANCH   1   7
ATOM      2  C   UNL     1       2.588   4.914  20.211  0.00  0.00    +0.000 C 
ATOM      3  C   UNL     1       2.223   3.676  21.055  0.00  0.00    +0.000 C 
ATOM      4  C   UNL     1       1.022   2.911  20.503  0.00  0.00    +0.000 C 
ATOM      5  C   UNL     1       1.202   2.547  19.033  0.00  0.00    +0.000 C 
ATOM      6  C   UNL     1       1.562   3.759  18.176  0.00  0.00    +0.000 C 
ATOM      7  C   UNL     1       2.777   4.519  18.729  0.00  0.00    +0.000 C 
BRANCH   2   8
ATOM      8  C   UNL     1       1.561   6.068  20.360  0.00  0.00    +0.000 C 
BRANCH   8  10
ATOM      9  C   UNL     1       2.220   7.899  18.885  0.00  0.00    +0.000 C 
ATOM     10  N   UNL     1       2.144   7.421  20.268  0.00  0.00    +0.000 NA
ATOM     11  C   UNL     1       1.363   8.371  21.066  0.00  0.00    +0.000 C 
ENDBRANCH   8  10
ENDBRANCH   2   8
ENDBRANCH   1   7
BRANCH   1  12
ATOM     12  C   UNL     1       5.151   4.311  18.736  0.00  0.00    +0.000 C 
ATOM     13  O   UNL     1       5.640   4.745  19.766  0.00  0.00    +0.000 OA
BRANCH  12  14
ATOM     14  C   UNL     1       5.766   4.447  17.389  0.00  0.00    +0.000 A 
ATOM     15  C   UNL     1       5.201   3.760  16.296  0.00  0.00    +0.000 A 
ATOM     16  C   UNL     1       5.704   3.939  15.004  0.00  0.00    +0.000 A 
ATOM     17  C   UNL     1       6.772   4.805  14.792  0.00  0.00    +0.000 A 
ATOM     18 CL   UNL     1       7.374   5.048  13.200  0.00  0.00    +0.000 Cl
ATOM     19  C   UNL     1       7.355   5.479  15.861  0.00  0.00    +0.000 A 
ATOM     20  C   UNL     1       6.859   5.299  17.160  0.00  0.00    +0.000 A 
ATOM     21 CL   UNL     1       7.693   6.142  18.418  0.00  0.00    +0.000 Cl
ENDBRANCH  12  14
ENDBRANCH   1  12
TORSDOF 5
ENDMDL
MODEL 3
REMARK VINA RESULT:      -6.5      1.948      2.965
REMARK  Name = 
REMARK  7 active torsions:
REMARK  status: ('A' for Active; 'I' for Inactive)
REMARK    1  A    between atoms: C_1  and  N_2
REMARK    2  A    between atoms: N_2  and  C_3
REMARK    3  A    between atoms: N_2  and  C_4
REMARK    4  A    between atoms: C_4  and  C_5
REMARK    5  A    between atoms: C_10  and  O_11
REMARK    6  A    between atoms: O_11  and  C_12
REMARK    7  A    between atoms: C_12  and  C_14
REMARK                            x       y       z     vdW  Elec       q    Type
REMARK                         _______ _______ _______ _____ _____    ______ ____
ROOT
ATOM      1  O   UNL     1       3.865   3.616  18.305  0.00  0.00    +0.000 OA
ENDROOT
BRANCH   1   7
ATOM      2  C   UNL     1       2.984   5.578  19.408  0.00  0.00    +0.000 C 
ATOM      3  C   UNL     1       2.467   4.799  20.635  0.00  0.00    +0.000 C 
ATOM      4  C   UNL     1       1.075   4.209  20.422  0.00  0.00    +0.000 C 
ATOM      5  C   UNL     1       0.999   3.362  19.155  0.00  0.00    +0.000 C 
ATOM      6  C   UNL     1       1.506   4.114  17.926  0.00  0.00    +0.000 C 
ATOM      7  C   UNL     1       2.910   4.697  18.140  0.00  0.00    +0.000 C 
BRANCH   2   8
ATOM      8  C   UNL     1       2.249   6.929  19.200  0.00  0.00    +0.000 C 
BRANCH   8  10
ATOM      9  C   UNL     1       2.066   8.968  17.869  0.00  0.00    +0.000 C 
ATOM     10  N   UNL     1       2.514   7.574  17.899  0.00  0.00    +0.000 NA
ATOM     11  C   UNL     1       3.945   7.518  17.580  0.00  0.00    +0.000 C 
ENDBRANCH   8  10
ENDBRANCH   2   8
ENDBRANCH   1   7
BRANCH   1  12
ATOM     12  C   UNL     1       5.158   3.986  18.484  0.00  0.00    +0.000 C 
ATOM     13  O   UNL     1       5.703   4.125  19.567  0.00  0.00    +0.000 OA
BRANCH  12  14
ATOM     14  C   UNL     1       5.812   4.244  17.173  0.00  0.00    +0.000 A 
ATOM     15  C   UNL     1       5.366   3.555  16.029  0.00  0.00    +0.000 A 
ATOM     16  C   UNL     1       5.901   3.842  14.769  0.00  0.00    +0.000 A 
ATOM     17  C   UNL     1       6.883   4.819  14.643  0.00  0.00    +0.000 A 
ATOM     18 CL   UNL     1       7.523   5.194  13.091  0.00  0.00    +0.000 Cl
ATOM     19  C   UNL     1       7.349   5.499  15.764  0.00  0.00    +0.000 A 
ATOM     20  C   UNL     1       6.821   5.211  17.030  0.00  0.00    +0.000 A 
ATOM     21 CL   UNL     1       7.512   6.076  18.359  0.00  0.00    +0.000 Cl
ENDBRANCH  12  14
ENDBRANCH   1  12
TORSDOF 5
ENDMDL
MODEL 4
REMARK VINA RESULT:      -6.5      3.601      5.957
REMARK  Name = 
REMARK  7 active torsions:
REMARK  status: ('A' for Active; 'I' for Inactive)
REMARK    1  A    between atoms: C_1  and  N_2
REMARK    2  A    between atoms: N_2  and  C_3
REMARK    3  A    between atoms: N_2  and  C_4
REMARK    4  A    between atoms: C_4  and  C_5
REMARK    5  A    between atoms: C_10  and  O_11
REMARK    6  A    between atoms: O_11  and  C_12
REMARK    7  A    between atoms: C_12  and  C_14
REMARK                            x       y       z     vdW  Elec       q    Type
REMARK                         _______ _______ _______ _____ _____    ______ ____
ROOT
ATOM      1  O   UNL     1       1.700   6.595  18.995  0.00  0.00    +0.000 OA
ENDROOT
BRANCH   1   7
ATOM      2  C   UNL     1       3.013   4.704  18.261  0.00  0.00    +0.000 C 
ATOM      3  C   UNL     1       1.785   3.826  17.942  0.00  0.00    +0.000 C 
ATOM      4  C   UNL     1       1.257   3.075  19.161  0.00  0.00    +0.000 C 
ATOM      5  C   UNL     1       0.981   4.009  20.335  0.00  0.00    +0.000 C 
ATOM      6  C   UNL     1       2.184   4.888  20.670  0.00  0.00    +0.000 C 
ATOM      7  C   UNL     1       2.706   5.650  19.444  0.00  0.00    +0.000 C 
BRANCH   2   8
ATOM      8  C   UNL     1       4.296   3.870  18.524  0.00  0.00    +0.000 C 
BRANCH   8  10
ATOM      9  C   UNL     1       5.207   5.207  16.694  0.00  0.00    +0.000 C 
ATOM     10  N   UNL     1       5.513   4.404  17.881  0.00  0.00    +0.000 NA
ATOM     11  C   UNL     1       6.281   5.216  18.830  0.00  0.00    +0.000 C 
ENDBRANCH   8  10
ENDBRANCH   2   8
ENDBRANCH   1   7
BRANCH   1  12
ATOM     12  C   UNL     1       2.063   7.903  19.007  0.00  0.00    +0.000 C 
ATOM     13  O   UNL     1       2.959   8.387  18.335  0.00  0.00    +0.000 OA
BRANCH  12  14
ATOM     14  C   UNL     1       1.246   8.661  19.991  0.00  0.00    +0.000 A 
ATOM     15  C   UNL     1       1.432   8.434  21.369  0.00  0.00    +0.000 A 
ATOM     16  C   UNL     1       0.742   9.195  22.318  0.00  0.00    +0.000 A 
ATOM     17  C   UNL     1      -0.139  10.187  21.899  0.00  0.00    +0.000 A 
ATOM     18 CL   UNL     1      -0.969  11.142  23.063  0.00  0.00    +0.000 Cl
ATOM     19  C   UNL     1      -0.350  10.414  20.542  0.00  0.00    +0.000 A 
ATOM     20  C   UNL     1       0.335   9.651  19.587  0.00  0.00    +0.000 A 
ATOM     21 CL   UNL     1      -0.046   9.981  17.932  0.00  0.00    +0.000 Cl
ENDBRANCH  12  14
ENDBRANCH   1  12
TORSDOF 5
ENDMDL
MODEL 5
REMARK VINA RESULT:      -6.5      2.201      3.976
REMARK  Name = 
REMARK  7 active torsions:
REMARK  status: ('A' for Active; 'I' for Inactive)
REMARK    1  A    between atoms: C_1  and  N_2
REMARK    2  A    between atoms: N_2  and  C_3
REMARK    3  A    between atoms: N_2  and  C_4
REMARK    4  A    between atoms: C_4  and  C_5
REMARK    5  A    between atoms: C_10  and  O_11
REMARK    6  A    between atoms: O_11  and  C_12
REMARK    7  A    between atoms: C_12  and  C_14
REMARK                            x       y       z     vdW  Elec       q    Type
REMARK                         _______ _______ _______ _____ _____    ______ ____
ROOT
ATOM      1  O   UNL     1       4.564   5.537  19.309  0.00  0.00    +0.000 OA
ENDROOT
BRANCH   1   7
ATOM      2  C   UNL     1       2.371   4.562  19.021  0.00  0.00    +0.000 C 
ATOM      3  C   UNL     1       2.099   5.281  17.684  0.00  0.00    +0.000 C 
ATOM      4  C   UNL     1       1.528   6.685  17.868  0.00  0.00    +0.000 C 
ATOM      5  C   UNL     1       2.391   7.539  18.790  0.00  0.00    +0.000 C 
ATOM      6  C   UNL     1       2.673   6.848  20.123  0.00  0.00    +0.000 C 
ATOM      7  C   UNL     1       3.258   5.440  19.934  0.00  0.00    +0.000 C 
BRANCH   2   8
ATOM      8  C   UNL     1       1.070   4.129  19.747  0.00  0.00    +0.000 C 
BRANCH   8  10
ATOM      9  C   UNL     1       1.875   1.861  19.334  0.00  0.00    +0.000 C 
ATOM     10  N   UNL     1       1.059   2.722  20.194  0.00  0.00    +0.000 NA
ATOM     11  C   UNL     1       1.537   2.619  21.576  0.00  0.00    +0.000 C 
ENDBRANCH   8  10
ENDBRANCH   2   8
ENDBRANCH   1   7
BRANCH   1  12
ATOM     12  C   UNL     1       5.150   4.361  18.967  0.00  0.00    +0.000 C 
ATOM     13  O   UNL     1       5.207   3.374  19.682  0.00  0.00    +0.000 OA
BRANCH  12  14
ATOM     14  C   UNL     1       5.755   4.457  17.612  0.00  0.00    +0.000 A 
ATOM     15  C   UNL     1       5.112   3.840  16.521  0.00  0.00    +0.000 A 
ATOM     16  C   UNL     1       5.610   3.988  15.223  0.00  0.00    +0.000 A 
ATOM     17  C   UNL     1       6.751   4.753  15.004  0.00  0.00    +0.000 A 
ATOM     18 CL   UNL     1       7.350   4.959  13.405  0.00  0.00    +0.000 Cl
ATOM     19  C   UNL     1       7.410   5.356  16.071  0.00  0.00    +0.000 A 
ATOM     20  C   UNL     1       6.919   5.206  17.375  0.00  0.00    +0.000 A 
ATOM     21 CL   UNL     1       7.848   5.952  18.629  0.00  0.00    +0.000 Cl
ENDBRANCH  12  14
ENDBRANCH   1  12
TORSDOF 5
ENDMDL
MODEL 6
REMARK VINA RESULT:      -6.4      2.024      3.073
REMARK  Name = 
REMARK  7 active torsions:
REMARK  status: ('A' for Active; 'I' for Inactive)
REMARK    1  A    between atoms: C_1  and  N_2
REMARK    2  A    between atoms: N_2  and  C_3
REMARK    3  A    between atoms: N_2  and  C_4
REMARK    4  A    between atoms: C_4  and  C_5
REMARK    5  A    between atoms: C_10  and  O_11
REMARK    6  A    between atoms: O_11  and  C_12
REMARK    7  A    between atoms: C_12  and  C_14
REMARK                            x       y       z     vdW  Elec       q    Type
REMARK                         _______ _______ _______ _____ _____    ______ ____
ROOT
ATOM      1  O   UNL     1       4.131   4.427  19.321  0.00  0.00    +0.000 OA
ENDROOT
BRANCH   1   7
ATOM      2  C   UNL     1       2.267   5.389  20.523  0.00  0.00    +0.000 C 
ATOM      3  C   UNL     1       1.634   4.025  20.866  0.00  0.00    +0.000 C 
ATOM      4  C   UNL     1       0.732   3.490  19.756  0.00  0.00    +0.000 C 
ATOM      5  C   UNL     1       1.447   3.445  18.409  0.00  0.00    +0.000 C 
ATOM      6  C   UNL     1       2.081   4.787  18.047  0.00  0.00    +0.000 C 
ATOM      7  C   UNL     1       2.995   5.317  19.161  0.00  0.00    +0.000 C 
BRANCH   2   8
ATOM      8  C   UNL     1       1.241   6.553  20.552  0.00  0.00    +0.000 C 
BRANCH   8  10
ATOM      9  C   UNL     1       1.618   8.624  19.315  0.00  0.00    +0.000 C 
ATOM     10  N   UNL     1       1.845   7.899  20.568  0.00  0.00    +0.000 NA
ATOM     11  C   UNL     1       1.315   8.687  21.685  0.00  0.00    +0.000 C 
ENDBRANCH   8  10
ENDBRANCH   2   8
ENDBRANCH   1   7
BRANCH   1  12
ATOM     12  C   UNL     1       5.337   4.929  18.954  0.00  0.00    +0.000 C 
ATOM     13  O   UNL     1       6.102   5.525  19.694  0.00  0.00    +0.000 OA
BRANCH  12  14
ATOM     14  C   UNL     1       5.580   4.690  17.506  0.00  0.00    +0.000 A 
ATOM     15  C   UNL     1       5.293   3.427  16.954  0.00  0.00    +0.000 A 
ATOM     16  C   UNL     1       5.427   3.201  15.581  0.00  0.00    +0.000 A 
ATOM     17  C   UNL     1       5.848   4.233  14.749  0.00  0.00    +0.000 A 
ATOM     18 CL   UNL     1       5.989   3.966  13.056  0.00  0.00    +0.000 Cl
ATOM     19  C   UNL     1       6.154   5.484  15.278  0.00  0.00    +0.000 A 
ATOM     20  C   UNL     1       6.027   5.714  16.655  0.00  0.00    +0.000 A 
ATOM     21 CL   UNL     1       6.486   7.286  17.210  0.00  0.00    +0.000 Cl
ENDBRANCH  12  14
ENDBRANCH   1  12
TORSDOF 5
ENDMDL
MODEL 7
REMARK VINA RESULT:      -6.4      3.368      6.032
REMARK  Name = 
REMARK  7 active torsions:
REMARK  status: ('A' for Active; 'I' for Inactive)
REMARK    1  A    between atoms: C_1  and  N_2
REMARK    2  A    between atoms: N_2  and  C_3
REMARK    3  A    between atoms: N_2  and  C_4
REMARK    4  A    between atoms: C_4  and  C_5
REMARK    5  A    between atoms: C_10  and  O_11
REMARK    6  A    between atoms: O_11  and  C_12
REMARK    7  A    between atoms: C_12  and  C_14
REMARK                            x       y       z     vdW  Elec       q    Type
REMARK                         _______ _______ _______ _____ _____    ______ ____
ROOT
ATOM      1  O   UNL     1       4.372   4.256  17.262  0.00  0.00    +0.000 OA
ENDROOT
BRANCH   1   7
ATOM      2  C   UNL     1       6.130   4.203  15.603  0.00  0.00    +0.000 C 
ATOM      3  C   UNL     1       7.253   4.509  16.615  0.00  0.00    +0.000 C 
ATOM      4  C   UNL     1       7.439   6.004  16.865  0.00  0.00    +0.000 C 
ATOM      5  C   UNL     1       6.134   6.684  17.264  0.00  0.00    +0.000 C 
ATOM      6  C   UNL     1       5.005   6.396  16.275  0.00  0.00    +0.000 C 
ATOM      7  C   UNL     1       4.815   4.892  16.034  0.00  0.00    +0.000 C 
BRANCH   2   8
ATOM      8  C   UNL     1       6.513   4.580  14.147  0.00  0.00    +0.000 C 
BRANCH   8  10
ATOM      9  C   UNL     1       4.856   3.641  12.618  0.00  0.00    +0.000 C 
ATOM     10  N   UNL     1       6.218   3.533  13.148  0.00  0.00    +0.000 NA
ATOM     11  C   UNL     1       7.175   3.598  12.039  0.00  0.00    +0.000 C 
ENDBRANCH   8  10
ENDBRANCH   2   8
ENDBRANCH   1   7
BRANCH   1  12
ATOM     12  C   UNL     1       3.031   4.226  17.466  0.00  0.00    +0.000 C 
ATOM     13  O   UNL     1       2.246   3.514  16.861  0.00  0.00    +0.000 OA
BRANCH  12  14
ATOM     14  C   UNL     1       2.641   5.218  18.504  0.00  0.00    +0.000 A 
ATOM     15  C   UNL     1       2.631   6.589  18.183  0.00  0.00    +0.000 A 
ATOM     16  C   UNL     1       2.185   7.536  19.110  0.00  0.00    +0.000 A 
ATOM     17  C   UNL     1       1.744   7.121  20.363  0.00  0.00    +0.000 A 
ATOM     18 CL   UNL     1       1.169   8.281  21.495  0.00  0.00    +0.000 Cl
ATOM     19  C   UNL     1       1.762   5.772  20.705  0.00  0.00    +0.000 A 
ATOM     20  C   UNL     1       2.214   4.820  19.782  0.00  0.00    +0.000 A 
ATOM     21 CL   UNL     1       2.246   3.180  20.332  0.00  0.00    +0.000 Cl
ENDBRANCH  12  14
ENDBRANCH   1  12
TORSDOF 5
ENDMDL
MODEL 8
REMARK VINA RESULT:      -6.3      3.534      5.993
REMARK  Name = 
REMARK  7 active torsions:
REMARK  status: ('A' for Active; 'I' for Inactive)
REMARK    1  A    between atoms: C_1  and  N_2
REMARK    2  A    between atoms: N_2  and  C_3
REMARK    3  A    between atoms: N_2  and  C_4
REMARK    4  A    between atoms: C_4  and  C_5
REMARK    5  A    between atoms: C_10  and  O_11
REMARK    6  A    between atoms: O_11  and  C_12
REMARK    7  A    between atoms: C_12  and  C_14
REMARK                            x       y       z     vdW  Elec       q    Type
REMARK                         _______ _______ _______ _____ _____    ______ ____
ROOT
ATOM      1  O   UNL     1       1.978   6.692  18.548  0.00  0.00    +0.000 OA
ENDROOT
BRANCH   1   7
ATOM      2  C   UNL     1       2.872   4.665  17.581  0.00  0.00    +0.000 C 
ATOM      3  C   UNL     1       1.767   3.761  18.165  0.00  0.00    +0.000 C 
ATOM      4  C   UNL     1       2.067   3.297  19.588  0.00  0.00    +0.000 C 
ATOM      5  C   UNL     1       2.376   4.466  20.518  0.00  0.00    +0.000 C 
ATOM      6  C   UNL     1       3.470   5.375  19.961  0.00  0.00    +0.000 C 
ATOM      7  C   UNL     1       3.159   5.848  18.533  0.00  0.00    +0.000 C 
BRANCH   2   8
ATOM      8  C   UNL     1       4.170   3.886  17.242  0.00  0.00    +0.000 C 
BRANCH   8  10
ATOM      9  C   UNL     1       6.500   4.567  17.512  0.00  0.00    +0.000 C 
ATOM     10  N   UNL     1       5.271   4.726  16.731  0.00  0.00    +0.000 NA
ATOM     11  C   UNL     1       5.546   4.411  15.325  0.00  0.00    +0.000 C 
ENDBRANCH   8  10
ENDBRANCH   2   8
ENDBRANCH   1   7
BRANCH   1  12
ATOM     12  C   UNL     1       2.202   8.028  18.644  0.00  0.00    +0.000 C 
ATOM     13  O   UNL     1       2.995   8.655  17.961  0.00  0.00    +0.000 OA
BRANCH  12  14
ATOM     14  C   UNL     1       1.376   8.616  19.731  0.00  0.00    +0.000 A 
ATOM     15  C   UNL     1       1.676   8.309  21.073  0.00  0.00    +0.000 A 
ATOM     16  C   UNL     1       0.973   8.917  22.118  0.00  0.00    +0.000 A 
ATOM     17  C   UNL     1      -0.031   9.837  21.833  0.00  0.00    +0.000 A 
ATOM     18 CL   UNL     1      -0.877  10.606  23.117  0.00  0.00    +0.000 Cl
ATOM     19  C   UNL     1      -0.353  10.140  20.514  0.00  0.00    +0.000 A 
ATOM     20  C   UNL     1       0.343   9.529  19.462  0.00  0.00    +0.000 A 
ATOM     21 CL   UNL     1      -0.178   9.939  17.864  0.00  0.00    +0.000 Cl
ENDBRANCH  12  14
ENDBRANCH   1  12
TORSDOF 5
ENDMDL
MODEL 9
REMARK VINA RESULT:      -6.2      3.335      6.063
REMARK  Name = 
REMARK  7 active torsions:
REMARK  status: ('A' for Active; 'I' for Inactive)
REMARK    1  A    between atoms: C_1  and  N_2
REMARK    2  A    between atoms: N_2  and  C_3
REMARK    3  A    between atoms: N_2  and  C_4
REMARK    4  A    between atoms: C_4  and  C_5
REMARK    5  A    between atoms: C_10  and  O_11
REMARK    6  A    between atoms: O_11  and  C_12
REMARK    7  A    between atoms: C_12  and  C_14
REMARK                            x       y       z     vdW  Elec       q    Type
REMARK                         _______ _______ _______ _____ _____    ______ ____
ROOT
ATOM      1  O   UNL     1       4.333   5.688  18.125  0.00  0.00    +0.000 OA
ENDROOT
BRANCH   1   7
ATOM      2  C   UNL     1       5.265   4.896  16.040  0.00  0.00    +0.000 C 
ATOM      3  C   UNL     1       6.303   3.978  16.718  0.00  0.00    +0.000 C 
ATOM      4  C   UNL     1       7.589   4.710  17.096  0.00  0.00    +0.000 C 
ATOM      5  C   UNL     1       7.315   5.953  17.936  0.00  0.00    +0.000 C 
ATOM      6  C   UNL     1       6.290   6.879  17.284  0.00  0.00    +0.000 C 
ATOM      7  C   UNL     1       4.994   6.142  16.915  0.00  0.00    +0.000 C 
BRANCH   2   8
ATOM      8  C   UNL     1       5.670   5.299  14.597  0.00  0.00    +0.000 C 
BRANCH   8  10
ATOM      9  C   UNL     1       5.886   3.546  12.910  0.00  0.00    +0.000 C 
ATOM     10  N   UNL     1       6.575   4.344  13.928  0.00  0.00    +0.000 NA
ATOM     11  C   UNL     1       7.700   5.051  13.308  0.00  0.00    +0.000 C 
ENDBRANCH   8  10
ENDBRANCH   2   8
ENDBRANCH   1   7
BRANCH   1  12
ATOM     12  C   UNL     1       2.977   5.657  18.087  0.00  0.00    +0.000 C 
ATOM     13  O   UNL     1       2.312   4.798  17.532  0.00  0.00    +0.000 OA
BRANCH  12  14
ATOM     14  C   UNL     1       2.410   6.846  18.778  0.00  0.00    +0.000 A 
ATOM     15  C   UNL     1       2.237   8.047  18.062  0.00  0.00    +0.000 A 
ATOM     16  C   UNL     1       1.625   9.152  18.661  0.00  0.00    +0.000 A 
ATOM     17  C   UNL     1       1.181   9.067  19.977  0.00  0.00    +0.000 A 
ATOM     18 CL   UNL     1       0.404  10.416  20.707  0.00  0.00    +0.000 Cl
ATOM     19  C   UNL     1       1.358   7.895  20.706  0.00  0.00    +0.000 A 
ATOM     20  C   UNL     1       1.976   6.786  20.113  0.00  0.00    +0.000 A 
ATOM     21 CL   UNL     1       2.194   5.402  21.127  0.00  0.00    +0.000 Cl
ENDBRANCH  12  14
ENDBRANCH   1  12
TORSDOF 5
ENDMDL
