MODEL 1
REMARK VINA RESULT:      -7.8      0.000      0.000
REMARK  Name = 
REMARK  8 active torsions:
REMARK  status: ('A' for Active; 'I' for Inactive)
REMARK    1  A    between atoms: C_1  and  O_2
REMARK    2  A    between atoms: O_2  and  C_3
REMARK    3  A    between atoms: C_6  and  C_7
REMARK    4  A    between atoms: C_8  and  N_9
REMARK    5  A    between atoms: C_10  and  C_12
REMARK    6  A    between atoms: C_15  and  C_16
REMARK    7  A    between atoms: N_27  and  C_28
REMARK    8  A    between atoms: C_31  and  N_32
REMARK                            x       y       z     vdW  Elec       q    Type
REMARK                         _______ _______ _______ _____ _____    ______ ____
ROOT
ATOM      1  C   UNL     1       3.656   3.457  18.597  0.00  0.00    +0.000 A 
ATOM      2  C   UNL     1       2.437   4.094  18.784  0.00  0.00    +0.000 A 
ATOM      3  C   UNL     1       1.576   3.098  19.296  0.00  0.00    +0.000 A 
ATOM      4  N   UNL     1       2.154   1.902  19.351  0.00  0.00    +0.000 NA
ATOM      5  N   UNL     1       3.407   2.133  18.917  0.00  0.00    +0.000 N 
ATOM      6  C   UNL     1       4.334   1.022  18.908  0.00  0.00    +0.000 C 
ENDROOT
BRANCH   1  10
ATOM      7  C   UNL     1       6.073   6.148  16.105  0.00  0.00    +0.000 C 
ATOM      8  C   UNL     1       4.855   5.218  16.260  0.00  0.00    +0.000 C 
ATOM      9  O   UNL     1       5.197   3.992  16.893  0.00  0.00    +0.000 OA
ATOM     10  C   UNL     1       5.057   3.931  18.303  0.00  0.00    +0.000 C 
ATOM     11  C   UNL     1       5.517   5.159  19.093  0.00  0.00    +0.000 C 
ATOM     12  C   UNL     1       6.784   5.837  18.578  0.00  0.00    +0.000 C 
ATOM     13  C   UNL     1       6.466   6.827  17.442  0.00  0.00    +0.000 C 
BRANCH  13  14
ATOM     14  N   UNL     1       7.624   7.715  17.226  0.00  0.00    +0.000 NA
ATOM     15  H   UNL     1       7.269   8.575  16.799  0.00  0.00    +0.000 HD
ATOM     16  H   UNL     1       8.262   7.301  16.548  0.00  0.00    +0.000 HD
ENDBRANCH  13  14
BRANCH   7  18
ATOM     17  C   UNL     1       7.006   4.845  14.329  0.00  0.00    +0.000 C 
ATOM     18  O   UNL     1       7.230   5.451  15.594  0.00  0.00    +0.000 OA
ENDBRANCH   7  18
ENDBRANCH   1  10
BRANCH   2  19
ATOM     19  N   UNL     1       2.128   5.429  18.573  0.00  0.00    +0.000 N 
ATOM     20  C   UNL     1       2.193   6.353  19.597  0.00  0.00    +0.000 C 
ATOM     21  O   UNL     1       2.515   6.095  20.754  0.00  0.00    +0.000 OA
ATOM     22  H   UNL     1       2.057   5.802  17.637  0.00  0.00    +0.000 HD
BRANCH  20  23
ATOM     23  C   UNL     1       1.930   7.734  19.170  0.00  0.00    +0.000 A 
ATOM     24  C   UNL     1       2.644   8.326  18.147  0.00  0.00    +0.000 A 
ATOM     25  S   UNL     1       2.095   9.911  17.876  0.00  0.00    +0.000 S 
ATOM     26  C   UNL     1       0.997   9.768  19.208  0.00  0.00    +0.000 A 
ATOM     27  N   UNL     1       0.952   8.557  19.746  0.00  0.00    +0.000 NA
BRANCH  26  28
ATOM     28  C   UNL     1       0.186  10.931  19.602  0.00  0.00    +0.000 A 
ATOM     29  C   UNL     1      -1.151  11.043  19.205  0.00  0.00    +0.000 A 
ATOM     30  F   UNL     1      -1.726  10.084  18.463  0.00  0.00    +0.000 F 
ATOM     31  C   UNL     1      -1.928  12.159  19.543  0.00  0.00    +0.000 A 
ATOM     32  C   UNL     1      -1.385  13.193  20.292  0.00  0.00    +0.000 A 
ATOM     33  C   UNL     1      -0.059  13.103  20.718  0.00  0.00    +0.000 A 
ATOM     34  C   UNL     1       0.702  11.979  20.381  0.00  0.00    +0.000 A 
ATOM     35  F   UNL     1       1.958  11.935  20.852  0.00  0.00    +0.000 F 
ENDBRANCH  26  28
ENDBRANCH  20  23
ENDBRANCH   2  19
TORSDOF 6
ENDMDL
MODEL 2
REMARK VINA RESULT:      -7.8      0.208      1.471
REMARK  Name = 
REMARK  8 active torsions:
REMARK  status: ('A' for Active; 'I' for Inactive)
REMARK    1  A    between atoms: C_1  and  O_2
REMARK    2  A    between atoms: O_2  and  C_3
REMARK    3  A    between atoms: C_6  and  C_7
REMARK    4  A    between atoms: C_8  and  N_9
REMARK    5  A    between atoms: C_10  and  C_12
REMARK    6  A    between atoms: C_15  and  C_16
REMARK    7  A    between atoms: N_27  and  C_28
REMARK    8  A    between atoms: C_31  and  N_32
REMARK                            x       y       z     vdW  Elec       q    Type
REMARK                         _______ _______ _______ _____ _____    ______ ____
ROOT
ATOM      1  C   UNL     1       3.549   3.527  18.558  0.00  0.00    +0.000 A 
ATOM      2  C   UNL     1       2.339   4.183  18.743  0.00  0.00    +0.000 A 
ATOM      3  C   UNL     1       1.451   3.191  19.216  0.00  0.00    +0.000 A 
ATOM      4  N   UNL     1       2.006   1.982  19.249  0.00  0.00    +0.000 NA
ATOM      5  N   UNL     1       3.270   2.200  18.841  0.00  0.00    +0.000 N 
ATOM      6  C   UNL     1       4.176   1.072  18.818  0.00  0.00    +0.000 C 
ENDROOT
BRANCH   1  10
ATOM      7  C   UNL     1       6.070   6.132  16.079  0.00  0.00    +0.000 C 
ATOM      8  C   UNL     1       4.839   5.217  16.218  0.00  0.00    +0.000 C 
ATOM      9  O   UNL     1       5.149   4.005  16.891  0.00  0.00    +0.000 OA
ATOM     10  C   UNL     1       4.963   3.980  18.297  0.00  0.00    +0.000 C 
ATOM     11  C   UNL     1       5.409   5.224  19.071  0.00  0.00    +0.000 C 
ATOM     12  C   UNL     1       6.699   5.877  18.580  0.00  0.00    +0.000 C 
ATOM     13  C   UNL     1       6.427   6.841  17.410  0.00  0.00    +0.000 C 
BRANCH  13  14
ATOM     14  N   UNL     1       7.599   7.713  17.209  0.00  0.00    +0.000 NA
ATOM     15  H   UNL     1       7.426   8.577  17.731  0.00  0.00    +0.000 HD
ATOM     16  H   UNL     1       7.675   7.979  16.229  0.00  0.00    +0.000 HD
ENDBRANCH  13  14
BRANCH   7  18
ATOM     17  C   UNL     1       7.111   4.925  14.294  0.00  0.00    +0.000 C 
ATOM     18  O   UNL     1       7.237   5.412  15.623  0.00  0.00    +0.000 OA
ENDBRANCH   7  18
ENDBRANCH   1  10
BRANCH   2  19
ATOM     19  N   UNL     1       2.059   5.528  18.561  0.00  0.00    +0.000 N 
ATOM     20  C   UNL     1       2.077   6.416  19.618  0.00  0.00    +0.000 C 
ATOM     21  O   UNL     1       2.331   6.115  20.782  0.00  0.00    +0.000 OA
ATOM     22  H   UNL     1       2.045   5.933  17.636  0.00  0.00    +0.000 HD
BRANCH  20  23
ATOM     23  C   UNL     1       1.856   7.814  19.224  0.00  0.00    +0.000 A 
ATOM     24  C   UNL     1       2.564   8.399  18.192  0.00  0.00    +0.000 A 
ATOM     25  S   UNL     1       2.069  10.009  17.967  0.00  0.00    +0.000 S 
ATOM     26  C   UNL     1       1.003   9.880  19.327  0.00  0.00    +0.000 A 
ATOM     27  N   UNL     1       0.927   8.662  19.843  0.00  0.00    +0.000 NA
BRANCH  26  28
ATOM     28  C   UNL     1       0.249  11.066  19.765  0.00  0.00    +0.000 A 
ATOM     29  C   UNL     1       0.877  12.095  20.474  0.00  0.00    +0.000 A 
ATOM     30  F   UNL     1       2.186  12.028  20.761  0.00  0.00    +0.000 F 
ATOM     31  C   UNL     1       0.167  13.215  20.928  0.00  0.00    +0.000 A 
ATOM     32  C   UNL     1      -1.192  13.334  20.679  0.00  0.00    +0.000 A 
ATOM     33  C   UNL     1      -1.844  12.332  19.960  0.00  0.00    +0.000 A 
ATOM     34  C   UNL     1      -1.122  11.224  19.505  0.00  0.00    +0.000 A 
ATOM     35  F   UNL     1      -1.798  10.315  18.787  0.00  0.00    +0.000 F 
ENDBRANCH  26  28
ENDBRANCH  20  23
ENDBRANCH   2  19
TORSDOF 6
ENDMDL
MODEL 3
REMARK VINA RESULT:      -7.7      1.108      1.120
REMARK  Name = 
REMARK  8 active torsions:
REMARK  status: ('A' for Active; 'I' for Inactive)
REMARK    1  A    between atoms: C_1  and  O_2
REMARK    2  A    between atoms: O_2  and  C_3
REMARK    3  A    between atoms: C_6  and  C_7
REMARK    4  A    between atoms: C_8  and  N_9
REMARK    5  A    between atoms: C_10  and  C_12
REMARK    6  A    between atoms: C_15  and  C_16
REMARK    7  A    between atoms: N_27  and  C_28
REMARK    8  A    between atoms: C_31  and  N_32
REMARK                            x       y       z     vdW  Elec       q    Type
REMARK                         _______ _______ _______ _____ _____    ______ ____
ROOT
ATOM      1  C   UNL     1       3.484   3.450  18.580  0.00  0.00    +0.000 A 
ATOM      2  C   UNL     1       2.282   4.105  18.813  0.00  0.00    +0.000 A 
ATOM      3  C   UNL     1       1.387   3.095  19.231  0.00  0.00    +0.000 A 
ATOM      4  N   UNL     1       1.929   1.882  19.186  0.00  0.00    +0.000 NA
ATOM      5  N   UNL     1       3.192   2.111  18.783  0.00  0.00    +0.000 N 
ATOM      6  C   UNL     1       4.086   0.978  18.685  0.00  0.00    +0.000 C 
ENDROOT
BRANCH   1  10
ATOM      7  C   UNL     1       6.042   6.020  16.103  0.00  0.00    +0.000 C 
ATOM      8  C   UNL     1       4.812   5.103  16.235  0.00  0.00    +0.000 C 
ATOM      9  O   UNL     1       5.114   3.904  16.936  0.00  0.00    +0.000 OA
ATOM     10  C   UNL     1       4.901   3.904  18.338  0.00  0.00    +0.000 C 
ATOM     11  C   UNL     1       5.328   5.163  19.098  0.00  0.00    +0.000 C 
ATOM     12  C   UNL     1       6.624   5.813  18.620  0.00  0.00    +0.000 C 
ATOM     13  C   UNL     1       6.371   6.754  17.427  0.00  0.00    +0.000 C 
BRANCH  13  14
ATOM     14  N   UNL     1       7.544   7.627  17.233  0.00  0.00    +0.000 NA
ATOM     15  H   UNL     1       7.193   8.549  16.961  0.00  0.00    +0.000 HD
ATOM     16  H   UNL     1       8.106   7.292  16.452  0.00  0.00    +0.000 HD
ENDBRANCH  13  14
BRANCH   7  18
ATOM     17  C   UNL     1       7.168   4.884  14.323  0.00  0.00    +0.000 C 
ATOM     18  O   UNL     1       7.220   5.297  15.682  0.00  0.00    +0.000 OA
ENDBRANCH   7  18
ENDBRANCH   1  10
BRANCH   2  19
ATOM     19  N   UNL     1       2.016   5.462  18.716  0.00  0.00    +0.000 N 
ATOM     20  C   UNL     1       1.995   6.273  19.833  0.00  0.00    +0.000 C 
ATOM     21  O   UNL     1       2.201   5.889  20.982  0.00  0.00    +0.000 OA
ATOM     22  H   UNL     1       2.040   5.931  17.822  0.00  0.00    +0.000 HD
BRANCH  20  23
ATOM     23  C   UNL     1       1.796   7.697  19.531  0.00  0.00    +0.000 A 
ATOM     24  C   UNL     1       2.149   8.237  18.309  0.00  0.00    +0.000 A 
ATOM     25  S   UNL     1       1.777   9.894  18.259  0.00  0.00    +0.000 S 
ATOM     26  C   UNL     1       1.255   9.835  19.911  0.00  0.00    +0.000 A 
ATOM     27  N   UNL     1       1.240   8.617  20.432  0.00  0.00    +0.000 NA
BRANCH  26  28
ATOM     28  C   UNL     1       0.833  11.077  20.577  0.00  0.00    +0.000 A 
ATOM     29  C   UNL     1      -0.188  11.069  21.533  0.00  0.00    +0.000 A 
ATOM     30  F   UNL     1      -0.799   9.923  21.870  0.00  0.00    +0.000 F 
ATOM     31  C   UNL     1      -0.625  12.247  22.154  0.00  0.00    +0.000 A 
ATOM     32  C   UNL     1      -0.046  13.466  21.834  0.00  0.00    +0.000 A 
ATOM     33  C   UNL     1       0.987  13.506  20.897  0.00  0.00    +0.000 A 
ATOM     34  C   UNL     1       1.419  12.321  20.292  0.00  0.00    +0.000 A 
ATOM     35  F   UNL     1       2.441  12.421  19.428  0.00  0.00    +0.000 F 
ENDBRANCH  26  28
ENDBRANCH  20  23
ENDBRANCH   2  19
TORSDOF 6
ENDMDL
MODEL 4
REMARK VINA RESULT:      -7.6      1.228      1.698
REMARK  Name = 
REMARK  8 active torsions:
REMARK  status: ('A' for Active; 'I' for Inactive)
REMARK    1  A    between atoms: C_1  and  O_2
REMARK    2  A    between atoms: O_2  and  C_3
REMARK    3  A    between atoms: C_6  and  C_7
REMARK    4  A    between atoms: C_8  and  N_9
REMARK    5  A    between atoms: C_10  and  C_12
REMARK    6  A    between atoms: C_15  and  C_16
REMARK    7  A    between atoms: N_27  and  C_28
REMARK    8  A    between atoms: C_31  and  N_32
REMARK                            x       y       z     vdW  Elec       q    Type
REMARK                         _______ _______ _______ _____ _____    ______ ____
ROOT
ATOM      1  C   UNL     1       4.241   3.853  19.664  0.00  0.00    +0.000 A 
ATOM      2  C   UNL     1       3.152   4.603  20.087  0.00  0.00    +0.000 A 
ATOM      3  C   UNL     1       2.375   3.717  20.866  0.00  0.00    +0.000 A 
ATOM      4  N   UNL     1       2.865   2.481  20.876  0.00  0.00    +0.000 NA
ATOM      5  N   UNL     1       3.987   2.576  20.139  0.00  0.00    +0.000 N 
ATOM      6  C   UNL     1       4.805   1.392  19.997  0.00  0.00    +0.000 C 
ENDROOT
BRANCH   1  10
ATOM      7  C   UNL     1       6.133   5.976  16.317  0.00  0.00    +0.000 C 
ATOM      8  C   UNL     1       4.951   5.160  16.874  0.00  0.00    +0.000 C 
ATOM      9  O   UNL     1       5.387   4.024  17.609  0.00  0.00    +0.000 OA
ATOM     10  C   UNL     1       5.557   4.186  19.008  0.00  0.00    +0.000 C 
ATOM     11  C   UNL     1       6.216   5.487  19.475  0.00  0.00    +0.000 C 
ATOM     12  C   UNL     1       7.359   5.996  18.600  0.00  0.00    +0.000 C 
ATOM     13  C   UNL     1       6.829   6.822  17.412  0.00  0.00    +0.000 C 
BRANCH  13  14
ATOM     14  N   UNL     1       7.938   7.591  16.816  0.00  0.00    +0.000 NA
ATOM     15  H   UNL     1       7.524   8.254  16.155  0.00  0.00    +0.000 HD
ATOM     16  H   UNL     1       8.537   6.975  16.268  0.00  0.00    +0.000 HD
ENDBRANCH  13  14
BRANCH   7  18
ATOM     17  C   UNL     1       6.730   4.646  14.419  0.00  0.00    +0.000 C 
ATOM     18  O   UNL     1       7.129   5.137  15.692  0.00  0.00    +0.000 OA
ENDBRANCH   7  18
ENDBRANCH   1  10
BRANCH   2  19
ATOM     19  N   UNL     1       2.894   5.944  19.850  0.00  0.00    +0.000 N 
ATOM     20  C   UNL     1       2.233   6.360  18.711  0.00  0.00    +0.000 C 
ATOM     21  O   UNL     1       1.825   5.613  17.826  0.00  0.00    +0.000 OA
ATOM     22  H   UNL     1       2.987   6.627  20.589  0.00  0.00    +0.000 HD
BRANCH  20  23
ATOM     23  C   UNL     1       1.959   7.803  18.676  0.00  0.00    +0.000 A 
ATOM     24  C   UNL     1       2.644   8.652  17.829  0.00  0.00    +0.000 A 
ATOM     25  S   UNL     1       2.090  10.248  18.008  0.00  0.00    +0.000 S 
ATOM     26  C   UNL     1       1.031   9.746  19.284  0.00  0.00    +0.000 A 
ATOM     27  N   UNL     1       1.000   8.436  19.480  0.00  0.00    +0.000 NA
BRANCH  26  28
ATOM     28  C   UNL     1       0.233  10.756  19.998  0.00  0.00    +0.000 A 
ATOM     29  C   UNL     1       0.350  10.917  21.383  0.00  0.00    +0.000 A 
ATOM     30  F   UNL     1       1.201  10.158  22.090  0.00  0.00    +0.000 F 
ATOM     31  C   UNL     1      -0.425  11.851  22.083  0.00  0.00    +0.000 A 
ATOM     32  C   UNL     1      -1.337  12.652  21.412  0.00  0.00    +0.000 A 
ATOM     33  C   UNL     1      -1.464  12.529  20.028  0.00  0.00    +0.000 A 
ATOM     34  C   UNL     1      -0.678  11.599  19.340  0.00  0.00    +0.000 A 
ATOM     35  F   UNL     1      -0.820  11.554  18.007  0.00  0.00    +0.000 F 
ENDBRANCH  26  28
ENDBRANCH  20  23
ENDBRANCH   2  19
TORSDOF 6
ENDMDL
MODEL 5
REMARK VINA RESULT:      -7.5      1.192      1.192
REMARK  Name = 
REMARK  8 active torsions:
REMARK  status: ('A' for Active; 'I' for Inactive)
REMARK    1  A    between atoms: C_1  and  O_2
REMARK    2  A    between atoms: O_2  and  C_3
REMARK    3  A    between atoms: C_6  and  C_7
REMARK    4  A    between atoms: C_8  and  N_9
REMARK    5  A    between atoms: C_10  and  C_12
REMARK    6  A    between atoms: C_15  and  C_16
REMARK    7  A    between atoms: N_27  and  C_28
REMARK    8  A    between atoms: C_31  and  N_32
REMARK                            x       y       z     vdW  Elec       q    Type
REMARK                         _______ _______ _______ _____ _____    ______ ____
ROOT
ATOM      1  C   UNL     1       4.222   3.800  19.687  0.00  0.00    +0.000 A 
ATOM      2  C   UNL     1       3.134   4.550  20.111  0.00  0.00    +0.000 A 
ATOM      3  C   UNL     1       2.359   3.666  20.895  0.00  0.00    +0.000 A 
ATOM      4  N   UNL     1       2.849   2.430  20.905  0.00  0.00    +0.000 NA
ATOM      5  N   UNL     1       3.969   2.524  20.165  0.00  0.00    +0.000 N 
ATOM      6  C   UNL     1       4.786   1.339  20.023  0.00  0.00    +0.000 C 
ENDROOT
BRANCH   1  10
ATOM      7  C   UNL     1       6.103   5.893  16.316  0.00  0.00    +0.000 C 
ATOM      8  C   UNL     1       4.925   5.079  16.883  0.00  0.00    +0.000 C 
ATOM      9  O   UNL     1       5.366   3.953  17.630  0.00  0.00    +0.000 OA
ATOM     10  C   UNL     1       5.536   4.131  19.027  0.00  0.00    +0.000 C 
ATOM     11  C   UNL     1       6.189   5.440  19.479  0.00  0.00    +0.000 C 
ATOM     12  C   UNL     1       7.330   5.945  18.598  0.00  0.00    +0.000 C 
ATOM     13  C   UNL     1       6.796   6.754  17.401  0.00  0.00    +0.000 C 
BRANCH  13  14
ATOM     14  N   UNL     1       7.901   7.522  16.796  0.00  0.00    +0.000 NA
ATOM     15  H   UNL     1       7.565   8.479  16.660  0.00  0.00    +0.000 HD
ATOM     16  H   UNL     1       8.114   7.158  15.868  0.00  0.00    +0.000 HD
ENDBRANCH  13  14
BRANCH   7  18
ATOM     17  C   UNL     1       6.700   4.536  14.438  0.00  0.00    +0.000 C 
ATOM     18  O   UNL     1       7.103   5.052  15.700  0.00  0.00    +0.000 OA
ENDBRANCH   7  18
ENDBRANCH   1  10
BRANCH   2  19
ATOM     19  N   UNL     1       2.875   5.891  19.873  0.00  0.00    +0.000 N 
ATOM     20  C   UNL     1       2.245   6.309  18.718  0.00  0.00    +0.000 C 
ATOM     21  O   UNL     1       1.866   5.563  17.818  0.00  0.00    +0.000 OA
ATOM     22  H   UNL     1       2.944   6.571  20.617  0.00  0.00    +0.000 HD
BRANCH  20  23
ATOM     23  C   UNL     1       1.965   7.750  18.681  0.00  0.00    +0.000 A 
ATOM     24  C   UNL     1       2.668   8.606  17.856  0.00  0.00    +0.000 A 
ATOM     25  S   UNL     1       2.100  10.199  18.026  0.00  0.00    +0.000 S 
ATOM     26  C   UNL     1       1.009   9.686  19.271  0.00  0.00    +0.000 A 
ATOM     27  N   UNL     1       0.980   8.375  19.460  0.00  0.00    +0.000 NA
BRANCH  26  28
ATOM     28  C   UNL     1       0.188  10.689  19.966  0.00  0.00    +0.000 A 
ATOM     29  C   UNL     1      -0.779  11.430  19.277  0.00  0.00    +0.000 A 
ATOM     30  F   UNL     1      -0.984  11.233  17.966  0.00  0.00    +0.000 F 
ATOM     31  C   UNL     1      -1.547  12.412  19.916  0.00  0.00    +0.000 A 
ATOM     32  C   UNL     1      -1.369  12.676  21.266  0.00  0.00    +0.000 A 
ATOM     33  C   UNL     1      -0.425  11.943  21.986  0.00  0.00    +0.000 A 
ATOM     34  C   UNL     1       0.329  10.959  21.337  0.00  0.00    +0.000 A 
ATOM     35  F   UNL     1       1.193  10.263  22.092  0.00  0.00    +0.000 F 
ENDBRANCH  26  28
ENDBRANCH  20  23
ENDBRANCH   2  19
TORSDOF 6
ENDMDL
MODEL 6
REMARK VINA RESULT:      -7.4      3.926      8.902
REMARK  Name = 
REMARK  8 active torsions:
REMARK  status: ('A' for Active; 'I' for Inactive)
REMARK    1  A    between atoms: C_1  and  O_2
REMARK    2  A    between atoms: O_2  and  C_3
REMARK    3  A    between atoms: C_6  and  C_7
REMARK    4  A    between atoms: C_8  and  N_9
REMARK    5  A    between atoms: C_10  and  C_12
REMARK    6  A    between atoms: C_15  and  C_16
REMARK    7  A    between atoms: N_27  and  C_28
REMARK    8  A    between atoms: C_31  and  N_32
REMARK                            x       y       z     vdW  Elec       q    Type
REMARK                         _______ _______ _______ _____ _____    ______ ____
ROOT
ATOM      1  C   UNL     1      -0.165  12.579  21.829  0.00  0.00    +0.000 A 
ATOM      2  C   UNL     1      -0.190  11.196  21.712  0.00  0.00    +0.000 A 
ATOM      3  C   UNL     1      -1.070  10.757  22.727  0.00  0.00    +0.000 A 
ATOM      4  N   UNL     1      -1.506  11.754  23.492  0.00  0.00    +0.000 NA
ATOM      5  N   UNL     1      -0.944  12.847  22.943  0.00  0.00    +0.000 N 
ATOM      6  C   UNL     1      -1.269  14.134  23.517  0.00  0.00    +0.000 C 
ENDROOT
BRANCH   1  10
ATOM      7  C   UNL     1       3.427  14.249  19.932  0.00  0.00    +0.000 C 
ATOM      8  C   UNL     1       2.771  13.508  21.112  0.00  0.00    +0.000 C 
ATOM      9  O   UNL     1       1.577  14.145  21.544  0.00  0.00    +0.000 OA
ATOM     10  C   UNL     1       0.360  13.698  20.966  0.00  0.00    +0.000 C 
ATOM     11  C   UNL     1       0.377  13.418  19.461  0.00  0.00    +0.000 C 
ATOM     12  C   UNL     1       1.198  14.392  18.619  0.00  0.00    +0.000 C 
ATOM     13  C   UNL     1       2.685  13.995  18.596  0.00  0.00    +0.000 C 
BRANCH  13  14
ATOM     14  N   UNL     1       3.369  14.715  17.504  0.00  0.00    +0.000 NA
ATOM     15  H   UNL     1       4.270  14.253  17.355  0.00  0.00    +0.000 HD
ATOM     16  H   UNL     1       3.579  15.669  17.791  0.00  0.00    +0.000 HD
ENDBRANCH  13  14
BRANCH   7  18
ATOM     17  C   UNL     1       4.562  16.065  20.999  0.00  0.00    +0.000 C 
ATOM     18  O   UNL     1       3.491  15.675  20.150  0.00  0.00    +0.000 OA
ENDBRANCH   7  18
ENDBRANCH   1  10
BRANCH   2  19
ATOM     19  N   UNL     1       0.456  10.404  20.776  0.00  0.00    +0.000 N 
ATOM     20  C   UNL     1       1.085   9.230  21.138  0.00  0.00    +0.000 C 
ATOM     21  O   UNL     1       1.136   8.786  22.282  0.00  0.00    +0.000 OA
ATOM     22  H   UNL     1       0.307  10.547  19.787  0.00  0.00    +0.000 HD
BRANCH  20  23
ATOM     23  C   UNL     1       1.630   8.473  20.003  0.00  0.00    +0.000 A 
ATOM     24  C   UNL     1       1.721   9.023  18.739  0.00  0.00    +0.000 A 
ATOM     25  S   UNL     1       2.408   7.912  17.652  0.00  0.00    +0.000 S 
ATOM     26  C   UNL     1       2.456   6.710  18.899  0.00  0.00    +0.000 A 
ATOM     27  N   UNL     1       2.098   7.154  20.095  0.00  0.00    +0.000 NA
BRANCH  26  28
ATOM     28  C   UNL     1       2.921   5.353  18.573  0.00  0.00    +0.000 A 
ATOM     29  C   UNL     1       2.145   4.497  17.784  0.00  0.00    +0.000 A 
ATOM     30  F   UNL     1       0.961   4.901  17.299  0.00  0.00    +0.000 F 
ATOM     31  C   UNL     1       2.557   3.190  17.491  0.00  0.00    +0.000 A 
ATOM     32  C   UNL     1       3.762   2.707  17.979  0.00  0.00    +0.000 A 
ATOM     33  C   UNL     1       4.568   3.541  18.754  0.00  0.00    +0.000 A 
ATOM     34  C   UNL     1       4.148   4.847  19.031  0.00  0.00    +0.000 A 
ATOM     35  F   UNL     1       4.985   5.611  19.750  0.00  0.00    +0.000 F 
ENDBRANCH  26  28
ENDBRANCH  20  23
ENDBRANCH   2  19
TORSDOF 6
ENDMDL
MODEL 7
REMARK VINA RESULT:      -7.4      3.958      9.018
REMARK  Name = 
REMARK  8 active torsions:
REMARK  status: ('A' for Active; 'I' for Inactive)
REMARK    1  A    between atoms: C_1  and  O_2
REMARK    2  A    between atoms: O_2  and  C_3
REMARK    3  A    between atoms: C_6  and  C_7
REMARK    4  A    between atoms: C_8  and  N_9
REMARK    5  A    between atoms: C_10  and  C_12
REMARK    6  A    between atoms: C_15  and  C_16
REMARK    7  A    between atoms: N_27  and  C_28
REMARK    8  A    between atoms: C_31  and  N_32
REMARK                            x       y       z     vdW  Elec       q    Type
REMARK                         _______ _______ _______ _____ _____    ______ ____
ROOT
ATOM      1  C   UNL     1      -0.113  12.635  21.722  0.00  0.00    +0.000 A 
ATOM      2  C   UNL     1      -0.125  11.249  21.633  0.00  0.00    +0.000 A 
ATOM      3  C   UNL     1      -0.999  10.822  22.658  0.00  0.00    +0.000 A 
ATOM      4  N   UNL     1      -1.444  11.829  23.403  0.00  0.00    +0.000 NA
ATOM      5  N   UNL     1      -0.894  12.917  22.831  0.00  0.00    +0.000 N 
ATOM      6  C   UNL     1      -1.231  14.212  23.379  0.00  0.00    +0.000 C 
ENDROOT
BRANCH   1  10
ATOM      7  C   UNL     1       3.470  14.341  19.841  0.00  0.00    +0.000 C 
ATOM      8  C   UNL     1       2.811  13.618  21.030  0.00  0.00    +0.000 C 
ATOM      9  O   UNL     1       1.593  14.237  21.421  0.00  0.00    +0.000 OA
ATOM     10  C   UNL     1       0.399  13.742  20.836  0.00  0.00    +0.000 C 
ATOM     11  C   UNL     1       0.451  13.419  19.340  0.00  0.00    +0.000 C 
ATOM     12  C   UNL     1       1.262  14.389  18.484  0.00  0.00    +0.000 C 
ATOM     13  C   UNL     1       2.760  14.030  18.499  0.00  0.00    +0.000 C 
BRANCH  13  14
ATOM     14  N   UNL     1       3.444  14.735  17.399  0.00  0.00    +0.000 NA
ATOM     15  H   UNL     1       3.236  15.732  17.503  0.00  0.00    +0.000 HD
ATOM     16  H   UNL     1       3.051  14.451  16.503  0.00  0.00    +0.000 HD
ENDBRANCH  13  14
BRANCH   7  18
ATOM     17  C   UNL     1       4.755  16.266  20.448  0.00  0.00    +0.000 C 
ATOM     18  O   UNL     1       3.492  15.775  20.018  0.00  0.00    +0.000 OA
ENDBRANCH   7  18
ENDBRANCH   1  10
BRANCH   2  19
ATOM     19  N   UNL     1       0.529  10.446  20.712  0.00  0.00    +0.000 N 
ATOM     20  C   UNL     1       1.090   9.239  21.079  0.00  0.00    +0.000 C 
ATOM     21  O   UNL     1       1.069   8.774  22.216  0.00  0.00    +0.000 OA
ATOM     22  H   UNL     1       0.431  10.611  19.720  0.00  0.00    +0.000 HD
BRANCH  20  23
ATOM     23  C   UNL     1       1.652   8.478  19.956  0.00  0.00    +0.000 A 
ATOM     24  C   UNL     1       1.791   9.034  18.699  0.00  0.00    +0.000 A 
ATOM     25  S   UNL     1       2.487   7.915  17.625  0.00  0.00    +0.000 S 
ATOM     26  C   UNL     1       2.474   6.705  18.865  0.00  0.00    +0.000 A 
ATOM     27  N   UNL     1       2.090   7.149  20.053  0.00  0.00    +0.000 NA
BRANCH  26  28
ATOM     28  C   UNL     1       2.921   5.340  18.544  0.00  0.00    +0.000 A 
ATOM     29  C   UNL     1       4.148   4.857  19.011  0.00  0.00    +0.000 A 
ATOM     30  F   UNL     1       4.941   5.627  19.773  0.00  0.00    +0.000 F 
ATOM     31  C   UNL     1       4.604   3.572  18.688  0.00  0.00    +0.000 A 
ATOM     32  C   UNL     1       3.839   2.735  17.889  0.00  0.00    +0.000 A 
ATOM     33  C   UNL     1       2.603   3.181  17.421  0.00  0.00    +0.000 A 
ATOM     34  C   UNL     1       2.156   4.463  17.759  0.00  0.00    +0.000 A 
ATOM     35  F   UNL     1       0.943   4.818  17.310  0.00  0.00    +0.000 F 
ENDBRANCH  26  28
ENDBRANCH  20  23
ENDBRANCH   2  19
TORSDOF 6
ENDMDL
MODEL 8
REMARK VINA RESULT:      -7.3      1.964      4.357
REMARK  Name = 
REMARK  8 active torsions:
REMARK  status: ('A' for Active; 'I' for Inactive)
REMARK    1  A    between atoms: C_1  and  O_2
REMARK    2  A    between atoms: O_2  and  C_3
REMARK    3  A    between atoms: C_6  and  C_7
REMARK    4  A    between atoms: C_8  and  N_9
REMARK    5  A    between atoms: C_10  and  C_12
REMARK    6  A    between atoms: C_15  and  C_16
REMARK    7  A    between atoms: N_27  and  C_28
REMARK    8  A    between atoms: C_31  and  N_32
REMARK                            x       y       z     vdW  Elec       q    Type
REMARK                         _______ _______ _______ _____ _____    ______ ____
ROOT
ATOM      1  C   UNL     1       5.313   5.288  17.566  0.00  0.00    +0.000 A 
ATOM      2  C   UNL     1       5.084   6.644  17.758  0.00  0.00    +0.000 A 
ATOM      3  C   UNL     1       6.043   7.297  16.952  0.00  0.00    +0.000 A 
ATOM      4  N   UNL     1       6.879   6.447  16.361  0.00  0.00    +0.000 NA
ATOM      5  N   UNL     1       6.430   5.238  16.748  0.00  0.00    +0.000 N 
ATOM      6  C   UNL     1       7.101   4.069  16.223  0.00  0.00    +0.000 C 
ENDROOT
BRANCH   1  10
ATOM      7  C   UNL     1       1.885   3.684  19.794  0.00  0.00    +0.000 C 
ATOM      8  C   UNL     1       3.034   4.703  19.678  0.00  0.00    +0.000 C 
ATOM      9  O   UNL     1       4.257   4.087  19.301  0.00  0.00    +0.000 OA
ATOM     10  C   UNL     1       4.554   4.033  17.915  0.00  0.00    +0.000 C 
ATOM     11  C   UNL     1       3.396   3.681  16.977  0.00  0.00    +0.000 C 
ATOM     12  C   UNL     1       2.429   2.619  17.495  0.00  0.00    +0.000 C 
ATOM     13  C   UNL     1       1.355   3.238  18.408  0.00  0.00    +0.000 C 
BRANCH  13  14
ATOM     14  N   UNL     1       0.249   2.278  18.585  0.00  0.00    +0.000 NA
ATOM     15  H   UNL     1       0.239   2.006  19.572  0.00  0.00    +0.000 HD
ATOM     16  H   UNL     1       0.434   1.428  18.055  0.00  0.00    +0.000 HD
ENDBRANCH  13  14
BRANCH   7  18
ATOM     17  C   UNL     1       1.834   2.515  21.881  0.00  0.00    +0.000 C 
ATOM     18  O   UNL     1       2.275   2.503  20.530  0.00  0.00    +0.000 OA
ENDBRANCH   7  18
ENDBRANCH   1  10
BRANCH   2  19
ATOM     19  N   UNL     1       4.099   7.244  18.526  0.00  0.00    +0.000 N 
ATOM     20  C   UNL     1       3.060   7.944  17.944  0.00  0.00    +0.000 C 
ATOM     21  O   UNL     1       2.911   8.101  16.735  0.00  0.00    +0.000 OA
ATOM     22  H   UNL     1       3.991   7.013  19.503  0.00  0.00    +0.000 HD
BRANCH  20  23
ATOM     23  C   UNL     1       2.057   8.425  18.904  0.00  0.00    +0.000 A 
ATOM     24  C   UNL     1       1.845   7.792  20.113  0.00  0.00    +0.000 A 
ATOM     25  S   UNL     1       0.642   8.595  21.004  0.00  0.00    +0.000 S 
ATOM     26  C   UNL     1       0.387   9.692  19.688  0.00  0.00    +0.000 A 
ATOM     27  N   UNL     1       1.243   9.546  18.686  0.00  0.00    +0.000 NA
BRANCH  26  28
ATOM     28  C   UNL     1      -0.680  10.701  19.787  0.00  0.00    +0.000 A 
ATOM     29  C   UNL     1      -1.743  10.715  18.877  0.00  0.00    +0.000 A 
ATOM     30  F   UNL     1      -1.817   9.799  17.898  0.00  0.00    +0.000 F 
ATOM     31  C   UNL     1      -2.750  11.687  18.937  0.00  0.00    +0.000 A 
ATOM     32  C   UNL     1      -2.719  12.671  19.913  0.00  0.00    +0.000 A 
ATOM     33  C   UNL     1      -1.682  12.675  20.846  0.00  0.00    +0.000 A 
ATOM     34  C   UNL     1      -0.689  11.693  20.781  0.00  0.00    +0.000 A 
ATOM     35  F   UNL     1       0.260  11.728  21.728  0.00  0.00    +0.000 F 
ENDBRANCH  26  28
ENDBRANCH  20  23
ENDBRANCH   2  19
TORSDOF 6
ENDMDL
MODEL 9
REMARK VINA RESULT:      -7.3      1.967      4.580
REMARK  Name = 
REMARK  8 active torsions:
REMARK  status: ('A' for Active; 'I' for Inactive)
REMARK    1  A    between atoms: C_1  and  O_2
REMARK    2  A    between atoms: O_2  and  C_3
REMARK    3  A    between atoms: C_6  and  C_7
REMARK    4  A    between atoms: C_8  and  N_9
REMARK    5  A    between atoms: C_10  and  C_12
REMARK    6  A    between atoms: C_15  and  C_16
REMARK    7  A    between atoms: N_27  and  C_28
REMARK    8  A    between atoms: C_31  and  N_32
REMARK                            x       y       z     vdW  Elec       q    Type
REMARK                         _______ _______ _______ _____ _____    ______ ____
ROOT
ATOM      1  C   UNL     1       5.278   5.266  17.551  0.00  0.00    +0.000 A 
ATOM      2  C   UNL     1       5.044   6.623  17.729  0.00  0.00    +0.000 A 
ATOM      3  C   UNL     1       5.994   7.271  16.907  0.00  0.00    +0.000 A 
ATOM      4  N   UNL     1       6.828   6.418  16.320  0.00  0.00    +0.000 NA
ATOM      5  N   UNL     1       6.389   5.212  16.725  0.00  0.00    +0.000 N 
ATOM      6  C   UNL     1       7.061   4.039  16.208  0.00  0.00    +0.000 C 
ENDROOT
BRANCH   1  10
ATOM      7  C   UNL     1       1.864   3.675  19.809  0.00  0.00    +0.000 C 
ATOM      8  C   UNL     1       3.005   4.700  19.675  0.00  0.00    +0.000 C 
ATOM      9  O   UNL     1       4.233   4.086  19.306  0.00  0.00    +0.000 OA
ATOM     10  C   UNL     1       4.528   4.012  17.921  0.00  0.00    +0.000 C 
ATOM     11  C   UNL     1       3.371   3.637  16.991  0.00  0.00    +0.000 C 
ATOM     12  C   UNL     1       2.413   2.576  17.527  0.00  0.00    +0.000 C 
ATOM     13  C   UNL     1       1.335   3.203  18.431  0.00  0.00    +0.000 C 
BRANCH  13  14
ATOM     14  N   UNL     1       0.235   2.239  18.625  0.00  0.00    +0.000 NA
ATOM     15  H   UNL     1       0.375   1.482  17.950  0.00  0.00    +0.000 HD
ATOM     16  H   UNL     1      -0.656   2.672  18.391  0.00  0.00    +0.000 HD
ENDBRANCH  13  14
BRANCH   7  18
ATOM     17  C   UNL     1       1.748   2.496  21.888  0.00  0.00    +0.000 C 
ATOM     18  O   UNL     1       2.263   2.509  20.563  0.00  0.00    +0.000 OA
ENDBRANCH   7  18
ENDBRANCH   1  10
BRANCH   2  19
ATOM     19  N   UNL     1       4.062   7.228  18.497  0.00  0.00    +0.000 N 
ATOM     20  C   UNL     1       3.059   7.981  17.921  0.00  0.00    +0.000 C 
ATOM     21  O   UNL     1       2.941   8.184  16.715  0.00  0.00    +0.000 OA
ATOM     22  H   UNL     1       3.927   6.966  19.463  0.00  0.00    +0.000 HD
BRANCH  20  23
ATOM     23  C   UNL     1       2.052   8.461  18.876  0.00  0.00    +0.000 A 
ATOM     24  C   UNL     1       1.843   7.833  20.089  0.00  0.00    +0.000 A 
ATOM     25  S   UNL     1       0.633   8.632  20.974  0.00  0.00    +0.000 S 
ATOM     26  C   UNL     1       0.372   9.720  19.651  0.00  0.00    +0.000 A 
ATOM     27  N   UNL     1       1.230   9.574  18.652  0.00  0.00    +0.000 NA
BRANCH  26  28
ATOM     28  C   UNL     1      -0.702  10.721  19.743  0.00  0.00    +0.000 A 
ATOM     29  C   UNL     1      -0.703  11.684  20.758  0.00  0.00    +0.000 A 
ATOM     30  F   UNL     1       0.286  11.721  21.665  0.00  0.00    +0.000 F 
ATOM     31  C   UNL     1      -1.734  12.625  20.880  0.00  0.00    +0.000 A 
ATOM     32  C   UNL     1      -2.793  12.626  19.985  0.00  0.00    +0.000 A 
ATOM     33  C   UNL     1      -2.814  11.690  18.951  0.00  0.00    +0.000 A 
ATOM     34  C   UNL     1      -1.773  10.763  18.835  0.00  0.00    +0.000 A 
ATOM     35  F   UNL     1      -1.832   9.913  17.799  0.00  0.00    +0.000 F 
ENDBRANCH  26  28
ENDBRANCH  20  23
ENDBRANCH   2  19
TORSDOF 6
ENDMDL
