MODEL 1
REMARK VINA RESULT:      -6.1      0.000      0.000
REMARK  Name = 
REMARK  7 active torsions:
REMARK  status: ('A' for Active; 'I' for Inactive)
REMARK    1  A    between atoms: C_1  and  C_2
REMARK    2  A    between atoms: C_2  and  C_3
REMARK    3  A    between atoms: C_3  and  C_4
REMARK    4  A    between atoms: C_4  and  O_5
REMARK    5  A    between atoms: O_5  and  C_6
REMARK    6  A    between atoms: C_9  and  C_10
REMARK    7  A    between atoms: C_10  and  N_11
REMARK                            x       y       z     vdW  Elec       q    Type
REMARK                         _______ _______ _______ _____ _____    ______ ____
ROOT
ATOM      1  C   UNL     1       2.160   4.161  17.680  0.00  0.00    +0.000 A 
ATOM      2  C   UNL     1       2.352   5.499  18.033  0.00  0.00    +0.000 A 
ATOM      3  C   UNL     1       3.569   6.134  17.788  0.00  0.00    +0.000 A 
ATOM      4  C   UNL     1       4.621   5.445  17.178  0.00  0.00    +0.000 A 
ATOM      5  C   UNL     1       4.436   4.098  16.836  0.00  0.00    +0.000 A 
ATOM      6  C   UNL     1       3.212   3.463  17.082  0.00  0.00    +0.000 A 
ENDROOT
BRANCH   1   7
ATOM      7  O   UNL     1       1.000   3.452  17.881  0.00  0.00    +0.000 OA
BRANCH   7   8
ATOM      8  C   UNL     1       1.028   2.576  19.010  0.00  0.00    +0.000 C 
BRANCH   8   9
ATOM      9  C   UNL     1       0.675   3.317  20.293  0.00  0.00    +0.000 C 
BRANCH   9  11
ATOM     10  C   UNL     1       3.067   2.659  20.788  0.00  0.00    +0.000 C 
ATOM     11  C   UNL     1       1.706   2.987  21.373  0.00  0.00    +0.000 C 
ENDBRANCH   9  11
ENDBRANCH   8   9
ENDBRANCH   7   8
ENDBRANCH   1   7
BRANCH   4  12
ATOM     12  C   UNL     1       5.928   6.150  16.948  0.00  0.00    +0.000 C 
BRANCH  12  13
ATOM     13  N   UNL     1       6.800   6.004  18.086  0.00  0.00    +0.000 N 
ATOM     14  C   UNL     1       7.782   5.050  18.102  0.00  0.00    +0.000 C 
ATOM     15  O   UNL     1       8.005   4.250  17.203  0.00  0.00    +0.000 OA
ATOM     16  H   UNL     1       6.714   6.645  18.864  0.00  0.00    +0.000 HD
ENDBRANCH  12  13
ENDBRANCH   4  12
TORSDOF 6
ENDMDL
MODEL 2
REMARK VINA RESULT:      -5.8      0.876      1.516
REMARK  Name = 
REMARK  7 active torsions:
REMARK  status: ('A' for Active; 'I' for Inactive)
REMARK    1  A    between atoms: C_1  and  C_2
REMARK    2  A    between atoms: C_2  and  C_3
REMARK    3  A    between atoms: C_3  and  C_4
REMARK    4  A    between atoms: C_4  and  O_5
REMARK    5  A    between atoms: O_5  and  C_6
REMARK    6  A    between atoms: C_9  and  C_10
REMARK    7  A    between atoms: C_10  and  N_11
REMARK                            x       y       z     vdW  Elec       q    Type
REMARK                         _______ _______ _______ _____ _____    ______ ____
ROOT
ATOM      1  C   UNL     1       2.321   4.176  17.672  0.00  0.00    +0.000 A 
ATOM      2  C   UNL     1       3.500   3.608  17.185  0.00  0.00    +0.000 A 
ATOM      3  C   UNL     1       4.678   4.350  17.127  0.00  0.00    +0.000 A 
ATOM      4  C   UNL     1       4.706   5.679  17.562  0.00  0.00    +0.000 A 
ATOM      5  C   UNL     1       3.521   6.256  18.038  0.00  0.00    +0.000 A 
ATOM      6  C   UNL     1       2.338   5.508  18.097  0.00  0.00    +0.000 A 
ENDROOT
BRANCH   1   7
ATOM      7  O   UNL     1       1.114   3.526  17.768  0.00  0.00    +0.000 OA
BRANCH   7   8
ATOM      8  C   UNL     1       1.020   2.609  18.861  0.00  0.00    +0.000 C 
BRANCH   8   9
ATOM      9  C   UNL     1       0.654   3.327  20.153  0.00  0.00    +0.000 C 
BRANCH   9  11
ATOM     10  C   UNL     1       2.943   2.730  21.048  0.00  0.00    +0.000 C 
ATOM     11  C   UNL     1       1.449   2.727  21.314  0.00  0.00    +0.000 C 
ENDBRANCH   9  11
ENDBRANCH   8   9
ENDBRANCH   7   8
ENDBRANCH   1   7
BRANCH   4  12
ATOM     12  C   UNL     1       5.986   6.459  17.465  0.00  0.00    +0.000 C 
BRANCH  12  13
ATOM     13  N   UNL     1       7.130   5.584  17.527  0.00  0.00    +0.000 N 
ATOM     14  C   UNL     1       7.666   5.210  18.730  0.00  0.00    +0.000 C 
ATOM     15  O   UNL     1       7.262   5.571  19.827  0.00  0.00    +0.000 OA
ATOM     16  H   UNL     1       7.512   5.205  16.670  0.00  0.00    +0.000 HD
ENDBRANCH  12  13
ENDBRANCH   4  12
TORSDOF 6
ENDMDL
MODEL 3
REMARK VINA RESULT:      -5.8      1.397      1.457
REMARK  Name = 
REMARK  7 active torsions:
REMARK  status: ('A' for Active; 'I' for Inactive)
REMARK    1  A    between atoms: C_1  and  C_2
REMARK    2  A    between atoms: C_2  and  C_3
REMARK    3  A    between atoms: C_3  and  C_4
REMARK    4  A    between atoms: C_4  and  O_5
REMARK    5  A    between atoms: O_5  and  C_6
REMARK    6  A    between atoms: C_9  and  C_10
REMARK    7  A    between atoms: C_10  and  N_11
REMARK                            x       y       z     vdW  Elec       q    Type
REMARK                         _______ _______ _______ _____ _____    ______ ____
ROOT
ATOM      1  C   UNL     1       2.650   4.682  17.698  0.00  0.00    +0.000 A 
ATOM      2  C   UNL     1       3.045   6.009  17.885  0.00  0.00    +0.000 A 
ATOM      3  C   UNL     1       4.373   6.390  17.700  0.00  0.00    +0.000 A 
ATOM      4  C   UNL     1       5.337   5.452  17.318  0.00  0.00    +0.000 A 
ATOM      5  C   UNL     1       4.946   4.118  17.144  0.00  0.00    +0.000 A 
ATOM      6  C   UNL     1       3.611   3.737  17.328  0.00  0.00    +0.000 A 
ENDROOT
BRANCH   1   7
ATOM      7  O   UNL     1       1.367   4.212  17.855  0.00  0.00    +0.000 OA
BRANCH   7   8
ATOM      8  C   UNL     1       1.232   3.174  18.828  0.00  0.00    +0.000 C 
BRANCH   8   9
ATOM      9  C   UNL     1       0.843   3.739  20.188  0.00  0.00    +0.000 C 
BRANCH   9  11
ATOM     10  C   UNL     1       3.063   2.756  20.901  0.00  0.00    +0.000 C 
ATOM     11  C   UNL     1       1.616   3.006  21.285  0.00  0.00    +0.000 C 
ENDBRANCH   9  11
ENDBRANCH   8   9
ENDBRANCH   7   8
ENDBRANCH   1   7
BRANCH   4  12
ATOM     12  C   UNL     1       6.764   5.890  17.150  0.00  0.00    +0.000 C 
BRANCH  12  13
ATOM     13  N   UNL     1       6.844   7.311  16.918  0.00  0.00    +0.000 N 
ATOM     14  C   UNL     1       7.692   8.097  17.649  0.00  0.00    +0.000 C 
ATOM     15  O   UNL     1       8.427   7.702  18.544  0.00  0.00    +0.000 OA
ATOM     16  H   UNL     1       6.297   7.723  16.172  0.00  0.00    +0.000 HD
ENDBRANCH  12  13
ENDBRANCH   4  12
TORSDOF 6
ENDMDL
MODEL 4
REMARK VINA RESULT:      -5.8      1.776      2.379
REMARK  Name = 
REMARK  7 active torsions:
REMARK  status: ('A' for Active; 'I' for Inactive)
REMARK    1  A    between atoms: C_1  and  C_2
REMARK    2  A    between atoms: C_2  and  C_3
REMARK    3  A    between atoms: C_3  and  C_4
REMARK    4  A    between atoms: C_4  and  O_5
REMARK    5  A    between atoms: O_5  and  C_6
REMARK    6  A    between atoms: C_9  and  C_10
REMARK    7  A    between atoms: C_10  and  N_11
REMARK                            x       y       z     vdW  Elec       q    Type
REMARK                         _______ _______ _______ _____ _____    ______ ____
ROOT
ATOM      1  C   UNL     1       2.830   5.662  19.548  0.00  0.00    +0.000 A 
ATOM      2  C   UNL     1       4.098   5.092  19.682  0.00  0.00    +0.000 A 
ATOM      3  C   UNL     1       5.123   5.417  18.796  0.00  0.00    +0.000 A 
ATOM      4  C   UNL     1       4.905   6.326  17.756  0.00  0.00    +0.000 A 
ATOM      5  C   UNL     1       3.630   6.888  17.610  0.00  0.00    +0.000 A 
ATOM      6  C   UNL     1       2.601   6.562  18.503  0.00  0.00    +0.000 A 
ENDROOT
BRANCH   1   7
ATOM      7  O   UNL     1       1.759   5.404  20.370  0.00  0.00    +0.000 OA
BRANCH   7   8
ATOM      8  C   UNL     1       1.641   4.040  20.780  0.00  0.00    +0.000 C 
BRANCH   8   9
ATOM      9  C   UNL     1       0.855   3.224  19.762  0.00  0.00    +0.000 C 
BRANCH   9  11
ATOM     10  C   UNL     1       2.288   2.382  17.855  0.00  0.00    +0.000 C 
ATOM     11  C   UNL     1       1.730   2.086  19.234  0.00  0.00    +0.000 C 
ENDBRANCH   9  11
ENDBRANCH   8   9
ENDBRANCH   7   8
ENDBRANCH   1   7
BRANCH   4  12
ATOM     12  C   UNL     1       6.025   6.638  16.804  0.00  0.00    +0.000 C 
BRANCH  12  13
ATOM     13  N   UNL     1       5.990   5.759  15.662  0.00  0.00    +0.000 N 
ATOM     14  C   UNL     1       6.924   4.771  15.505  0.00  0.00    +0.000 C 
ATOM     15  O   UNL     1       7.852   4.547  16.271  0.00  0.00    +0.000 OA
ATOM     16  H   UNL     1       5.237   5.847  14.991  0.00  0.00    +0.000 HD
ENDBRANCH  12  13
ENDBRANCH   4  12
TORSDOF 6
ENDMDL
MODEL 5
REMARK VINA RESULT:      -5.8      1.690      2.052
REMARK  Name = 
REMARK  7 active torsions:
REMARK  status: ('A' for Active; 'I' for Inactive)
REMARK    1  A    between atoms: C_1  and  C_2
REMARK    2  A    between atoms: C_2  and  C_3
REMARK    3  A    between atoms: C_3  and  C_4
REMARK    4  A    between atoms: C_4  and  O_5
REMARK    5  A    between atoms: O_5  and  C_6
REMARK    6  A    between atoms: C_9  and  C_10
REMARK    7  A    between atoms: C_10  and  N_11
REMARK                            x       y       z     vdW  Elec       q    Type
REMARK                         _______ _______ _______ _____ _____    ______ ____
ROOT
ATOM      1  C   UNL     1       3.537   2.749  18.575  0.00  0.00    +0.000 A 
ATOM      2  C   UNL     1       4.684   3.249  19.194  0.00  0.00    +0.000 A 
ATOM      3  C   UNL     1       5.367   4.340  18.657  0.00  0.00    +0.000 A 
ATOM      4  C   UNL     1       4.912   4.959  17.489  0.00  0.00    +0.000 A 
ATOM      5  C   UNL     1       3.768   4.450  16.858  0.00  0.00    +0.000 A 
ATOM      6  C   UNL     1       3.083   3.356  17.401  0.00  0.00    +0.000 A 
ENDROOT
BRANCH   1   7
ATOM      7  O   UNL     1       2.798   1.682  19.029  0.00  0.00    +0.000 OA
BRANCH   7   8
ATOM      8  C   UNL     1       1.449   2.001  19.380  0.00  0.00    +0.000 C 
BRANCH   8   9
ATOM      9  C   UNL     1       1.390   2.805  20.671  0.00  0.00    +0.000 C 
BRANCH   9  11
ATOM     10  C   UNL     1       1.888   5.285  20.632  0.00  0.00    +0.000 C 
ATOM     11  C   UNL     1       0.852   4.206  20.376  0.00  0.00    +0.000 C 
ENDBRANCH   9  11
ENDBRANCH   8   9
ENDBRANCH   7   8
ENDBRANCH   1   7
BRANCH   4  12
ATOM     12  C   UNL     1       5.682   6.118  16.922  0.00  0.00    +0.000 C 
BRANCH  12  13
ATOM     13  N   UNL     1       6.029   5.883  15.543  0.00  0.00    +0.000 N 
ATOM     14  C   UNL     1       7.085   5.078  15.210  0.00  0.00    +0.000 C 
ATOM     15  O   UNL     1       7.821   4.512  16.007  0.00  0.00    +0.000 OA
ATOM     16  H   UNL     1       5.454   6.282  14.812  0.00  0.00    +0.000 HD
ENDBRANCH  12  13
ENDBRANCH   4  12
TORSDOF 6
ENDMDL
MODEL 6
REMARK VINA RESULT:      -5.6      1.578      2.148
REMARK  Name = 
REMARK  7 active torsions:
REMARK  status: ('A' for Active; 'I' for Inactive)
REMARK    1  A    between atoms: C_1  and  C_2
REMARK    2  A    between atoms: C_2  and  C_3
REMARK    3  A    between atoms: C_3  and  C_4
REMARK    4  A    between atoms: C_4  and  O_5
REMARK    5  A    between atoms: O_5  and  C_6
REMARK    6  A    between atoms: C_9  and  C_10
REMARK    7  A    between atoms: C_10  and  N_11
REMARK                            x       y       z     vdW  Elec       q    Type
REMARK                         _______ _______ _______ _____ _____    ______ ____
ROOT
ATOM      1  C   UNL     1       3.405   4.401  18.058  0.00  0.00    +0.000 A 
ATOM      2  C   UNL     1       4.227   3.982  17.010  0.00  0.00    +0.000 A 
ATOM      3  C   UNL     1       5.599   4.227  17.039  0.00  0.00    +0.000 A 
ATOM      4  C   UNL     1       6.181   4.892  18.122  0.00  0.00    +0.000 A 
ATOM      5  C   UNL     1       5.356   5.326  19.168  0.00  0.00    +0.000 A 
ATOM      6  C   UNL     1       3.978   5.078  19.139  0.00  0.00    +0.000 A 
ENDROOT
BRANCH   1   7
ATOM      7  O   UNL     1       2.045   4.206  18.120  0.00  0.00    +0.000 OA
BRANCH   7   8
ATOM      8  C   UNL     1       1.649   2.839  18.265  0.00  0.00    +0.000 C 
BRANCH   8   9
ATOM      9  C   UNL     1       0.609   2.681  19.366  0.00  0.00    +0.000 C 
BRANCH   9  11
ATOM     10  C   UNL     1       1.905   2.917  21.525  0.00  0.00    +0.000 C 
ATOM     11  C   UNL     1       0.967   3.591  20.542  0.00  0.00    +0.000 C 
ENDBRANCH   9  11
ENDBRANCH   8   9
ENDBRANCH   7   8
ENDBRANCH   1   7
BRANCH   4  12
ATOM     12  C   UNL     1       7.660   5.161  18.112  0.00  0.00    +0.000 C 
BRANCH  12  13
ATOM     13  N   UNL     1       7.960   6.419  18.748  0.00  0.00    +0.000 N 
ATOM     14  C   UNL     1       7.929   7.591  18.042  0.00  0.00    +0.000 C 
ATOM     15  O   UNL     1       7.671   7.691  16.850  0.00  0.00    +0.000 OA
ATOM     16  H   UNL     1       8.151   6.439  19.742  0.00  0.00    +0.000 HD
ENDBRANCH  12  13
ENDBRANCH   4  12
TORSDOF 6
ENDMDL
MODEL 7
REMARK VINA RESULT:      -5.6      1.419      1.898
REMARK  Name = 
REMARK  7 active torsions:
REMARK  status: ('A' for Active; 'I' for Inactive)
REMARK    1  A    between atoms: C_1  and  C_2
REMARK    2  A    between atoms: C_2  and  C_3
REMARK    3  A    between atoms: C_3  and  C_4
REMARK    4  A    between atoms: C_4  and  O_5
REMARK    5  A    between atoms: O_5  and  C_6
REMARK    6  A    between atoms: C_9  and  C_10
REMARK    7  A    between atoms: C_10  and  N_11
REMARK                            x       y       z     vdW  Elec       q    Type
REMARK                         _______ _______ _______ _____ _____    ______ ____
ROOT
ATOM      1  C   UNL     1       2.457   3.734  17.655  0.00  0.00    +0.000 A 
ATOM      2  C   UNL     1       3.738   3.418  17.197  0.00  0.00    +0.000 A 
ATOM      3  C   UNL     1       4.697   4.414  17.020  0.00  0.00    +0.000 A 
ATOM      4  C   UNL     1       4.398   5.749  17.305  0.00  0.00    +0.000 A 
ATOM      5  C   UNL     1       3.109   6.071  17.751  0.00  0.00    +0.000 A 
ATOM      6  C   UNL     1       2.147   5.069  17.930  0.00  0.00    +0.000 A 
ENDROOT
BRANCH   1   7
ATOM      7  O   UNL     1       1.447   2.823  17.861  0.00  0.00    +0.000 OA
BRANCH   7   8
ATOM      8  C   UNL     1       0.850   2.884  19.158  0.00  0.00    +0.000 C 
BRANCH   8   9
ATOM      9  C   UNL     1       1.692   2.144  20.188  0.00  0.00    +0.000 C 
BRANCH   9  11
ATOM     10  C   UNL     1       2.252   4.307  21.375  0.00  0.00    +0.000 C 
ATOM     11  C   UNL     1       1.672   2.912  21.511  0.00  0.00    +0.000 C 
ENDBRANCH   9  11
ENDBRANCH   8   9
ENDBRANCH   7   8
ENDBRANCH   1   7
BRANCH   4  12
ATOM     12  C   UNL     1       5.447   6.802  17.082  0.00  0.00    +0.000 C 
BRANCH  12  13
ATOM     13  N   UNL     1       6.663   6.475  17.783  0.00  0.00    +0.000 N 
ATOM     14  C   UNL     1       7.718   7.348  17.809  0.00  0.00    +0.000 C 
ATOM     15  O   UNL     1       7.746   8.439  17.256  0.00  0.00    +0.000 OA
ATOM     16  H   UNL     1       6.720   5.607  18.301  0.00  0.00    +0.000 HD
ENDBRANCH  12  13
ENDBRANCH   4  12
TORSDOF 6
ENDMDL
MODEL 8
REMARK VINA RESULT:      -5.6      2.886      5.922
REMARK  Name = 
REMARK  7 active torsions:
REMARK  status: ('A' for Active; 'I' for Inactive)
REMARK    1  A    between atoms: C_1  and  C_2
REMARK    2  A    between atoms: C_2  and  C_3
REMARK    3  A    between atoms: C_3  and  C_4
REMARK    4  A    between atoms: C_4  and  O_5
REMARK    5  A    between atoms: O_5  and  C_6
REMARK    6  A    between atoms: C_9  and  C_10
REMARK    7  A    between atoms: C_10  and  N_11
REMARK                            x       y       z     vdW  Elec       q    Type
REMARK                         _______ _______ _______ _____ _____    ______ ____
ROOT
ATOM      1  C   UNL     1       4.744   4.383  17.833  0.00  0.00    +0.000 A 
ATOM      2  C   UNL     1       3.612   3.634  17.505  0.00  0.00    +0.000 A 
ATOM      3  C   UNL     1       2.461   3.699  18.289  0.00  0.00    +0.000 A 
ATOM      4  C   UNL     1       2.416   4.520  19.420  0.00  0.00    +0.000 A 
ATOM      5  C   UNL     1       3.555   5.261  19.760  0.00  0.00    +0.000 A 
ATOM      6  C   UNL     1       4.709   5.196  18.969  0.00  0.00    +0.000 A 
ENDROOT
BRANCH   1   7
ATOM      7  O   UNL     1       5.921   4.385  17.123  0.00  0.00    +0.000 OA
BRANCH   7   8
ATOM      8  C   UNL     1       6.137   5.561  16.339  0.00  0.00    +0.000 C 
BRANCH   8   9
ATOM      9  C   UNL     1       5.700   5.350  14.896  0.00  0.00    +0.000 C 
BRANCH   9  11
ATOM     10  C   UNL     1       5.846   3.623  13.053  0.00  0.00    +0.000 C 
ATOM     11  C   UNL     1       6.522   4.220  14.273  0.00  0.00    +0.000 C 
ENDBRANCH   9  11
ENDBRANCH   8   9
ENDBRANCH   7   8
ENDBRANCH   1   7
BRANCH   4  12
ATOM     12  C   UNL     1       1.169   4.551  20.258  0.00  0.00    +0.000 C 
BRANCH  12  13
ATOM     13  N   UNL     1       0.780   3.220  20.652  0.00  0.00    +0.000 N 
ATOM     14  C   UNL     1       1.410   2.579  21.685  0.00  0.00    +0.000 C 
ATOM     15  O   UNL     1       2.334   3.037  22.342  0.00  0.00    +0.000 OA
ATOM     16  H   UNL     1      -0.001   2.773  20.187  0.00  0.00    +0.000 HD
ENDBRANCH  12  13
ENDBRANCH   4  12
TORSDOF 6
ENDMDL
MODEL 9
REMARK VINA RESULT:      -5.6      2.298      5.530
REMARK  Name = 
REMARK  7 active torsions:
REMARK  status: ('A' for Active; 'I' for Inactive)
REMARK    1  A    between atoms: C_1  and  C_2
REMARK    2  A    between atoms: C_2  and  C_3
REMARK    3  A    between atoms: C_3  and  C_4
REMARK    4  A    between atoms: C_4  and  O_5
REMARK    5  A    between atoms: O_5  and  C_6
REMARK    6  A    between atoms: C_9  and  C_10
REMARK    7  A    between atoms: C_10  and  N_11
REMARK                            x       y       z     vdW  Elec       q    Type
REMARK                         _______ _______ _______ _____ _____    ______ ____
ROOT
ATOM      1  C   UNL     1       4.528   5.407  16.871  0.00  0.00    +0.000 A 
ATOM      2  C   UNL     1       4.244   4.045  16.756  0.00  0.00    +0.000 A 
ATOM      3  C   UNL     1       3.206   3.469  17.487  0.00  0.00    +0.000 A 
ATOM      4  C   UNL     1       2.423   4.247  18.347  0.00  0.00    +0.000 A 
ATOM      5  C   UNL     1       2.716   5.611  18.474  0.00  0.00    +0.000 A 
ATOM      6  C   UNL     1       3.758   6.188  17.737  0.00  0.00    +0.000 A 
ENDROOT
BRANCH   1   7
ATOM      7  O   UNL     1       5.528   6.063  16.192  0.00  0.00    +0.000 OA
BRANCH   7   8
ATOM      8  C   UNL     1       6.838   5.869  16.733  0.00  0.00    +0.000 C 
BRANCH   8   9
ATOM      9  C   UNL     1       7.424   7.178  17.243  0.00  0.00    +0.000 C 
BRANCH   9  11
ATOM     10  C   UNL     1       7.603   5.652  19.252  0.00  0.00    +0.000 C 
ATOM     11  C   UNL     1       8.054   6.955  18.618  0.00  0.00    +0.000 C 
ENDBRANCH   9  11
ENDBRANCH   8   9
ENDBRANCH   7   8
ENDBRANCH   1   7
BRANCH   4  12
ATOM     12  C   UNL     1       1.327   3.592  19.138  0.00  0.00    +0.000 C 
BRANCH  12  13
ATOM     13  N   UNL     1       1.258   4.135  20.472  0.00  0.00    +0.000 N 
ATOM     14  C   UNL     1       1.995   3.594  21.491  0.00  0.00    +0.000 C 
ATOM     15  O   UNL     1       2.742   2.631  21.389  0.00  0.00    +0.000 OA
ATOM     16  H   UNL     1       0.692   4.956  20.645  0.00  0.00    +0.000 HD
ENDBRANCH  12  13
ENDBRANCH   4  12
TORSDOF 6
ENDMDL
