MODEL 1
REMARK VINA RESULT:      -6.3      0.000      0.000
REMARK  Name = 
REMARK  8 active torsions:
REMARK  status: ('A' for Active; 'I' for Inactive)
REMARK    1  A    between atoms: C_1  and  C_2
REMARK    2  A    between atoms: C_2  and  C_4
REMARK    3  A    between atoms: C_10  and  N_11
REMARK    4  A    between atoms: N_13  and  C_14
REMARK    5  A    between atoms: N_16  and  C_17
REMARK    6  A    between atoms: C_23  and  O_24
REMARK    7  A    between atoms: C_25  and  C_26
REMARK    8  A    between atoms: C_25  and  C_27
REMARK                            x       y       z     vdW  Elec       q    Type
REMARK                         _______ _______ _______ _____ _____    ______ ____
ROOT
ATOM      1  C   UNL     1      -3.647  11.702  18.512  0.00  0.00    +0.000 A 
ATOM      2  C   UNL     1      -4.878  12.265  18.866  0.00  0.00    +0.000 A 
ATOM      3  C   UNL     1      -5.002  12.976  20.066  0.00  0.00    +0.000 A 
ATOM      4  C   UNL     1      -3.911  13.106  20.930  0.00  0.00    +0.000 A 
ATOM      5  C   UNL     1      -2.665  12.582  20.570  0.00  0.00    +0.000 A 
ATOM      6  C   UNL     1      -2.545  11.883  19.358  0.00  0.00    +0.000 A 
ATOM      7  C   UNL     1      -1.503  12.622  21.537  0.00  0.00    +0.000 C 
ATOM      8  C   UNL     1      -1.744  13.722  22.589  0.00  0.00    +0.000 C 
ATOM      9  C   UNL     1      -3.174  13.554  23.159  0.00  0.00    +0.000 C 
ATOM     10  C   UNL     1      -3.418  12.186  23.830  0.00  0.00    +0.000 C 
ATOM     11  C   UNL     1      -3.432  14.633  24.223  0.00  0.00    +0.000 C 
ATOM     12  O   UNL     1      -4.162  13.739  22.120  0.00  0.00    +0.000 OA
ENDROOT
BRANCH   7  13
ATOM     13  N   UNL     1      -0.214  12.848  20.892  0.00  0.00    +0.000 NA
ATOM     14  C   UNL     1       0.690  11.951  20.721  0.00  0.00    +0.000 C 
ATOM     15  N   UNL     1       0.719  10.616  21.063  0.00  0.00    +0.000 N 
ATOM     16  N   UNL     1       1.851  12.246  20.021  0.00  0.00    +0.000 N 
ATOM     17  H   UNL     1       1.633  10.216  20.901  0.00  0.00    +0.000 HD
ATOM     18  H   UNL     1       2.031  11.625  19.243  0.00  0.00    +0.000 HD
BRANCH  16  19
ATOM     19  C   UNL     1       2.276  13.567  19.748  0.00  0.00    +0.000 A 
ATOM     20  C   UNL     1       2.085  14.153  18.489  0.00  0.00    +0.000 A 
ATOM     21  C   UNL     1       2.568  15.434  18.214  0.00  0.00    +0.000 A 
ATOM     22  C   UNL     1       3.241  16.148  19.200  0.00  0.00    +0.000 A 
ATOM     23  C   UNL     1       3.411  15.592  20.467  0.00  0.00    +0.000 A 
ATOM     24  C   UNL     1       2.923  14.312  20.742  0.00  0.00    +0.000 A 
ENDBRANCH  16  19
BRANCH  15  25
ATOM     25  C   UNL     1       0.247  10.252  22.380  0.00  0.00    +0.000 C 
ATOM     26  N   UNL     1      -0.101   9.948  23.441  0.00  0.00    +0.000 NA
ENDBRANCH  15  25
ENDBRANCH   7  13
BRANCH   1  28
ATOM     27  C   UNL     1      -2.213  10.022  17.168  0.00  0.00    +0.000 C 
ATOM     28  C   UNL     1      -3.457  10.860  17.292  0.00  0.00    +0.000 C 
ATOM     29  O   UNL     1      -4.294  10.885  16.391  0.00  0.00    +0.000 OA
ENDBRANCH   1  28
BRANCH   8  30
ATOM     30  O   UNL     1      -0.750  13.705  23.625  0.00  0.00    +0.000 OA
ATOM     31  H   UNL     1      -0.129  12.977  23.447  0.00  0.00    +0.000 HD
ENDBRANCH   8  30
TORSDOF 5
ENDMDL
MODEL 2
REMARK VINA RESULT:      -6.3      3.653      5.974
REMARK  Name = 
REMARK  8 active torsions:
REMARK  status: ('A' for Active; 'I' for Inactive)
REMARK    1  A    between atoms: C_1  and  C_2
REMARK    2  A    between atoms: C_2  and  C_4
REMARK    3  A    between atoms: C_10  and  N_11
REMARK    4  A    between atoms: N_13  and  C_14
REMARK    5  A    between atoms: N_16  and  C_17
REMARK    6  A    between atoms: C_23  and  O_24
REMARK    7  A    between atoms: C_25  and  C_26
REMARK    8  A    between atoms: C_25  and  C_27
REMARK                            x       y       z     vdW  Elec       q    Type
REMARK                         _______ _______ _______ _____ _____    ______ ____
ROOT
ATOM      1  C   UNL     1      -1.095  11.410  21.108  0.00  0.00    +0.000 A 
ATOM      2  C   UNL     1      -1.220  11.325  19.717  0.00  0.00    +0.000 A 
ATOM      3  C   UNL     1      -2.352  11.852  19.083  0.00  0.00    +0.000 A 
ATOM      4  C   UNL     1      -3.375  12.439  19.832  0.00  0.00    +0.000 A 
ATOM      5  C   UNL     1      -3.245  12.567  21.220  0.00  0.00    +0.000 A 
ATOM      6  C   UNL     1      -2.099  12.049  21.845  0.00  0.00    +0.000 A 
ATOM      7  C   UNL     1      -4.385  13.104  22.055  0.00  0.00    +0.000 C 
ATOM      8  C   UNL     1      -5.336  13.926  21.163  0.00  0.00    +0.000 C 
ATOM      9  C   UNL     1      -5.673  13.094  19.902  0.00  0.00    +0.000 C 
ATOM     10  C   UNL     1      -6.354  11.744  20.214  0.00  0.00    +0.000 C 
ATOM     11  C   UNL     1      -6.634  13.889  19.004  0.00  0.00    +0.000 C 
ATOM     12  O   UNL     1      -4.480  12.838  19.126  0.00  0.00    +0.000 OA
ENDROOT
BRANCH   7  13
ATOM     13  N   UNL     1      -3.949  13.926  23.179  0.00  0.00    +0.000 NA
ATOM     14  C   UNL     1      -4.200  13.676  24.414  0.00  0.00    +0.000 C 
ATOM     15  N   UNL     1      -4.897  12.645  25.006  0.00  0.00    +0.000 N 
ATOM     16  N   UNL     1      -3.670  14.475  25.416  0.00  0.00    +0.000 N 
ATOM     17  H   UNL     1      -5.022  12.808  25.996  0.00  0.00    +0.000 HD
ATOM     18  H   UNL     1      -3.140  13.966  26.111  0.00  0.00    +0.000 HD
BRANCH  16  19
ATOM     19  C   UNL     1      -3.125  15.758  25.177  0.00  0.00    +0.000 A 
ATOM     20  C   UNL     1      -1.741  15.957  25.060  0.00  0.00    +0.000 A 
ATOM     21  C   UNL     1      -1.214  17.237  24.888  0.00  0.00    +0.000 A 
ATOM     22  C   UNL     1      -2.065  18.336  24.822  0.00  0.00    +0.000 A 
ATOM     23  C   UNL     1      -3.444  18.151  24.904  0.00  0.00    +0.000 A 
ATOM     24  C   UNL     1      -3.971  16.869  25.072  0.00  0.00    +0.000 A 
ENDBRANCH  16  19
BRANCH  15  25
ATOM     25  C   UNL     1      -6.155  12.256  24.409  0.00  0.00    +0.000 C 
ATOM     26  N   UNL     1      -7.167  11.925  23.956  0.00  0.00    +0.000 NA
ENDBRANCH  15  25
ENDBRANCH   7  13
BRANCH   1  28
ATOM     27  C   UNL     1      -0.258   9.844  22.987  0.00  0.00    +0.000 C 
ATOM     28  C   UNL     1       0.041  10.799  21.862  0.00  0.00    +0.000 C 
ATOM     29  O   UNL     1       1.199  11.104  21.585  0.00  0.00    +0.000 OA
ENDBRANCH   1  28
BRANCH   8  30
ATOM     30  O   UNL     1      -6.519  14.333  21.867  0.00  0.00    +0.000 OA
ATOM     31  H   UNL     1      -6.599  15.301  21.807  0.00  0.00    +0.000 HD
ENDBRANCH   8  30
TORSDOF 5
ENDMDL
MODEL 3
REMARK VINA RESULT:      -6.3      2.842      6.025
REMARK  Name = 
REMARK  8 active torsions:
REMARK  status: ('A' for Active; 'I' for Inactive)
REMARK    1  A    between atoms: C_1  and  C_2
REMARK    2  A    between atoms: C_2  and  C_4
REMARK    3  A    between atoms: C_10  and  N_11
REMARK    4  A    between atoms: N_13  and  C_14
REMARK    5  A    between atoms: N_16  and  C_17
REMARK    6  A    between atoms: C_23  and  O_24
REMARK    7  A    between atoms: C_25  and  C_26
REMARK    8  A    between atoms: C_25  and  C_27
REMARK                            x       y       z     vdW  Elec       q    Type
REMARK                         _______ _______ _______ _____ _____    ______ ____
ROOT
ATOM      1  C   UNL     1       0.691   9.409  20.488  0.00  0.00    +0.000 A 
ATOM      2  C   UNL     1       0.952   9.185  21.843  0.00  0.00    +0.000 A 
ATOM      3  C   UNL     1       0.332   9.981  22.815  0.00  0.00    +0.000 A 
ATOM      4  C   UNL     1      -0.527  11.017  22.441  0.00  0.00    +0.000 A 
ATOM      5  C   UNL     1      -0.828  11.226  21.091  0.00  0.00    +0.000 A 
ATOM      6  C   UNL     1      -0.214  10.414  20.124  0.00  0.00    +0.000 A 
ATOM      7  C   UNL     1      -1.671  12.406  20.663  0.00  0.00    +0.000 C 
ATOM      8  C   UNL     1      -2.510  12.902  21.856  0.00  0.00    +0.000 C 
ATOM      9  C   UNL     1      -1.576  13.067  23.080  0.00  0.00    +0.000 C 
ATOM     10  C   UNL     1      -0.426  14.071  22.852  0.00  0.00    +0.000 C 
ATOM     11  C   UNL     1      -2.390  13.577  24.281  0.00  0.00    +0.000 C 
ATOM     12  O   UNL     1      -1.007  11.795  23.463  0.00  0.00    +0.000 OA
ENDROOT
BRANCH   7  13
ATOM     13  N   UNL     1      -2.558  12.114  19.541  0.00  0.00    +0.000 NA
ATOM     14  C   UNL     1      -2.235  12.221  18.301  0.00  0.00    +0.000 C 
ATOM     15  N   UNL     1      -1.057  12.611  17.702  0.00  0.00    +0.000 N 
ATOM     16  N   UNL     1      -3.124  11.840  17.307  0.00  0.00    +0.000 N 
ATOM     17  H   UNL     1      -1.169  12.710  16.702  0.00  0.00    +0.000 HD
ATOM     18  H   UNL     1      -2.749  11.162  16.658  0.00  0.00    +0.000 HD
BRANCH  16  19
ATOM     19  C   UNL     1      -4.504  11.637  17.538  0.00  0.00    +0.000 A 
ATOM     20  C   UNL     1      -5.466  12.553  17.089  0.00  0.00    +0.000 A 
ATOM     21  C   UNL     1      -6.819  12.373  17.380  0.00  0.00    +0.000 A 
ATOM     22  C   UNL     1      -7.229  11.267  18.118  0.00  0.00    +0.000 A 
ATOM     23  C   UNL     1      -6.289  10.330  18.544  0.00  0.00    +0.000 A 
ATOM     24  C   UNL     1      -4.935  10.509  18.249  0.00  0.00    +0.000 A 
ENDBRANCH  16  19
BRANCH  15  25
ATOM     25  C   UNL     1      -0.383  13.771  18.239  0.00  0.00    +0.000 C 
ATOM     26  N   UNL     1       0.164  14.709  18.639  0.00  0.00    +0.000 NA
ENDBRANCH  15  25
ENDBRANCH   7  13
BRANCH   1  28
ATOM     27  C   UNL     1       1.298   9.187  17.984  0.00  0.00    +0.000 C 
ATOM     28  C   UNL     1       1.376   8.659  19.392  0.00  0.00    +0.000 C 
ATOM     29  O   UNL     1       1.963   7.607  19.639  0.00  0.00    +0.000 OA
ENDBRANCH   1  28
BRANCH   8  30
ATOM     30  O   UNL     1      -3.215  14.116  21.553  0.00  0.00    +0.000 OA
ATOM     31  H   UNL     1      -2.604  14.866  21.665  0.00  0.00    +0.000 HD
ENDBRANCH   8  30
TORSDOF 5
ENDMDL
MODEL 4
REMARK VINA RESULT:      -6.3      7.190      8.911
REMARK  Name = 
REMARK  8 active torsions:
REMARK  status: ('A' for Active; 'I' for Inactive)
REMARK    1  A    between atoms: C_1  and  C_2
REMARK    2  A    between atoms: C_2  and  C_4
REMARK    3  A    between atoms: C_10  and  N_11
REMARK    4  A    between atoms: N_13  and  C_14
REMARK    5  A    between atoms: N_16  and  C_17
REMARK    6  A    between atoms: C_23  and  O_24
REMARK    7  A    between atoms: C_25  and  C_26
REMARK    8  A    between atoms: C_25  and  C_27
REMARK                            x       y       z     vdW  Elec       q    Type
REMARK                         _______ _______ _______ _____ _____    ______ ____
ROOT
ATOM      1  C   UNL     1       1.378   8.964  19.263  0.00  0.00    +0.000 A 
ATOM      2  C   UNL     1       0.689   8.839  20.473  0.00  0.00    +0.000 A 
ATOM      3  C   UNL     1       0.796   7.658  21.219  0.00  0.00    +0.000 A 
ATOM      4  C   UNL     1       1.565   6.590  20.751  0.00  0.00    +0.000 A 
ATOM      5  C   UNL     1       2.291   6.716  19.561  0.00  0.00    +0.000 A 
ATOM      6  C   UNL     1       2.190   7.909  18.827  0.00  0.00    +0.000 A 
ATOM      7  C   UNL     1       3.042   5.537  18.987  0.00  0.00    +0.000 C 
ATOM      8  C   UNL     1       3.317   4.508  20.101  0.00  0.00    +0.000 C 
ATOM      9  C   UNL     1       1.996   4.242  20.863  0.00  0.00    +0.000 C 
ATOM     10  C   UNL     1       0.864   3.691  19.970  0.00  0.00    +0.000 C 
ATOM     11  C   UNL     1       2.243   3.205  21.971  0.00  0.00    +0.000 C 
ATOM     12  O   UNL     1       1.527   5.448  21.508  0.00  0.00    +0.000 OA
ENDROOT
BRANCH   7  13
ATOM     13  N   UNL     1       4.303   5.902  18.349  0.00  0.00    +0.000 NA
ATOM     14  C   UNL     1       4.691   5.486  17.196  0.00  0.00    +0.000 C 
ATOM     15  N   UNL     1       4.089   4.642  16.288  0.00  0.00    +0.000 N 
ATOM     16  N   UNL     1       5.870   5.957  16.638  0.00  0.00    +0.000 N 
ATOM     17  H   UNL     1       4.716   4.414  15.528  0.00  0.00    +0.000 HD
ATOM     18  H   UNL     1       5.758   6.357  15.716  0.00  0.00    +0.000 HD
BRANCH  16  19
ATOM     19  C   UNL     1       6.865   6.629  17.384  0.00  0.00    +0.000 A 
ATOM     20  C   UNL     1       7.568   5.988  18.415  0.00  0.00    +0.000 A 
ATOM     21  C   UNL     1       8.502   6.683  19.185  0.00  0.00    +0.000 A 
ATOM     22  C   UNL     1       8.752   8.027  18.927  0.00  0.00    +0.000 A 
ATOM     23  C   UNL     1       8.085   8.670  17.886  0.00  0.00    +0.000 A 
ATOM     24  C   UNL     1       7.154   7.973  17.113  0.00  0.00    +0.000 A 
ENDBRANCH  16  19
BRANCH  15  25
ATOM     25  C   UNL     1       3.475   3.437  16.797  0.00  0.00    +0.000 C 
ATOM     26  N   UNL     1       2.954   2.485  17.200  0.00  0.00    +0.000 NA
ENDBRANCH  15  25
ENDBRANCH   7  13
BRANCH   1  28
ATOM     27  C   UNL     1       0.096  11.102  18.578  0.00  0.00    +0.000 C 
ATOM     28  C   UNL     1       1.249  10.157  18.372  0.00  0.00    +0.000 C 
ATOM     29  O   UNL     1       2.058  10.337  17.463  0.00  0.00    +0.000 OA
ENDBRANCH   1  28
BRANCH   8  30
ATOM     30  O   UNL     1       3.891   3.296  19.587  0.00  0.00    +0.000 OA
ATOM     31  H   UNL     1       4.677   3.525  19.059  0.00  0.00    +0.000 HD
ENDBRANCH   8  30
TORSDOF 5
ENDMDL
MODEL 5
REMARK VINA RESULT:      -6.2      3.476      7.455
REMARK  Name = 
REMARK  8 active torsions:
REMARK  status: ('A' for Active; 'I' for Inactive)
REMARK    1  A    between atoms: C_1  and  C_2
REMARK    2  A    between atoms: C_2  and  C_4
REMARK    3  A    between atoms: C_10  and  N_11
REMARK    4  A    between atoms: N_13  and  C_14
REMARK    5  A    between atoms: N_16  and  C_17
REMARK    6  A    between atoms: C_23  and  O_24
REMARK    7  A    between atoms: C_25  and  C_26
REMARK    8  A    between atoms: C_25  and  C_27
REMARK                            x       y       z     vdW  Elec       q    Type
REMARK                         _______ _______ _______ _____ _____    ______ ____
ROOT
ATOM      1  C   UNL     1      -1.431  12.678  21.130  0.00  0.00    +0.000 A 
ATOM      2  C   UNL     1      -0.369  12.415  20.258  0.00  0.00    +0.000 A 
ATOM      3  C   UNL     1      -0.629  12.025  18.938  0.00  0.00    +0.000 A 
ATOM      4  C   UNL     1      -1.944  11.870  18.490  0.00  0.00    +0.000 A 
ATOM      5  C   UNL     1      -3.015  12.168  19.339  0.00  0.00    +0.000 A 
ATOM      6  C   UNL     1      -2.745  12.573  20.657  0.00  0.00    +0.000 A 
ATOM      7  C   UNL     1      -4.439  11.906  18.906  0.00  0.00    +0.000 C 
ATOM      8  C   UNL     1      -4.507  11.835  17.368  0.00  0.00    +0.000 C 
ATOM      9  C   UNL     1      -3.394  10.880  16.869  0.00  0.00    +0.000 C 
ATOM     10  C   UNL     1      -3.517   9.444  17.420  0.00  0.00    +0.000 C 
ATOM     11  C   UNL     1      -3.452  10.783  15.336  0.00  0.00    +0.000 C 
ATOM     12  O   UNL     1      -2.088  11.395  17.212  0.00  0.00    +0.000 OA
ENDROOT
BRANCH   7  13
ATOM     13  N   UNL     1      -5.389  12.906  19.383  0.00  0.00    +0.000 NA
ATOM     14  C   UNL     1      -6.384  12.663  20.159  0.00  0.00    +0.000 C 
ATOM     15  N   UNL     1      -6.823  11.488  20.730  0.00  0.00    +0.000 N 
ATOM     16  N   UNL     1      -7.182  13.697  20.625  0.00  0.00    +0.000 N 
ATOM     17  H   UNL     1      -7.714  11.614  21.190  0.00  0.00    +0.000 HD
ATOM     18  H   UNL     1      -7.262  13.734  21.632  0.00  0.00    +0.000 HD
BRANCH  16  19
ATOM     19  C   UNL     1      -7.187  14.990  20.051  0.00  0.00    +0.000 A 
ATOM     20  C   UNL     1      -6.565  16.076  20.683  0.00  0.00    +0.000 A 
ATOM     21  C   UNL     1      -6.633  17.359  20.137  0.00  0.00    +0.000 A 
ATOM     22  C   UNL     1      -7.319  17.570  18.945  0.00  0.00    +0.000 A 
ATOM     23  C   UNL     1      -7.916  16.496  18.288  0.00  0.00    +0.000 A 
ATOM     24  C   UNL     1      -7.843  15.212  18.833  0.00  0.00    +0.000 A 
ENDBRANCH  16  19
BRANCH  15  25
ATOM     25  C   UNL     1      -6.863  10.310  19.893  0.00  0.00    +0.000 C 
ATOM     26  N   UNL     1      -6.927   9.370  19.221  0.00  0.00    +0.000 NA
ENDBRANCH  15  25
ENDBRANCH   7  13
BRANCH   1  28
ATOM     27  C   UNL     1      -2.395  12.875  23.521  0.00  0.00    +0.000 C 
ATOM     28  C   UNL     1      -1.235  13.017  22.572  0.00  0.00    +0.000 C 
ATOM     29  O   UNL     1      -0.148  13.438  22.963  0.00  0.00    +0.000 OA
ENDBRANCH   1  28
BRANCH   8  30
ATOM     30  O   UNL     1      -5.804  11.435  16.902  0.00  0.00    +0.000 OA
ATOM     31  H   UNL     1      -6.056  10.610  17.353  0.00  0.00    +0.000 HD
ENDBRANCH   8  30
TORSDOF 5
ENDMDL
MODEL 6
REMARK VINA RESULT:      -6.1      3.687      7.568
REMARK  Name = 
REMARK  8 active torsions:
REMARK  status: ('A' for Active; 'I' for Inactive)
REMARK    1  A    between atoms: C_1  and  C_2
REMARK    2  A    between atoms: C_2  and  C_4
REMARK    3  A    between atoms: C_10  and  N_11
REMARK    4  A    between atoms: N_13  and  C_14
REMARK    5  A    between atoms: N_16  and  C_17
REMARK    6  A    between atoms: C_23  and  O_24
REMARK    7  A    between atoms: C_25  and  C_26
REMARK    8  A    between atoms: C_25  and  C_27
REMARK                            x       y       z     vdW  Elec       q    Type
REMARK                         _______ _______ _______ _____ _____    ______ ____
ROOT
ATOM      1  C   UNL     1      -2.275  12.714  21.745  0.00  0.00    +0.000 A 
ATOM      2  C   UNL     1      -1.031  12.478  21.152  0.00  0.00    +0.000 A 
ATOM      3  C   UNL     1      -0.959  12.097  19.806  0.00  0.00    +0.000 A 
ATOM      4  C   UNL     1      -2.124  11.923  19.055  0.00  0.00    +0.000 A 
ATOM      5  C   UNL     1      -3.373  12.194  19.624  0.00  0.00    +0.000 A 
ATOM      6  C   UNL     1      -3.435  12.590  20.970  0.00  0.00    +0.000 A 
ATOM      7  C   UNL     1      -4.646  11.912  18.860  0.00  0.00    +0.000 C 
ATOM      8  C   UNL     1      -4.342  11.855  17.350  0.00  0.00    +0.000 C 
ATOM      9  C   UNL     1      -3.124  10.925  17.127  0.00  0.00    +0.000 C 
ATOM     10  C   UNL     1      -3.348   9.481  17.626  0.00  0.00    +0.000 C 
ATOM     11  C   UNL     1      -2.810  10.841  15.625  0.00  0.00    +0.000 C 
ATOM     12  O   UNL     1      -1.948  11.458  17.777  0.00  0.00    +0.000 OA
ENDROOT
BRANCH   7  13
ATOM     13  N   UNL     1      -5.702  12.890  19.100  0.00  0.00    +0.000 NA
ATOM     14  C   UNL     1      -6.771  12.667  19.777  0.00  0.00    +0.000 C 
ATOM     15  N   UNL     1      -7.213  11.534  20.427  0.00  0.00    +0.000 N 
ATOM     16  N   UNL     1      -7.677  13.688  20.020  0.00  0.00    +0.000 N 
ATOM     17  H   UNL     1      -8.160  11.648  20.760  0.00  0.00    +0.000 HD
ATOM     18  H   UNL     1      -7.885  13.830  21.000  0.00  0.00    +0.000 HD
BRANCH  16  19
ATOM     19  C   UNL     1      -7.682  14.906  19.301  0.00  0.00    +0.000 A 
ATOM     20  C   UNL     1      -7.917  14.941  17.919  0.00  0.00    +0.000 A 
ATOM     21  C   UNL     1      -7.855  16.143  17.212  0.00  0.00    +0.000 A 
ATOM     22  C   UNL     1      -7.566  17.328  17.881  0.00  0.00    +0.000 A 
ATOM     23  C   UNL     1      -7.362  17.315  19.260  0.00  0.00    +0.000 A 
ATOM     24  C   UNL     1      -7.428  16.112  19.967  0.00  0.00    +0.000 A 
ENDBRANCH  16  19
BRANCH  15  25
ATOM     25  C   UNL     1      -7.083  10.271  19.736  0.00  0.00    +0.000 C 
ATOM     26  N   UNL     1      -6.986   9.275  19.155  0.00  0.00    +0.000 NA
ENDBRANCH  15  25
ENDBRANCH   7  13
BRANCH   1  28
ATOM     27  C   UNL     1      -1.786  14.282  23.742  0.00  0.00    +0.000 C 
ATOM     28  C   UNL     1      -2.438  13.041  23.194  0.00  0.00    +0.000 C 
ATOM     29  O   UNL     1      -3.069  12.283  23.929  0.00  0.00    +0.000 OA
ENDBRANCH   1  28
BRANCH   8  30
ATOM     30  O   UNL     1      -5.482  11.437  16.584  0.00  0.00    +0.000 OA
ATOM     31  H   UNL     1      -5.175  11.135  15.711  0.00  0.00    +0.000 HD
ENDBRANCH   8  30
TORSDOF 5
ENDMDL
MODEL 7
REMARK VINA RESULT:      -6.0      3.052      4.903
REMARK  Name = 
REMARK  8 active torsions:
REMARK  status: ('A' for Active; 'I' for Inactive)
REMARK    1  A    between atoms: C_1  and  C_2
REMARK    2  A    between atoms: C_2  and  C_4
REMARK    3  A    between atoms: C_10  and  N_11
REMARK    4  A    between atoms: N_13  and  C_14
REMARK    5  A    between atoms: N_16  and  C_17
REMARK    6  A    between atoms: C_23  and  O_24
REMARK    7  A    between atoms: C_25  and  C_26
REMARK    8  A    between atoms: C_25  and  C_27
REMARK                            x       y       z     vdW  Elec       q    Type
REMARK                         _______ _______ _______ _____ _____    ______ ____
ROOT
ATOM      1  C   UNL     1      -1.041  10.413  18.341  0.00  0.00    +0.000 A 
ATOM      2  C   UNL     1      -1.686   9.733  17.304  0.00  0.00    +0.000 A 
ATOM      3  C   UNL     1      -3.035   9.994  17.030  0.00  0.00    +0.000 A 
ATOM      4  C   UNL     1      -3.752  10.910  17.804  0.00  0.00    +0.000 A 
ATOM      5  C   UNL     1      -3.108  11.626  18.819  0.00  0.00    +0.000 A 
ATOM      6  C   UNL     1      -1.752  11.370  19.077  0.00  0.00    +0.000 A 
ATOM      7  C   UNL     1      -3.891  12.542  19.732  0.00  0.00    +0.000 C 
ATOM      8  C   UNL     1      -5.214  12.944  19.051  0.00  0.00    +0.000 C 
ATOM      9  C   UNL     1      -5.904  11.663  18.520  0.00  0.00    +0.000 C 
ATOM     10  C   UNL     1      -6.226  10.631  19.622  0.00  0.00    +0.000 C 
ATOM     11  C   UNL     1      -7.235  12.037  17.849  0.00  0.00    +0.000 C 
ATOM     12  O   UNL     1      -5.087  11.022  17.515  0.00  0.00    +0.000 OA
ENDROOT
BRANCH   7  13
ATOM     13  N   UNL     1      -3.163  13.747  20.115  0.00  0.00    +0.000 NA
ATOM     14  C   UNL     1      -2.862  14.073  21.321  0.00  0.00    +0.000 C 
ATOM     15  N   UNL     1      -3.113  13.440  22.520  0.00  0.00    +0.000 N 
ATOM     16  N   UNL     1      -2.094  15.199  21.576  0.00  0.00    +0.000 N 
ATOM     17  H   UNL     1      -2.853  14.023  23.304  0.00  0.00    +0.000 HD
ATOM     18  H   UNL     1      -1.265  15.016  22.126  0.00  0.00    +0.000 HD
BRANCH  16  19
ATOM     19  C   UNL     1      -1.876  16.220  20.622  0.00  0.00    +0.000 A 
ATOM     20  C   UNL     1      -2.774  17.287  20.471  0.00  0.00    +0.000 A 
ATOM     21  C   UNL     1      -2.579  18.252  19.481  0.00  0.00    +0.000 A 
ATOM     22  C   UNL     1      -1.478  18.167  18.636  0.00  0.00    +0.000 A 
ATOM     23  C   UNL     1      -0.559  17.131  18.794  0.00  0.00    +0.000 A 
ATOM     24  C   UNL     1      -0.752  16.167  19.787  0.00  0.00    +0.000 A 
ENDBRANCH  16  19
BRANCH  15  25
ATOM     25  C   UNL     1      -4.435  12.896  22.727  0.00  0.00    +0.000 C 
ATOM     26  N   UNL     1      -5.503  12.489  22.908  0.00  0.00    +0.000 NA
ENDBRANCH  15  25
ENDBRANCH   7  13
BRANCH   1  28
ATOM     27  C   UNL     1       1.241   9.307  17.837  0.00  0.00    +0.000 C 
ATOM     28  C   UNL     1       0.369  10.130  18.747  0.00  0.00    +0.000 C 
ATOM     29  O   UNL     1       0.792  10.538  19.828  0.00  0.00    +0.000 OA
ENDBRANCH   1  28
BRANCH   8  30
ATOM     30  O   UNL     1      -6.071  13.688  19.931  0.00  0.00    +0.000 OA
ATOM     31  H   UNL     1      -6.893  13.903  19.456  0.00  0.00    +0.000 HD
ENDBRANCH   8  30
TORSDOF 5
ENDMDL
MODEL 8
REMARK VINA RESULT:      -6.0      2.153      3.157
REMARK  Name = 
REMARK  8 active torsions:
REMARK  status: ('A' for Active; 'I' for Inactive)
REMARK    1  A    between atoms: C_1  and  C_2
REMARK    2  A    between atoms: C_2  and  C_4
REMARK    3  A    between atoms: C_10  and  N_11
REMARK    4  A    between atoms: N_13  and  C_14
REMARK    5  A    between atoms: N_16  and  C_17
REMARK    6  A    between atoms: C_23  and  O_24
REMARK    7  A    between atoms: C_25  and  C_26
REMARK    8  A    between atoms: C_25  and  C_27
REMARK                            x       y       z     vdW  Elec       q    Type
REMARK                         _______ _______ _______ _____ _____    ______ ____
ROOT
ATOM      1  C   UNL     1      -3.622  11.072  17.339  0.00  0.00    +0.000 A 
ATOM      2  C   UNL     1      -4.890  11.296  16.793  0.00  0.00    +0.000 A 
ATOM      3  C   UNL     1      -5.817  12.089  17.482  0.00  0.00    +0.000 A 
ATOM      4  C   UNL     1      -5.495  12.638  18.725  0.00  0.00    +0.000 A 
ATOM      5  C   UNL     1      -4.217  12.455  19.265  0.00  0.00    +0.000 A 
ATOM      6  C   UNL     1      -3.289  11.671  18.560  0.00  0.00    +0.000 A 
ATOM      7  C   UNL     1      -3.887  12.953  20.653  0.00  0.00    +0.000 C 
ATOM      8  C   UNL     1      -4.879  14.062  21.054  0.00  0.00    +0.000 C 
ATOM      9  C   UNL     1      -6.317  13.563  20.770  0.00  0.00    +0.000 C 
ATOM     10  C   UNL     1      -6.692  12.281  21.544  0.00  0.00    +0.000 C 
ATOM     11  C   UNL     1      -7.326  14.649  21.177  0.00  0.00    +0.000 C 
ATOM     12  O   UNL     1      -6.503  13.319  19.358  0.00  0.00    +0.000 OA
ENDROOT
BRANCH   7  13
ATOM     13  N   UNL     1      -2.524  13.457  20.784  0.00  0.00    +0.000 NA
ATOM     14  C   UNL     1      -1.662  13.034  21.639  0.00  0.00    +0.000 C 
ATOM     15  N   UNL     1      -1.752  12.060  22.609  0.00  0.00    +0.000 N 
ATOM     16  N   UNL     1      -0.364  13.521  21.629  0.00  0.00    +0.000 N 
ATOM     17  H   UNL     1      -0.933  12.057  23.202  0.00  0.00    +0.000 HD
ATOM     18  H   UNL     1       0.345  12.802  21.558  0.00  0.00    +0.000 HD
BRANCH  16  19
ATOM     19  C   UNL     1       0.016  14.701  20.949  0.00  0.00    +0.000 A 
ATOM     20  C   UNL     1      -0.159  15.968  21.525  0.00  0.00    +0.000 A 
ATOM     21  C   UNL     1       0.161  17.127  20.816  0.00  0.00    +0.000 A 
ATOM     22  C   UNL     1       0.670  17.033  19.525  0.00  0.00    +0.000 A 
ATOM     23  C   UNL     1       0.879  15.781  18.950  0.00  0.00    +0.000 A 
ATOM     24  C   UNL     1       0.563  14.621  19.662  0.00  0.00    +0.000 A 
ENDBRANCH  16  19
BRANCH  15  25
ATOM     25  C   UNL     1      -2.948  12.029  23.420  0.00  0.00    +0.000 C 
ATOM     26  N   UNL     1      -3.889  12.020  24.093  0.00  0.00    +0.000 NA
ENDBRANCH  15  25
ENDBRANCH   7  13
BRANCH   1  28
ATOM     27  C   UNL     1      -2.836   9.694  15.297  0.00  0.00    +0.000 C 
ATOM     28  C   UNL     1      -2.611  10.171  16.707  0.00  0.00    +0.000 C 
ATOM     29  O   UNL     1      -1.630   9.801  17.349  0.00  0.00    +0.000 OA
ENDBRANCH   1  28
BRANCH   8  30
ATOM     30  O   UNL     1      -4.713  14.467  22.422  0.00  0.00    +0.000 OA
ATOM     31  H   UNL     1      -4.775  15.437  22.468  0.00  0.00    +0.000 HD
ENDBRANCH   8  30
TORSDOF 5
ENDMDL
MODEL 9
REMARK VINA RESULT:      -6.0      1.007      1.072
REMARK  Name = 
REMARK  8 active torsions:
REMARK  status: ('A' for Active; 'I' for Inactive)
REMARK    1  A    between atoms: C_1  and  C_2
REMARK    2  A    between atoms: C_2  and  C_4
REMARK    3  A    between atoms: C_10  and  N_11
REMARK    4  A    between atoms: N_13  and  C_14
REMARK    5  A    between atoms: N_16  and  C_17
REMARK    6  A    between atoms: C_23  and  O_24
REMARK    7  A    between atoms: C_25  and  C_26
REMARK    8  A    between atoms: C_25  and  C_27
REMARK                            x       y       z     vdW  Elec       q    Type
REMARK                         _______ _______ _______ _____ _____    ______ ____
ROOT
ATOM      1  C   UNL     1      -3.673  11.610  18.197  0.00  0.00    +0.000 A 
ATOM      2  C   UNL     1      -4.870  12.083  18.742  0.00  0.00    +0.000 A 
ATOM      3  C   UNL     1      -4.862  12.747  19.976  0.00  0.00    +0.000 A 
ATOM      4  C   UNL     1      -3.668  12.916  20.682  0.00  0.00    +0.000 A 
ATOM      5  C   UNL     1      -2.458  12.482  20.130  0.00  0.00    +0.000 A 
ATOM      6  C   UNL     1      -2.474  11.832  18.885  0.00  0.00    +0.000 A 
ATOM      7  C   UNL     1      -1.175  12.563  20.924  0.00  0.00    +0.000 C 
ATOM      8  C   UNL     1      -1.325  13.612  22.044  0.00  0.00    +0.000 C 
ATOM      9  C   UNL     1      -2.647  13.338  22.802  0.00  0.00    +0.000 C 
ATOM     10  C   UNL     1      -2.713  11.936  23.445  0.00  0.00    +0.000 C 
ATOM     11  C   UNL     1      -2.811  14.363  23.934  0.00  0.00    +0.000 C 
ATOM     12  O   UNL     1      -3.782  13.494  21.921  0.00  0.00    +0.000 OA
ENDROOT
BRANCH   7  13
ATOM     13  N   UNL     1      -0.005  12.890  20.114  0.00  0.00    +0.000 NA
ATOM     14  C   UNL     1       0.921  12.060  19.792  0.00  0.00    +0.000 C 
ATOM     15  N   UNL     1       1.083  10.723  20.086  0.00  0.00    +0.000 N 
ATOM     16  N   UNL     1       1.951  12.447  18.948  0.00  0.00    +0.000 N 
ATOM     17  H   UNL     1       1.989  10.389  19.787  0.00  0.00    +0.000 HD
ATOM     18  H   UNL     1       2.060  11.856  18.134  0.00  0.00    +0.000 HD
BRANCH  16  19
ATOM     19  C   UNL     1       2.248  13.799  18.658  0.00  0.00    +0.000 A 
ATOM     20  C   UNL     1       1.315  14.820  18.886  0.00  0.00    +0.000 A 
ATOM     21  C   UNL     1       1.599  16.141  18.536  0.00  0.00    +0.000 A 
ATOM     22  C   UNL     1       2.825  16.459  17.961  0.00  0.00    +0.000 A 
ATOM     23  C   UNL     1       3.776  15.460  17.757  0.00  0.00    +0.000 A 
ATOM     24  C   UNL     1       3.493  14.139  18.112  0.00  0.00    +0.000 A 
ENDBRANCH  16  19
BRANCH  15  25
ATOM     25  C   UNL     1       0.825  10.300  21.444  0.00  0.00    +0.000 C 
ATOM     26  N   UNL     1       0.606   9.933  22.520  0.00  0.00    +0.000 NA
ENDBRANCH  15  25
ENDBRANCH   7  13
BRANCH   1  28
ATOM     27  C   UNL     1      -2.419   9.940  16.672  0.00  0.00    +0.000 C 
ATOM     28  C   UNL     1      -3.612  10.821  16.929  0.00  0.00    +0.000 C 
ATOM     29  O   UNL     1      -4.512  10.924  16.097  0.00  0.00    +0.000 OA
ENDBRANCH   1  28
BRANCH   8  30
ATOM     30  O   UNL     1      -0.194  13.624  22.928  0.00  0.00    +0.000 OA
ATOM     31  H   UNL     1       0.470  14.242  22.575  0.00  0.00    +0.000 HD
ENDBRANCH   8  30
TORSDOF 5
ENDMDL
