MODEL 1
REMARK VINA RESULT:      -9.5      0.000      0.000
REMARK  Name = 
REMARK  6 active torsions:
REMARK  status: ('A' for Active; 'I' for Inactive)
REMARK    1  A    between atoms: C_2  and  C_26
REMARK    2  A    between atoms: N_3  and  C_4
REMARK    3  A    between atoms: C_4  and  C_5
REMARK    4  A    between atoms: C_9  and  N_10
REMARK    5  A    between atoms: C_14  and  C_16
REMARK    6  A    between atoms: C_16  and  C_17
REMARK                            x       y       z     vdW  Elec       q    Type
REMARK                         _______ _______ _______ _____ _____    ______ ____
ROOT
ATOM      1  C   UNL     1       0.120   9.976  21.767  0.00  0.00    +0.000 A 
ATOM      2  C   UNL     1      -0.079  10.901  20.738  0.00  0.00    +0.000 A 
ATOM      3  C   UNL     1       0.411  10.644  19.463  0.00  0.00    +0.000 A 
ATOM      4  C   UNL     1       1.078   9.447  19.198  0.00  0.00    +0.000 A 
ATOM      5  C   UNL     1       1.280   8.478  20.192  0.00  0.00    +0.000 A 
ATOM      6  C   UNL     1       0.803   8.782  21.480  0.00  0.00    +0.000 A 
ENDROOT
BRANCH   5   7
ATOM      7  N   UNL     1       1.921   7.290  19.921  0.00  0.00    +0.000 N 
ATOM      8  C   UNL     1       2.015   6.196  20.905  0.00  0.00    +0.000 C 
ATOM      9  C   UNL     1       1.498   4.884  20.284  0.00  0.00    +0.000 C 
ATOM     10  N   UNL     1       2.143   4.608  18.989  0.00  0.00    +0.000 N 
ATOM     11  C   UNL     1       2.740   3.381  18.764  0.00  0.00    +0.000 C 
ATOM     12  O   UNL     1       2.777   2.505  19.632  0.00  0.00    +0.000 OA
ATOM     13  C   UNL     1       2.062   5.722  18.033  0.00  0.00    +0.000 C 
ATOM     14  C   UNL     1       2.587   7.037  18.638  0.00  0.00    +0.000 C 
BRANCH  11  15
ATOM     15  C   UNL     1       3.419   3.136  17.417  0.00  0.00    +0.000 C 
BRANCH  15  16
ATOM     16  C   UNL     1       4.846   3.595  17.379  0.00  0.00    +0.000 A 
ATOM     17  C   UNL     1       5.530   4.078  16.319  0.00  0.00    +0.000 A 
ATOM     18  C   UNL     1       6.834   4.503  16.857  0.00  0.00    +0.000 A 
ATOM     19  O   UNL     1       7.756   4.947  16.197  0.00  0.00    +0.000 OA
ATOM     20  N   UNL     1       6.785   4.294  18.219  0.00  0.00    +0.000 N 
ATOM     21  N   UNL     1       5.626   3.592  18.533  0.00  0.00    +0.000 N 
ATOM     22  H   UNL     1       7.588   4.344  18.834  0.00  0.00    +0.000 HD
ATOM     23  H   UNL     1       5.127   3.925  19.366  0.00  0.00    +0.000 HD
ENDBRANCH  15  16
ENDBRANCH  11  15
ENDBRANCH   5   7
BRANCH   1  24
ATOM     24  C   UNL     1      -0.418  10.234  23.148  0.00  0.00    +0.000 C 
BRANCH  24  27
ATOM     25  O   UNL     1      -0.507  13.077  23.410  0.00  0.00    +0.000 OA
ATOM     26  C   UNL     1      -1.519  12.418  23.210  0.00  0.00    +0.000 C 
ATOM     27  N   UNL     1      -1.601  11.053  23.111  0.00  0.00    +0.000 N 
ATOM     28  H   UNL     1      -2.488  10.663  22.815  0.00  0.00    +0.000 HD
BRANCH  26  29
ATOM     29  C   UNL     1      -2.829  13.146  22.919  0.00  0.00    +0.000 A 
ATOM     30  N   UNL     1      -3.311  14.042  23.725  0.00  0.00    +0.000 NA
ATOM     31  C   UNL     1      -4.586  14.551  23.386  0.00  0.00    +0.000 A 
ATOM     32  C   UNL     1      -5.065  15.714  23.986  0.00  0.00    +0.000 A 
ATOM     33  C   UNL     1      -6.341  16.198  23.668  0.00  0.00    +0.000 A 
ATOM     34  C   UNL     1      -7.166  15.502  22.780  0.00  0.00    +0.000 A 
ATOM     35  C   UNL     1      -6.704  14.335  22.177  0.00  0.00    +0.000 A 
ATOM     36  C   UNL     1      -5.410  13.896  22.463  0.00  0.00    +0.000 A 
ATOM     37  C   UNL     1      -4.824  12.759  21.739  0.00  0.00    +0.000 A 
ATOM     38  O   UNL     1      -5.507  11.920  21.174  0.00  0.00    +0.000 OA
ATOM     39  N   UNL     1      -3.462  12.688  21.800  0.00  0.00    +0.000 N 
ATOM     40  H   UNL     1      -3.023  11.925  21.297  0.00  0.00    +0.000 HD
ENDBRANCH  26  29
ENDBRANCH  24  27
ENDBRANCH   1  24
TORSDOF 6
ENDMDL
MODEL 2
REMARK VINA RESULT:      -9.1      1.535      1.964
REMARK  Name = 
REMARK  6 active torsions:
REMARK  status: ('A' for Active; 'I' for Inactive)
REMARK    1  A    between atoms: C_2  and  C_26
REMARK    2  A    between atoms: N_3  and  C_4
REMARK    3  A    between atoms: C_4  and  C_5
REMARK    4  A    between atoms: C_9  and  N_10
REMARK    5  A    between atoms: C_14  and  C_16
REMARK    6  A    between atoms: C_16  and  C_17
REMARK                            x       y       z     vdW  Elec       q    Type
REMARK                         _______ _______ _______ _____ _____    ______ ____
ROOT
ATOM      1  C   UNL     1       0.203  10.354  20.291  0.00  0.00    +0.000 A 
ATOM      2  C   UNL     1       0.003  10.421  21.672  0.00  0.00    +0.000 A 
ATOM      3  C   UNL     1       0.461   9.399  22.495  0.00  0.00    +0.000 A 
ATOM      4  C   UNL     1       1.149   8.315  21.948  0.00  0.00    +0.000 A 
ATOM      5  C   UNL     1       1.395   8.216  20.571  0.00  0.00    +0.000 A 
ATOM      6  C   UNL     1       0.890   9.248  19.760  0.00  0.00    +0.000 A 
ENDROOT
BRANCH   5   7
ATOM      7  N   UNL     1       2.092   7.154  20.038  0.00  0.00    +0.000 N 
ATOM      8  C   UNL     1       2.484   5.980  20.840  0.00  0.00    +0.000 C 
ATOM      9  C   UNL     1       1.996   4.689  20.156  0.00  0.00    +0.000 C 
ATOM     10  N   UNL     1       2.407   4.637  18.742  0.00  0.00    +0.000 N 
ATOM     11  C   UNL     1       3.073   3.526  18.258  0.00  0.00    +0.000 C 
ATOM     12  O   UNL     1       3.365   2.574  18.985  0.00  0.00    +0.000 OA
ATOM     13  C   UNL     1       2.030   5.829  17.968  0.00  0.00    +0.000 C 
ATOM     14  C   UNL     1       2.523   7.126  18.635  0.00  0.00    +0.000 C 
BRANCH  11  15
ATOM     15  C   UNL     1       3.504   3.516  16.791  0.00  0.00    +0.000 C 
BRANCH  15  16
ATOM     16  C   UNL     1       4.940   3.897  16.592  0.00  0.00    +0.000 A 
ATOM     17  C   UNL     1       5.514   4.398  15.476  0.00  0.00    +0.000 A 
ATOM     18  C   UNL     1       6.900   4.720  15.862  0.00  0.00    +0.000 A 
ATOM     19  O   UNL     1       7.757   5.147  15.110  0.00  0.00    +0.000 OA
ATOM     20  N   UNL     1       7.009   4.439  17.207  0.00  0.00    +0.000 N 
ATOM     21  N   UNL     1       5.858   3.786  17.635  0.00  0.00    +0.000 N 
ATOM     22  H   UNL     1       7.885   4.411  17.716  0.00  0.00    +0.000 HD
ATOM     23  H   UNL     1       5.490   4.100  18.539  0.00  0.00    +0.000 HD
ENDBRANCH  15  16
ENDBRANCH  11  15
ENDBRANCH   5   7
BRANCH   1  24
ATOM     24  C   UNL     1      -0.273  11.460  19.390  0.00  0.00    +0.000 C 
BRANCH  24  27
ATOM     25  O   UNL     1      -2.967  11.623  18.454  0.00  0.00    +0.000 OA
ATOM     26  C   UNL     1      -2.606  12.190  19.478  0.00  0.00    +0.000 C 
ATOM     27  N   UNL     1      -1.337  12.217  19.995  0.00  0.00    +0.000 N 
ATOM     28  H   UNL     1      -1.222  12.619  20.919  0.00  0.00    +0.000 HD
BRANCH  26  29
ATOM     29  C   UNL     1      -3.657  12.850  20.366  0.00  0.00    +0.000 A 
ATOM     30  N   UNL     1      -3.337  13.701  21.293  0.00  0.00    +0.000 NA
ATOM     31  C   UNL     1      -4.400  14.146  22.112  0.00  0.00    +0.000 A 
ATOM     32  C   UNL     1      -4.245  15.268  22.924  0.00  0.00    +0.000 A 
ATOM     33  C   UNL     1      -5.291  15.689  23.755  0.00  0.00    +0.000 A 
ATOM     34  C   UNL     1      -6.488  14.968  23.813  0.00  0.00    +0.000 A 
ATOM     35  C   UNL     1      -6.656  13.842  23.013  0.00  0.00    +0.000 A 
ATOM     36  C   UNL     1      -5.624  13.468  22.150  0.00  0.00    +0.000 A 
ATOM     37  C   UNL     1      -5.812  12.381  21.179  0.00  0.00    +0.000 A 
ATOM     38  O   UNL     1      -6.664  11.518  21.317  0.00  0.00    +0.000 OA
ATOM     39  N   UNL     1      -4.921  12.383  20.145  0.00  0.00    +0.000 N 
ATOM     40  H   UNL     1      -5.031  11.657  19.446  0.00  0.00    +0.000 HD
ENDBRANCH  26  29
ENDBRANCH  24  27
ENDBRANCH   1  24
TORSDOF 6
ENDMDL
MODEL 3
REMARK VINA RESULT:      -9.0      1.396      1.902
REMARK  Name = 
REMARK  6 active torsions:
REMARK  status: ('A' for Active; 'I' for Inactive)
REMARK    1  A    between atoms: C_2  and  C_26
REMARK    2  A    between atoms: N_3  and  C_4
REMARK    3  A    between atoms: C_4  and  C_5
REMARK    4  A    between atoms: C_9  and  N_10
REMARK    5  A    between atoms: C_14  and  C_16
REMARK    6  A    between atoms: C_16  and  C_17
REMARK                            x       y       z     vdW  Elec       q    Type
REMARK                         _______ _______ _______ _____ _____    ______ ____
ROOT
ATOM      1  C   UNL     1       0.189  11.281  20.371  0.00  0.00    +0.000 A 
ATOM      2  C   UNL     1      -0.528  11.576  19.208  0.00  0.00    +0.000 A 
ATOM      3  C   UNL     1      -0.428  10.749  18.096  0.00  0.00    +0.000 A 
ATOM      4  C   UNL     1       0.367   9.602  18.146  0.00  0.00    +0.000 A 
ATOM      5  C   UNL     1       1.085   9.252  19.299  0.00  0.00    +0.000 A 
ATOM      6  C   UNL     1       0.990  10.127  20.396  0.00  0.00    +0.000 A 
ENDROOT
BRANCH   5   7
ATOM      7  N   UNL     1       1.851   8.108  19.350  0.00  0.00    +0.000 N 
ATOM      8  C   UNL     1       2.100   7.375  20.605  0.00  0.00    +0.000 C 
ATOM      9  C   UNL     1       1.721   5.892  20.433  0.00  0.00    +0.000 C 
ATOM     10  N   UNL     1       2.355   5.307  19.238  0.00  0.00    +0.000 N 
ATOM     11  C   UNL     1       3.084   4.137  19.348  0.00  0.00    +0.000 C 
ATOM     12  O   UNL     1       3.248   3.571  20.432  0.00  0.00    +0.000 OA
ATOM     13  C   UNL     1       2.118   6.069  18.004  0.00  0.00    +0.000 C 
ATOM     14  C   UNL     1       2.504   7.551  18.160  0.00  0.00    +0.000 C 
BRANCH  11  15
ATOM     15  C   UNL     1       3.747   3.570  18.093  0.00  0.00    +0.000 C 
BRANCH  15  16
ATOM     16  C   UNL     1       5.104   4.147  17.827  0.00  0.00    +0.000 A 
ATOM     17  C   UNL     1       5.488   4.904  16.775  0.00  0.00    +0.000 A 
ATOM     18  C   UNL     1       6.871   5.314  17.074  0.00  0.00    +0.000 A 
ATOM     19  O   UNL     1       7.586   5.967  16.334  0.00  0.00    +0.000 OA
ATOM     20  N   UNL     1       7.169   4.812  18.322  0.00  0.00    +0.000 N 
ATOM     21  N   UNL     1       6.147   3.962  18.731  0.00  0.00    +0.000 N 
ATOM     22  H   UNL     1       8.099   4.797  18.725  0.00  0.00    +0.000 HD
ATOM     23  H   UNL     1       5.863   4.063  19.712  0.00  0.00    +0.000 HD
ENDBRANCH  15  16
ENDBRANCH  11  15
ENDBRANCH   5   7
BRANCH   1  24
ATOM     24  C   UNL     1       0.078  12.159  21.587  0.00  0.00    +0.000 C 
BRANCH  24  27
ATOM     25  O   UNL     1      -1.717  10.866  23.393  0.00  0.00    +0.000 OA
ATOM     26  C   UNL     1      -2.045  11.865  22.766  0.00  0.00    +0.000 C 
ATOM     27  N   UNL     1      -1.286  12.539  21.844  0.00  0.00    +0.000 N 
ATOM     28  H   UNL     1      -1.647  13.423  21.504  0.00  0.00    +0.000 HD
BRANCH  26  29
ATOM     29  C   UNL     1      -3.379  12.535  23.087  0.00  0.00    +0.000 A 
ATOM     30  N   UNL     1      -4.419  12.396  22.322  0.00  0.00    +0.000 NA
ATOM     31  C   UNL     1      -5.552  13.163  22.681  0.00  0.00    +0.000 A 
ATOM     32  C   UNL     1      -6.801  12.876  22.136  0.00  0.00    +0.000 A 
ATOM     33  C   UNL     1      -7.915  13.657  22.472  0.00  0.00    +0.000 A 
ATOM     34  C   UNL     1      -7.781  14.757  23.324  0.00  0.00    +0.000 A 
ATOM     35  C   UNL     1      -6.539  15.061  23.872  0.00  0.00    +0.000 A 
ATOM     36  C   UNL     1      -5.450  14.240  23.570  0.00  0.00    +0.000 A 
ATOM     37  C   UNL     1      -4.156  14.428  24.241  0.00  0.00    +0.000 A 
ATOM     38  O   UNL     1      -3.836  15.483  24.764  0.00  0.00    +0.000 OA
ATOM     39  N   UNL     1      -3.323  13.348  24.181  0.00  0.00    +0.000 N 
ATOM     40  H   UNL     1      -2.428  13.437  24.649  0.00  0.00    +0.000 HD
ENDBRANCH  26  29
ENDBRANCH  24  27
ENDBRANCH   1  24
TORSDOF 6
ENDMDL
MODEL 4
REMARK VINA RESULT:      -8.9      4.937     10.914
REMARK  Name = 
REMARK  6 active torsions:
REMARK  status: ('A' for Active; 'I' for Inactive)
REMARK    1  A    between atoms: C_2  and  C_26
REMARK    2  A    between atoms: N_3  and  C_4
REMARK    3  A    between atoms: C_4  and  C_5
REMARK    4  A    between atoms: C_9  and  N_10
REMARK    5  A    between atoms: C_14  and  C_16
REMARK    6  A    between atoms: C_16  and  C_17
REMARK                            x       y       z     vdW  Elec       q    Type
REMARK                         _______ _______ _______ _____ _____    ______ ____
ROOT
ATOM      1  C   UNL     1       5.780   5.893  17.052  0.00  0.00    +0.000 A 
ATOM      2  C   UNL     1       5.525   4.520  16.987  0.00  0.00    +0.000 A 
ATOM      3  C   UNL     1       4.290   4.019  17.381  0.00  0.00    +0.000 A 
ATOM      4  C   UNL     1       3.288   4.889  17.813  0.00  0.00    +0.000 A 
ATOM      5  C   UNL     1       3.488   6.275  17.871  0.00  0.00    +0.000 A 
ATOM      6  C   UNL     1       4.759   6.749  17.500  0.00  0.00    +0.000 A 
ENDROOT
BRANCH   5   7
ATOM      7  N   UNL     1       2.489   7.131  18.280  0.00  0.00    +0.000 N 
ATOM      8  C   UNL     1       1.673   6.882  19.483  0.00  0.00    +0.000 C 
ATOM      9  C   UNL     1       1.710   8.112  20.409  0.00  0.00    +0.000 C 
ATOM     10  N   UNL     1       1.374   9.348  19.679  0.00  0.00    +0.000 N 
ATOM     11  C   UNL     1       0.384  10.185  20.160  0.00  0.00    +0.000 C 
ATOM     12  O   UNL     1      -0.258   9.917  21.179  0.00  0.00    +0.000 OA
ATOM     13  C   UNL     1       2.180   9.563  18.469  0.00  0.00    +0.000 C 
ATOM     14  C   UNL     1       2.143   8.344  17.529  0.00  0.00    +0.000 C 
BRANCH  11  15
ATOM     15  C   UNL     1       0.047  11.447  19.367  0.00  0.00    +0.000 C 
BRANCH  15  16
ATOM     16  C   UNL     1      -0.882  11.194  18.217  0.00  0.00    +0.000 A 
ATOM     17  C   UNL     1      -1.528  10.047  17.913  0.00  0.00    +0.000 A 
ATOM     18  C   UNL     1      -2.406  10.383  16.779  0.00  0.00    +0.000 A 
ATOM     19  O   UNL     1      -3.117   9.593  16.182  0.00  0.00    +0.000 OA
ATOM     20  N   UNL     1      -2.250  11.732  16.546  0.00  0.00    +0.000 N 
ATOM     21  N   UNL     1      -1.201  12.214  17.322  0.00  0.00    +0.000 N 
ATOM     22  H   UNL     1      -2.605  12.217  15.730  0.00  0.00    +0.000 HD
ATOM     23  H   UNL     1      -1.373  13.118  17.775  0.00  0.00    +0.000 HD
ENDBRANCH  15  16
ENDBRANCH  11  15
ENDBRANCH   5   7
BRANCH   1  24
ATOM     24  C   UNL     1       7.107   6.450  16.615  0.00  0.00    +0.000 C 
BRANCH  24  27
ATOM     25  O   UNL     1       8.635   7.252  18.891  0.00  0.00    +0.000 OA
ATOM     26  C   UNL     1       8.084   8.070  18.166  0.00  0.00    +0.000 C 
ATOM     27  N   UNL     1       7.293   7.800  17.079  0.00  0.00    +0.000 N 
ATOM     28  H   UNL     1       7.014   8.586  16.503  0.00  0.00    +0.000 HD
BRANCH  26  29
ATOM     29  C   UNL     1       8.364   9.555  18.381  0.00  0.00    +0.000 A 
ATOM     30  N   UNL     1       7.917  10.463  17.568  0.00  0.00    +0.000 NA
ATOM     31  C   UNL     1       8.348  11.785  17.827  0.00  0.00    +0.000 A 
ATOM     32  C   UNL     1       7.706  12.867  17.228  0.00  0.00    +0.000 A 
ATOM     33  C   UNL     1       8.155  14.173  17.464  0.00  0.00    +0.000 A 
ATOM     34  C   UNL     1       9.274  14.407  18.269  0.00  0.00    +0.000 A 
ATOM     35  C   UNL     1       9.930  13.336  18.869  0.00  0.00    +0.000 A 
ATOM     36  C   UNL     1       9.437  12.045  18.667  0.00  0.00    +0.000 A 
ATOM     37  C   UNL     1       9.999  10.902  19.399  0.00  0.00    +0.000 A 
ATOM     38  O   UNL     1      11.117  10.922  19.887  0.00  0.00    +0.000 OA
ATOM     39  N   UNL     1       9.194   9.799  19.437  0.00  0.00    +0.000 N 
ATOM     40  H   UNL     1       9.543   8.997  19.948  0.00  0.00    +0.000 HD
ENDBRANCH  26  29
ENDBRANCH  24  27
ENDBRANCH   1  24
TORSDOF 6
ENDMDL
MODEL 5
REMARK VINA RESULT:      -8.9      4.248      6.241
REMARK  Name = 
REMARK  6 active torsions:
REMARK  status: ('A' for Active; 'I' for Inactive)
REMARK    1  A    between atoms: C_2  and  C_26
REMARK    2  A    between atoms: N_3  and  C_4
REMARK    3  A    between atoms: C_4  and  C_5
REMARK    4  A    between atoms: C_9  and  N_10
REMARK    5  A    between atoms: C_14  and  C_16
REMARK    6  A    between atoms: C_16  and  C_17
REMARK                            x       y       z     vdW  Elec       q    Type
REMARK                         _______ _______ _______ _____ _____    ______ ____
ROOT
ATOM      1  C   UNL     1       0.297  10.581  19.749  0.00  0.00    +0.000 A 
ATOM      2  C   UNL     1      -0.111  10.770  21.072  0.00  0.00    +0.000 A 
ATOM      3  C   UNL     1       0.144   9.795  22.029  0.00  0.00    +0.000 A 
ATOM      4  C   UNL     1       0.837   8.635  21.678  0.00  0.00    +0.000 A 
ATOM      5  C   UNL     1       1.288   8.412  20.368  0.00  0.00    +0.000 A 
ATOM      6  C   UNL     1       0.985   9.401  19.416  0.00  0.00    +0.000 A 
ENDROOT
BRANCH   5   7
ATOM      7  N   UNL     1       1.989   7.275  20.032  0.00  0.00    +0.000 N 
ATOM      8  C   UNL     1       2.086   6.108  20.928  0.00  0.00    +0.000 C 
ATOM      9  C   UNL     1       1.650   4.833  20.181  0.00  0.00    +0.000 C 
ATOM     10  N   UNL     1       2.360   4.688  18.898  0.00  0.00    +0.000 N 
ATOM     11  C   UNL     1       3.016   3.507  18.603  0.00  0.00    +0.000 C 
ATOM     12  O   UNL     1       3.052   2.566  19.399  0.00  0.00    +0.000 OA
ATOM     13  C   UNL     1       2.273   5.873  18.033  0.00  0.00    +0.000 C 
ATOM     14  C   UNL     1       2.718   7.153  18.764  0.00  0.00    +0.000 C 
BRANCH  11  15
ATOM     15  C   UNL     1       3.760   3.400  17.273  0.00  0.00    +0.000 C 
BRANCH  15  16
ATOM     16  C   UNL     1       5.100   4.071  17.286  0.00  0.00    +0.000 A 
ATOM     17  C   UNL     1       5.581   4.974  16.403  0.00  0.00    +0.000 A 
ATOM     18  C   UNL     1       6.876   5.408  16.955  0.00  0.00    +0.000 A 
ATOM     19  O   UNL     1       7.645   6.185  16.417  0.00  0.00    +0.000 OA
ATOM     20  N   UNL     1       7.023   4.766  18.166  0.00  0.00    +0.000 N 
ATOM     21  N   UNL     1       6.011   3.822  18.311  0.00  0.00    +0.000 N 
ATOM     22  H   UNL     1       7.882   4.745  18.702  0.00  0.00    +0.000 HD
ATOM     23  H   UNL     1       5.581   3.784  19.241  0.00  0.00    +0.000 HD
ENDBRANCH  15  16
ENDBRANCH  11  15
ENDBRANCH   5   7
BRANCH   1  24
ATOM     24  C   UNL     1       0.041  11.634  18.707  0.00  0.00    +0.000 C 
BRANCH  24  27
ATOM     25  O   UNL     1       0.287  14.251  19.824  0.00  0.00    +0.000 OA
ATOM     26  C   UNL     1       1.191  13.742  19.174  0.00  0.00    +0.000 C 
ATOM     27  N   UNL     1       1.167  12.518  18.557  0.00  0.00    +0.000 N 
ATOM     28  H   UNL     1       2.038  12.180  18.166  0.00  0.00    +0.000 HD
BRANCH  26  29
ATOM     29  C   UNL     1       2.543  14.449  19.108  0.00  0.00    +0.000 A 
ATOM     30  N   UNL     1       3.401  14.380  20.080  0.00  0.00    +0.000 NA
ATOM     31  C   UNL     1       4.562  15.174  19.930  0.00  0.00    +0.000 A 
ATOM     32  C   UNL     1       5.676  14.956  20.738  0.00  0.00    +0.000 A 
ATOM     33  C   UNL     1       6.813  15.764  20.606  0.00  0.00    +0.000 A 
ATOM     34  C   UNL     1       6.832  16.823  19.694  0.00  0.00    +0.000 A 
ATOM     35  C   UNL     1       5.724  17.058  18.884  0.00  0.00    +0.000 A 
ATOM     36  C   UNL     1       4.620  16.210  18.990  0.00  0.00    +0.000 A 
ATOM     37  C   UNL     1       3.493  16.322  18.054  0.00  0.00    +0.000 A 
ATOM     38  O   UNL     1       3.261  17.342  17.426  0.00  0.00    +0.000 OA
ATOM     39  N   UNL     1       2.696  15.215  17.989  0.00  0.00    +0.000 N 
ATOM     40  H   UNL     1       1.918  15.250  17.341  0.00  0.00    +0.000 HD
ENDBRANCH  26  29
ENDBRANCH  24  27
ENDBRANCH   1  24
TORSDOF 6
ENDMDL
MODEL 6
REMARK VINA RESULT:      -8.8      4.054      6.351
REMARK  Name = 
REMARK  6 active torsions:
REMARK  status: ('A' for Active; 'I' for Inactive)
REMARK    1  A    between atoms: C_2  and  C_26
REMARK    2  A    between atoms: N_3  and  C_4
REMARK    3  A    between atoms: C_4  and  C_5
REMARK    4  A    between atoms: C_9  and  N_10
REMARK    5  A    between atoms: C_14  and  C_16
REMARK    6  A    between atoms: C_16  and  C_17
REMARK                            x       y       z     vdW  Elec       q    Type
REMARK                         _______ _______ _______ _____ _____    ______ ____
ROOT
ATOM      1  C   UNL     1       0.437  10.540  20.148  0.00  0.00    +0.000 A 
ATOM      2  C   UNL     1      -0.088  10.616  21.441  0.00  0.00    +0.000 A 
ATOM      3  C   UNL     1      -0.006   9.521  22.293  0.00  0.00    +0.000 A 
ATOM      4  C   UNL     1       0.628   8.351  21.871  0.00  0.00    +0.000 A 
ATOM      5  C   UNL     1       1.191   8.238  20.592  0.00  0.00    +0.000 A 
ATOM      6  C   UNL     1       1.062   9.349  19.741  0.00  0.00    +0.000 A 
ENDROOT
BRANCH   5   7
ATOM      7  N   UNL     1       1.833   7.088  20.187  0.00  0.00    +0.000 N 
ATOM      8  C   UNL     1       1.926   5.888  21.040  0.00  0.00    +0.000 C 
ATOM      9  C   UNL     1       1.410   4.656  20.273  0.00  0.00    +0.000 C 
ATOM     10  N   UNL     1       2.057   4.529  18.955  0.00  0.00    +0.000 N 
ATOM     11  C   UNL     1       2.655   3.336  18.593  0.00  0.00    +0.000 C 
ATOM     12  O   UNL     1       2.691   2.367  19.355  0.00  0.00    +0.000 OA
ATOM     13  C   UNL     1       1.977   5.745  18.133  0.00  0.00    +0.000 C 
ATOM     14  C   UNL     1       2.501   6.983  18.884  0.00  0.00    +0.000 C 
BRANCH  11  15
ATOM     15  C   UNL     1       3.335   3.247  17.227  0.00  0.00    +0.000 C 
BRANCH  15  16
ATOM     16  C   UNL     1       4.789   3.610  17.264  0.00  0.00    +0.000 A 
ATOM     17  C   UNL     1       5.569   4.002  16.232  0.00  0.00    +0.000 A 
ATOM     18  C   UNL     1       6.863   4.363  16.837  0.00  0.00    +0.000 A 
ATOM     19  O   UNL     1       7.852   4.718  16.221  0.00  0.00    +0.000 OA
ATOM     20  N   UNL     1       6.716   4.215  18.199  0.00  0.00    +0.000 N 
ATOM     21  N   UNL     1       5.494   3.604  18.465  0.00  0.00    +0.000 N 
ATOM     22  H   UNL     1       7.480   4.239  18.863  0.00  0.00    +0.000 HD
ATOM     23  H   UNL     1       4.969   4.004  19.251  0.00  0.00    +0.000 HD
ENDBRANCH  15  16
ENDBRANCH  11  15
ENDBRANCH   5   7
BRANCH   1  24
ATOM     24  C   UNL     1       0.369  11.722  19.220  0.00  0.00    +0.000 C 
BRANCH  24  27
ATOM     25  O   UNL     1       0.596  14.116  20.762  0.00  0.00    +0.000 OA
ATOM     26  C   UNL     1       1.545  13.663  20.136  0.00  0.00    +0.000 C 
ATOM     27  N   UNL     1       1.540  12.552  19.332  0.00  0.00    +0.000 N 
ATOM     28  H   UNL     1       2.435  12.229  18.984  0.00  0.00    +0.000 HD
BRANCH  26  29
ATOM     29  C   UNL     1       2.923  14.292  20.324  0.00  0.00    +0.000 A 
ATOM     30  N   UNL     1       3.682  14.597  19.316  0.00  0.00    +0.000 NA
ATOM     31  C   UNL     1       4.975  15.068  19.643  0.00  0.00    +0.000 A 
ATOM     32  C   UNL     1       5.758  15.706  18.683  0.00  0.00    +0.000 A 
ATOM     33  C   UNL     1       7.049  16.145  19.002  0.00  0.00    +0.000 A 
ATOM     34  C   UNL     1       7.586  15.912  20.271  0.00  0.00    +0.000 A 
ATOM     35  C   UNL     1       6.820  15.270  21.240  0.00  0.00    +0.000 A 
ATOM     36  C   UNL     1       5.515  14.887  20.922  0.00  0.00    +0.000 A 
ATOM     37  C   UNL     1       4.617  14.346  21.951  0.00  0.00    +0.000 A 
ATOM     38  O   UNL     1       5.032  13.842  22.983  0.00  0.00    +0.000 OA
ATOM     39  N   UNL     1       3.290  14.400  21.634  0.00  0.00    +0.000 N 
ATOM     40  H   UNL     1       2.641  14.051  22.329  0.00  0.00    +0.000 HD
ENDBRANCH  26  29
ENDBRANCH  24  27
ENDBRANCH   1  24
TORSDOF 6
ENDMDL
MODEL 7
REMARK VINA RESULT:      -8.8      1.657      2.207
REMARK  Name = 
REMARK  6 active torsions:
REMARK  status: ('A' for Active; 'I' for Inactive)
REMARK    1  A    between atoms: C_2  and  C_26
REMARK    2  A    between atoms: N_3  and  C_4
REMARK    3  A    between atoms: C_4  and  C_5
REMARK    4  A    between atoms: C_9  and  N_10
REMARK    5  A    between atoms: C_14  and  C_16
REMARK    6  A    between atoms: C_16  and  C_17
REMARK                            x       y       z     vdW  Elec       q    Type
REMARK                         _______ _______ _______ _____ _____    ______ ____
ROOT
ATOM      1  C   UNL     1       0.083  10.562  20.319  0.00  0.00    +0.000 A 
ATOM      2  C   UNL     1      -0.075  10.678  21.702  0.00  0.00    +0.000 A 
ATOM      3  C   UNL     1       0.404   9.683  22.546  0.00  0.00    +0.000 A 
ATOM      4  C   UNL     1       1.072   8.578  22.016  0.00  0.00    +0.000 A 
ATOM      5  C   UNL     1       1.276   8.431  20.637  0.00  0.00    +0.000 A 
ATOM      6  C   UNL     1       0.750   9.437  19.806  0.00  0.00    +0.000 A 
ENDROOT
BRANCH   5   7
ATOM      7  N   UNL     1       1.953   7.348  20.120  0.00  0.00    +0.000 N 
ATOM      8  C   UNL     1       2.211   6.126  20.904  0.00  0.00    +0.000 C 
ATOM      9  C   UNL     1       1.708   4.891  20.132  0.00  0.00    +0.000 C 
ATOM     10  N   UNL     1       2.232   4.864  18.755  0.00  0.00    +0.000 N 
ATOM     11  C   UNL     1       2.872   3.733  18.282  0.00  0.00    +0.000 C 
ATOM     12  O   UNL     1       3.048   2.740  18.992  0.00  0.00    +0.000 OA
ATOM     13  C   UNL     1       1.989   6.103  18.001  0.00  0.00    +0.000 C 
ATOM     14  C   UNL     1       2.497   7.344  18.757  0.00  0.00    +0.000 C 
BRANCH  11  15
ATOM     15  C   UNL     1       3.421   3.748  16.856  0.00  0.00    +0.000 C 
BRANCH  15  16
ATOM     16  C   UNL     1       4.852   4.188  16.776  0.00  0.00    +0.000 A 
ATOM     17  C   UNL     1       5.402   5.055  15.899  0.00  0.00    +0.000 A 
ATOM     18  C   UNL     1       6.794   5.233  16.346  0.00  0.00    +0.000 A 
ATOM     19  O   UNL     1       7.635   5.906  15.777  0.00  0.00    +0.000 OA
ATOM     20  N   UNL     1       6.933   4.497  17.503  0.00  0.00    +0.000 N 
ATOM     21  N   UNL     1       5.792   3.725  17.695  0.00  0.00    +0.000 N 
ATOM     22  H   UNL     1       7.819   4.299  17.952  0.00  0.00    +0.000 HD
ATOM     23  H   UNL     1       5.443   3.696  18.659  0.00  0.00    +0.000 HD
ENDBRANCH  15  16
ENDBRANCH  11  15
ENDBRANCH   5   7
BRANCH   1  24
ATOM     24  C   UNL     1      -0.417  11.639  19.395  0.00  0.00    +0.000 C 
BRANCH  24  27
ATOM     25  O   UNL     1      -3.226  11.678  18.877  0.00  0.00    +0.000 OA
ATOM     26  C   UNL     1      -2.721  12.388  19.736  0.00  0.00    +0.000 C 
ATOM     27  N   UNL     1      -1.387  12.484  20.040  0.00  0.00    +0.000 N 
ATOM     28  H   UNL     1      -1.137  13.018  20.864  0.00  0.00    +0.000 HD
BRANCH  26  29
ATOM     29  C   UNL     1      -3.633  13.180  20.670  0.00  0.00    +0.000 A 
ATOM     30  N   UNL     1      -4.520  12.599  21.419  0.00  0.00    +0.000 NA
ATOM     31  C   UNL     1      -5.369  13.464  22.148  0.00  0.00    +0.000 A 
ATOM     32  C   UNL     1      -6.141  12.975  23.200  0.00  0.00    +0.000 A 
ATOM     33  C   UNL     1      -7.002  13.830  23.900  0.00  0.00    +0.000 A 
ATOM     34  C   UNL     1      -7.131  15.171  23.529  0.00  0.00    +0.000 A 
ATOM     35  C   UNL     1      -6.371  15.674  22.477  0.00  0.00    +0.000 A 
ATOM     36  C   UNL     1      -5.478  14.822  21.824  0.00  0.00    +0.000 A 
ATOM     37  C   UNL     1      -4.547  15.340  20.812  0.00  0.00    +0.000 A 
ATOM     38  O   UNL     1      -4.745  16.385  20.213  0.00  0.00    +0.000 OA
ATOM     39  N   UNL     1      -3.477  14.531  20.556  0.00  0.00    +0.000 N 
ATOM     40  H   UNL     1      -2.805  14.865  19.875  0.00  0.00    +0.000 HD
ENDBRANCH  26  29
ENDBRANCH  24  27
ENDBRANCH   1  24
TORSDOF 6
ENDMDL
MODEL 8
REMARK VINA RESULT:      -8.8      1.089      1.156
REMARK  Name = 
REMARK  6 active torsions:
REMARK  status: ('A' for Active; 'I' for Inactive)
REMARK    1  A    between atoms: C_2  and  C_26
REMARK    2  A    between atoms: N_3  and  C_4
REMARK    3  A    between atoms: C_4  and  C_5
REMARK    4  A    between atoms: C_9  and  N_10
REMARK    5  A    between atoms: C_14  and  C_16
REMARK    6  A    between atoms: C_16  and  C_17
REMARK                            x       y       z     vdW  Elec       q    Type
REMARK                         _______ _______ _______ _____ _____    ______ ____
ROOT
ATOM      1  C   UNL     1      -0.239  10.383  21.589  0.00  0.00    +0.000 A 
ATOM      2  C   UNL     1      -0.686  11.115  20.486  0.00  0.00    +0.000 A 
ATOM      3  C   UNL     1      -0.272  10.771  19.204  0.00  0.00    +0.000 A 
ATOM      4  C   UNL     1       0.569   9.674  19.012  0.00  0.00    +0.000 A 
ATOM      5  C   UNL     1       1.023   8.895  20.086  0.00  0.00    +0.000 A 
ATOM      6  C   UNL     1       0.615   9.288  21.373  0.00  0.00    +0.000 A 
ENDROOT
BRANCH   5   7
ATOM      7  N   UNL     1       1.837   7.801  19.889  0.00  0.00    +0.000 N 
ATOM      8  C   UNL     1       1.985   6.730  20.892  0.00  0.00    +0.000 C 
ATOM      9  C   UNL     1       1.702   5.361  20.245  0.00  0.00    +0.000 C 
ATOM     10  N   UNL     1       2.493   5.170  19.016  0.00  0.00    +0.000 N 
ATOM     11  C   UNL     1       3.264   4.032  18.862  0.00  0.00    +0.000 C 
ATOM     12  O   UNL     1       3.337   3.171  19.742  0.00  0.00    +0.000 OA
ATOM     13  C   UNL     1       2.353   6.262  18.042  0.00  0.00    +0.000 C 
ATOM     14  C   UNL     1       2.644   7.636  18.673  0.00  0.00    +0.000 C 
BRANCH  11  15
ATOM     15  C   UNL     1       4.088   3.877  17.584  0.00  0.00    +0.000 C 
BRANCH  15  16
ATOM     16  C   UNL     1       5.487   4.401  17.713  0.00  0.00    +0.000 A 
ATOM     17  C   UNL     1       5.961   5.272  18.630  0.00  0.00    +0.000 A 
ATOM     18  C   UNL     1       7.414   5.338  18.390  0.00  0.00    +0.000 A 
ATOM     19  O   UNL     1       8.193   6.061  18.986  0.00  0.00    +0.000 OA
ATOM     20  N   UNL     1       7.687   4.439  17.382  0.00  0.00    +0.000 N 
ATOM     21  N   UNL     1       6.491   3.968  16.850  0.00  0.00    +0.000 N 
ATOM     22  H   UNL     1       8.573   4.377  16.895  0.00  0.00    +0.000 HD
ATOM     23  H   UNL     1       6.464   2.960  16.662  0.00  0.00    +0.000 HD
ENDBRANCH  15  16
ENDBRANCH  11  15
ENDBRANCH   5   7
BRANCH   1  24
ATOM     24  C   UNL     1      -0.691  10.735  22.980  0.00  0.00    +0.000 C 
BRANCH  24  27
ATOM     25  O   UNL     1      -1.016  13.475  23.716  0.00  0.00    +0.000 OA
ATOM     26  C   UNL     1      -1.953  12.805  23.304  0.00  0.00    +0.000 C 
ATOM     27  N   UNL     1      -1.924  11.477  22.965  0.00  0.00    +0.000 N 
ATOM     28  H   UNL     1      -2.750  11.095  22.517  0.00  0.00    +0.000 HD
BRANCH  26  29
ATOM     29  C   UNL     1      -3.283  13.496  23.011  0.00  0.00    +0.000 A 
ATOM     30  N   UNL     1      -3.478  14.751  23.277  0.00  0.00    +0.000 NA
ATOM     31  C   UNL     1      -4.791  15.229  23.058  0.00  0.00    +0.000 A 
ATOM     32  C   UNL     1      -5.047  16.597  23.012  0.00  0.00    +0.000 A 
ATOM     33  C   UNL     1      -6.354  17.066  22.823  0.00  0.00    +0.000 A 
ATOM     34  C   UNL     1      -7.423  16.171  22.721  0.00  0.00    +0.000 A 
ATOM     35  C   UNL     1      -7.185  14.800  22.771  0.00  0.00    +0.000 A 
ATOM     36  C   UNL     1      -5.870  14.349  22.905  0.00  0.00    +0.000 A 
ATOM     37  C   UNL     1      -5.552  12.918  22.810  0.00  0.00    +0.000 A 
ATOM     38  O   UNL     1      -6.384  12.047  23.006  0.00  0.00    +0.000 OA
ATOM     39  N   UNL     1      -4.241  12.643  22.544  0.00  0.00    +0.000 N 
ATOM     40  H   UNL     1      -3.989  11.665  22.455  0.00  0.00    +0.000 HD
ENDBRANCH  26  29
ENDBRANCH  24  27
ENDBRANCH   1  24
TORSDOF 6
ENDMDL
MODEL 9
REMARK VINA RESULT:      -8.6      2.090      2.719
REMARK  Name = 
REMARK  6 active torsions:
REMARK  status: ('A' for Active; 'I' for Inactive)
REMARK    1  A    between atoms: C_2  and  C_26
REMARK    2  A    between atoms: N_3  and  C_4
REMARK    3  A    between atoms: C_4  and  C_5
REMARK    4  A    between atoms: C_9  and  N_10
REMARK    5  A    between atoms: C_14  and  C_16
REMARK    6  A    between atoms: C_16  and  C_17
REMARK                            x       y       z     vdW  Elec       q    Type
REMARK                         _______ _______ _______ _____ _____    ______ ____
ROOT
ATOM      1  C   UNL     1       0.364  10.486  20.156  0.00  0.00    +0.000 A 
ATOM      2  C   UNL     1      -0.024  10.526  21.498  0.00  0.00    +0.000 A 
ATOM      3  C   UNL     1       0.250   9.453  22.337  0.00  0.00    +0.000 A 
ATOM      4  C   UNL     1       0.941   8.342  21.850  0.00  0.00    +0.000 A 
ATOM      5  C   UNL     1       1.372   8.267  20.518  0.00  0.00    +0.000 A 
ATOM      6  C   UNL     1       1.050   9.353  19.685  0.00  0.00    +0.000 A 
ENDROOT
BRANCH   5   7
ATOM      7  N   UNL     1       2.071   7.177  20.047  0.00  0.00    +0.000 N 
ATOM      8  C   UNL     1       2.200   5.925  20.815  0.00  0.00    +0.000 C 
ATOM      9  C   UNL     1       1.752   4.730  19.952  0.00  0.00    +0.000 C 
ATOM     10  N   UNL     1       2.428   4.725  18.643  0.00  0.00    +0.000 N 
ATOM     11  C   UNL     1       3.084   3.587  18.210  0.00  0.00    +0.000 C 
ATOM     12  O   UNL     1       3.148   2.569  18.903  0.00  0.00    +0.000 OA
ATOM     13  C   UNL     1       2.311   5.992  17.907  0.00  0.00    +0.000 C 
ATOM     14  C   UNL     1       2.767   7.194  18.755  0.00  0.00    +0.000 C 
BRANCH  11  15
ATOM     15  C   UNL     1       3.793   3.624  16.857  0.00  0.00    +0.000 C 
BRANCH  15  16
ATOM     16  C   UNL     1       4.981   4.537  16.835  0.00  0.00    +0.000 A 
ATOM     17  C   UNL     1       5.927   4.687  17.788  0.00  0.00    +0.000 A 
ATOM     18  C   UNL     1       6.927   5.598  17.207  0.00  0.00    +0.000 A 
ATOM     19  O   UNL     1       7.914   6.020  17.783  0.00  0.00    +0.000 OA
ATOM     20  N   UNL     1       6.517   5.862  15.918  0.00  0.00    +0.000 N 
ATOM     21  N   UNL     1       5.241   5.341  15.727  0.00  0.00    +0.000 N 
ATOM     22  H   UNL     1       6.917   6.580  15.326  0.00  0.00    +0.000 HD
ATOM     23  H   UNL     1       5.096   4.863  14.831  0.00  0.00    +0.000 HD
ENDBRANCH  15  16
ENDBRANCH  11  15
ENDBRANCH   5   7
BRANCH   1  24
ATOM     24  C   UNL     1       0.088  11.646  19.240  0.00  0.00    +0.000 C 
BRANCH  24  27
ATOM     25  O   UNL     1      -2.255  10.883  17.796  0.00  0.00    +0.000 OA
ATOM     26  C   UNL     1      -2.299  11.700  18.706  0.00  0.00    +0.000 C 
ATOM     27  N   UNL     1      -1.238  12.172  19.435  0.00  0.00    +0.000 N 
ATOM     28  H   UNL     1      -1.449  12.749  20.241  0.00  0.00    +0.000 HD
BRANCH  26  29
ATOM     29  C   UNL     1      -3.660  12.190  19.196  0.00  0.00    +0.000 A 
ATOM     30  N   UNL     1      -3.867  12.517  20.435  0.00  0.00    +0.000 NA
ATOM     31  C   UNL     1      -5.202  12.844  20.768  0.00  0.00    +0.000 A 
ATOM     32  C   UNL     1      -5.491  13.495  21.966  0.00  0.00    +0.000 A 
ATOM     33  C   UNL     1      -6.818  13.792  22.305  0.00  0.00    +0.000 A 
ATOM     34  C   UNL     1      -7.870  13.403  21.472  0.00  0.00    +0.000 A 
ATOM     35  C   UNL     1      -7.598  12.746  20.275  0.00  0.00    +0.000 A 
ATOM     36  C   UNL     1      -6.267  12.506  19.925  0.00  0.00    +0.000 A 
ATOM     37  C   UNL     1      -5.923  11.955  18.608  0.00  0.00    +0.000 A 
ATOM     38  O   UNL     1      -6.721  11.329  17.930  0.00  0.00    +0.000 OA
ATOM     39  N   UNL     1      -4.625  12.151  18.231  0.00  0.00    +0.000 N 
ATOM     40  H   UNL     1      -4.356  11.798  17.320  0.00  0.00    +0.000 HD
ENDBRANCH  26  29
ENDBRANCH  24  27
ENDBRANCH   1  24
TORSDOF 6
ENDMDL
