MODEL 1
REMARK VINA RESULT:      -7.4      0.000      0.000
REMARK  Name = 
REMARK  5 active torsions:
REMARK  status: ('A' for Active; 'I' for Inactive)
REMARK    1  A    between atoms: C_2  and  C_3
REMARK    2  A    between atoms: C_3  and  C_4
REMARK    3  A    between atoms: C_4  and  N_5
REMARK    4  A    between atoms: C_6  and  C_8
REMARK    5  A    between atoms: N_15  and  C_16
REMARK                            x       y       z     vdW  Elec       q    Type
REMARK                         _______ _______ _______ _____ _____    ______ ____
ROOT
ATOM      1  C   UNL     1       7.183   4.977  18.716  0.00  0.00    +0.000 C 
ENDROOT
BRANCH   1   2
ATOM      2  N   UNL     1       5.898   4.762  19.358  0.00  0.00    +0.000 N 
ATOM      3  C   UNL     1       4.870   4.086  18.743  0.00  0.00    +0.000 C 
ATOM      4  O   UNL     1       4.985   3.585  17.628  0.00  0.00    +0.000 OA
ATOM      5  H   UNL     1       5.735   5.202  20.255  0.00  0.00    +0.000 HD
BRANCH   3   6
ATOM      6  C   UNL     1       3.602   3.901  19.512  0.00  0.00    +0.000 A 
ATOM      7  C   UNL     1       3.620   2.880  20.480  0.00  0.00    +0.000 A 
ATOM      8  C   UNL     1       2.508   2.631  21.288  0.00  0.00    +0.000 A 
ATOM      9  C   UNL     1       1.357   3.397  21.136  0.00  0.00    +0.000 A 
ATOM     10  C   UNL     1       1.317   4.402  20.169  0.00  0.00    +0.000 A 
ATOM     11  C   UNL     1       2.431   4.656  19.354  0.00  0.00    +0.000 A 
ATOM     12 CL   UNL     1       2.234   5.898  18.165  0.00  0.00    +0.000 Cl
ENDBRANCH   3   6
ENDBRANCH   1   2
BRANCH   1  13
ATOM     13  C   UNL     1       7.243   6.318  17.991  0.00  0.00    +0.000 C 
BRANCH  13  15
ATOM     14  O   UNL     1       5.961   6.983  16.076  0.00  0.00    +0.000 OA
ATOM     15  C   UNL     1       6.739   6.177  16.567  0.00  0.00    +0.000 C 
ATOM     16  N   UNL     1       7.260   5.058  15.920  0.00  0.00    +0.000 N 
ATOM     17  H   UNL     1       7.760   4.386  16.492  0.00  0.00    +0.000 HD
BRANCH  16  18
ATOM     18  C   UNL     1       7.021   4.694  14.574  0.00  0.00    +0.000 A 
ATOM     19  C   UNL     1       6.049   3.772  14.194  0.00  0.00    +0.000 A 
ATOM     20  C   UNL     1       5.924   3.450  12.852  0.00  0.00    +0.000 A 
ATOM     21  N   UNL     1       6.684   3.985  11.877  0.00  0.00    +0.000 NA
ATOM     22  C   UNL     1       7.601   4.894  12.262  0.00  0.00    +0.000 A 
ATOM     23  C   UNL     1       7.798   5.289  13.580  0.00  0.00    +0.000 A 
ENDBRANCH  16  18
ENDBRANCH  13  15
ENDBRANCH   1  13
TORSDOF 5
ENDMDL
MODEL 2
REMARK VINA RESULT:      -7.4      0.497      1.137
REMARK  Name = 
REMARK  5 active torsions:
REMARK  status: ('A' for Active; 'I' for Inactive)
REMARK    1  A    between atoms: C_2  and  C_3
REMARK    2  A    between atoms: C_3  and  C_4
REMARK    3  A    between atoms: C_4  and  N_5
REMARK    4  A    between atoms: C_6  and  C_8
REMARK    5  A    between atoms: N_15  and  C_16
REMARK                            x       y       z     vdW  Elec       q    Type
REMARK                         _______ _______ _______ _____ _____    ______ ____
ROOT
ATOM      1  C   UNL     1       6.860   4.860  18.639  0.00  0.00    +0.000 C 
ENDROOT
BRANCH   1   2
ATOM      2  N   UNL     1       5.613   4.532  19.305  0.00  0.00    +0.000 N 
ATOM      3  C   UNL     1       4.594   3.857  18.672  0.00  0.00    +0.000 C 
ATOM      4  O   UNL     1       4.689   3.453  17.517  0.00  0.00    +0.000 OA
ATOM      5  H   UNL     1       5.464   4.890  20.241  0.00  0.00    +0.000 HD
BRANCH   3   6
ATOM      6  C   UNL     1       3.367   3.548  19.467  0.00  0.00    +0.000 A 
ATOM      7  C   UNL     1       3.581   2.860  20.676  0.00  0.00    +0.000 A 
ATOM      8  C   UNL     1       2.517   2.544  21.525  0.00  0.00    +0.000 A 
ATOM      9  C   UNL     1       1.221   2.907  21.174  0.00  0.00    +0.000 A 
ATOM     10  C   UNL     1       0.990   3.575  19.971  0.00  0.00    +0.000 A 
ATOM     11  C   UNL     1       2.055   3.893  19.114  0.00  0.00    +0.000 A 
ATOM     12 CL   UNL     1       1.627   4.681  17.634  0.00  0.00    +0.000 Cl
ENDBRANCH   3   6
ENDBRANCH   1   2
BRANCH   1  13
ATOM     13  C   UNL     1       6.816   6.241  17.990  0.00  0.00    +0.000 C 
BRANCH  13  15
ATOM     14  O   UNL     1       5.735   6.926  15.962  0.00  0.00    +0.000 OA
ATOM     15  C   UNL     1       6.475   6.125  16.516  0.00  0.00    +0.000 C 
ATOM     16  N   UNL     1       7.093   5.036  15.904  0.00  0.00    +0.000 N 
ATOM     17  H   UNL     1       7.544   4.361  16.512  0.00  0.00    +0.000 HD
BRANCH  16  18
ATOM     18  C   UNL     1       7.012   4.702  14.532  0.00  0.00    +0.000 A 
ATOM     19  C   UNL     1       7.821   5.281  13.558  0.00  0.00    +0.000 A 
ATOM     20  C   UNL     1       7.633   4.918  12.234  0.00  0.00    +0.000 A 
ATOM     21  N   UNL     1       6.714   4.022  11.823  0.00  0.00    +0.000 NA
ATOM     22  C   UNL     1       5.960   3.454  12.783  0.00  0.00    +0.000 A 
ATOM     23  C   UNL     1       6.077   3.746  14.138  0.00  0.00    +0.000 A 
ENDBRANCH  16  18
ENDBRANCH  13  15
ENDBRANCH   1  13
TORSDOF 5
ENDMDL
MODEL 3
REMARK VINA RESULT:      -7.2      1.526      1.634
REMARK  Name = 
REMARK  5 active torsions:
REMARK  status: ('A' for Active; 'I' for Inactive)
REMARK    1  A    between atoms: C_2  and  C_3
REMARK    2  A    between atoms: C_3  and  C_4
REMARK    3  A    between atoms: C_4  and  N_5
REMARK    4  A    between atoms: C_6  and  C_8
REMARK    5  A    between atoms: N_15  and  C_16
REMARK                            x       y       z     vdW  Elec       q    Type
REMARK                         _______ _______ _______ _____ _____    ______ ____
ROOT
ATOM      1  C   UNL     1       6.812   5.456  19.315  0.00  0.00    +0.000 C 
ENDROOT
BRANCH   1   2
ATOM      2  N   UNL     1       5.587   4.678  19.360  0.00  0.00    +0.000 N 
ATOM      3  C   UNL     1       4.343   5.264  19.396  0.00  0.00    +0.000 C 
ATOM      4  O   UNL     1       4.185   6.480  19.353  0.00  0.00    +0.000 OA
ATOM      5  H   UNL     1       5.666   3.673  19.452  0.00  0.00    +0.000 HD
BRANCH   3   6
ATOM      6  C   UNL     1       3.152   4.362  19.412  0.00  0.00    +0.000 A 
ATOM      7  C   UNL     1       2.432   4.324  20.621  0.00  0.00    +0.000 A 
ATOM      8  C   UNL     1       1.279   3.546  20.751  0.00  0.00    +0.000 A 
ATOM      9  C   UNL     1       0.831   2.788  19.673  0.00  0.00    +0.000 A 
ATOM     10  C   UNL     1       1.543   2.802  18.474  0.00  0.00    +0.000 A 
ATOM     11  C   UNL     1       2.702   3.581  18.338  0.00  0.00    +0.000 A 
ATOM     12 CL   UNL     1       3.515   3.472  16.814  0.00  0.00    +0.000 Cl
ENDBRANCH   3   6
ENDBRANCH   1   2
BRANCH   1  13
ATOM     13  C   UNL     1       6.941   6.248  18.015  0.00  0.00    +0.000 C 
BRANCH  13  15
ATOM     14  O   UNL     1       7.907   4.319  16.967  0.00  0.00    +0.000 OA
ATOM     15  C   UNL     1       7.207   5.315  16.849  0.00  0.00    +0.000 C 
ATOM     16  N   UNL     1       6.574   5.725  15.676  0.00  0.00    +0.000 N 
ATOM     17  H   UNL     1       6.164   6.653  15.675  0.00  0.00    +0.000 HD
BRANCH  16  18
ATOM     18  C   UNL     1       6.589   5.034  14.443  0.00  0.00    +0.000 A 
ATOM     19  C   UNL     1       5.636   4.082  14.091  0.00  0.00    +0.000 A 
ATOM     20  C   UNL     1       5.765   3.427  12.876  0.00  0.00    +0.000 A 
ATOM     21  N   UNL     1       6.758   3.662  11.997  0.00  0.00    +0.000 NA
ATOM     22  C   UNL     1       7.655   4.605  12.344  0.00  0.00    +0.000 A 
ATOM     23  C   UNL     1       7.608   5.321  13.535  0.00  0.00    +0.000 A 
ENDBRANCH  16  18
ENDBRANCH  13  15
ENDBRANCH   1  13
TORSDOF 5
ENDMDL
MODEL 4
REMARK VINA RESULT:      -7.2      0.947      1.388
REMARK  Name = 
REMARK  5 active torsions:
REMARK  status: ('A' for Active; 'I' for Inactive)
REMARK    1  A    between atoms: C_2  and  C_3
REMARK    2  A    between atoms: C_3  and  C_4
REMARK    3  A    between atoms: C_4  and  N_5
REMARK    4  A    between atoms: C_6  and  C_8
REMARK    5  A    between atoms: N_15  and  C_16
REMARK                            x       y       z     vdW  Elec       q    Type
REMARK                         _______ _______ _______ _____ _____    ______ ____
ROOT
ATOM      1  C   UNL     1       6.798   5.599  19.162  0.00  0.00    +0.000 C 
ENDROOT
BRANCH   1   2
ATOM      2  N   UNL     1       5.434   5.275  19.539  0.00  0.00    +0.000 N 
ATOM      3  C   UNL     1       4.873   4.044  19.289  0.00  0.00    +0.000 C 
ATOM      4  O   UNL     1       5.500   3.127  18.768  0.00  0.00    +0.000 OA
ATOM      5  H   UNL     1       4.858   6.015  19.922  0.00  0.00    +0.000 HD
BRANCH   3   6
ATOM      6  C   UNL     1       3.469   3.815  19.748  0.00  0.00    +0.000 A 
ATOM      7  C   UNL     1       3.311   2.869  20.778  0.00  0.00    +0.000 A 
ATOM      8  C   UNL     1       2.053   2.592  21.317  0.00  0.00    +0.000 A 
ATOM      9  C   UNL     1       0.930   3.253  20.829  0.00  0.00    +0.000 A 
ATOM     10  C   UNL     1       1.067   4.182  19.797  0.00  0.00    +0.000 A 
ATOM     11  C   UNL     1       2.329   4.463  19.251  0.00  0.00    +0.000 A 
ATOM     12 CL   UNL     1       2.354   5.600  17.946  0.00  0.00    +0.000 Cl
ENDBRANCH   3   6
ENDBRANCH   1   2
BRANCH   1  13
ATOM     13  C   UNL     1       6.863   6.346  17.832  0.00  0.00    +0.000 C 
BRANCH  13  15
ATOM     14  O   UNL     1       7.932   4.432  16.860  0.00  0.00    +0.000 OA
ATOM     15  C   UNL     1       7.189   5.390  16.700  0.00  0.00    +0.000 C 
ATOM     16  N   UNL     1       6.556   5.733  15.507  0.00  0.00    +0.000 N 
ATOM     17  H   UNL     1       6.103   6.640  15.470  0.00  0.00    +0.000 HD
BRANCH  16  18
ATOM     18  C   UNL     1       6.620   5.003  14.297  0.00  0.00    +0.000 A 
ATOM     19  C   UNL     1       7.606   5.207  13.335  0.00  0.00    +0.000 A 
ATOM     20  C   UNL     1       7.555   4.472  12.161  0.00  0.00    +0.000 A 
ATOM     21  N   UNL     1       6.607   3.552  11.891  0.00  0.00    +0.000 NA
ATOM     22  C   UNL     1       5.678   3.351  12.845  0.00  0.00    +0.000 A 
ATOM     23  C   UNL     1       5.647   4.033  14.056  0.00  0.00    +0.000 A 
ENDBRANCH  16  18
ENDBRANCH  13  15
ENDBRANCH   1  13
TORSDOF 5
ENDMDL
MODEL 5
REMARK VINA RESULT:      -7.2      1.836      6.748
REMARK  Name = 
REMARK  5 active torsions:
REMARK  status: ('A' for Active; 'I' for Inactive)
REMARK    1  A    between atoms: C_2  and  C_3
REMARK    2  A    between atoms: C_3  and  C_4
REMARK    3  A    between atoms: C_4  and  N_5
REMARK    4  A    between atoms: C_6  and  C_8
REMARK    5  A    between atoms: N_15  and  C_16
REMARK                            x       y       z     vdW  Elec       q    Type
REMARK                         _______ _______ _______ _____ _____    ______ ____
ROOT
ATOM      1  C   UNL     1       7.823   5.009  18.488  0.00  0.00    +0.000 C 
ENDROOT
BRANCH   1   2
ATOM      2  N   UNL     1       7.433   4.567  17.161  0.00  0.00    +0.000 N 
ATOM      3  C   UNL     1       7.299   5.438  16.104  0.00  0.00    +0.000 C 
ATOM      4  O   UNL     1       7.539   6.637  16.203  0.00  0.00    +0.000 OA
ATOM      5  H   UNL     1       7.171   3.596  17.041  0.00  0.00    +0.000 HD
BRANCH   3   6
ATOM      6  C   UNL     1       6.920   4.864  14.777  0.00  0.00    +0.000 A 
ATOM      7  C   UNL     1       7.780   5.182  13.709  0.00  0.00    +0.000 A 
ATOM      8  C   UNL     1       7.554   4.678  12.426  0.00  0.00    +0.000 A 
ATOM      9  C   UNL     1       6.458   3.853  12.190  0.00  0.00    +0.000 A 
ATOM     10  C   UNL     1       5.588   3.543  13.234  0.00  0.00    +0.000 A 
ATOM     11  C   UNL     1       5.809   4.047  14.525  0.00  0.00    +0.000 A 
ATOM     12 CL   UNL     1       4.630   3.624  15.718  0.00  0.00    +0.000 Cl
ENDBRANCH   3   6
ENDBRANCH   1   2
BRANCH   1  13
ATOM     13  C   UNL     1       6.646   5.595  19.265  0.00  0.00    +0.000 C 
BRANCH  13  15
ATOM     14  O   UNL     1       5.667   3.406  19.203  0.00  0.00    +0.000 OA
ATOM     15  C   UNL     1       5.490   4.613  19.301  0.00  0.00    +0.000 C 
ATOM     16  N   UNL     1       4.255   5.240  19.456  0.00  0.00    +0.000 N 
ATOM     17  H   UNL     1       4.236   6.249  19.358  0.00  0.00    +0.000 HD
BRANCH  16  18
ATOM     18  C   UNL     1       3.006   4.589  19.581  0.00  0.00    +0.000 A 
ATOM     19  C   UNL     1       2.392   4.344  20.806  0.00  0.00    +0.000 A 
ATOM     20  C   UNL     1       1.188   3.658  20.824  0.00  0.00    +0.000 A 
ATOM     21  N   UNL     1       0.559   3.215  19.717  0.00  0.00    +0.000 NA
ATOM     22  C   UNL     1       1.156   3.484  18.540  0.00  0.00    +0.000 A 
ATOM     23  C   UNL     1       2.359   4.171  18.418  0.00  0.00    +0.000 A 
ENDBRANCH  16  18
ENDBRANCH  13  15
ENDBRANCH   1  13
TORSDOF 5
ENDMDL
MODEL 6
REMARK VINA RESULT:      -7.1      1.298      1.494
REMARK  Name = 
REMARK  5 active torsions:
REMARK  status: ('A' for Active; 'I' for Inactive)
REMARK    1  A    between atoms: C_2  and  C_3
REMARK    2  A    between atoms: C_3  and  C_4
REMARK    3  A    between atoms: C_4  and  N_5
REMARK    4  A    between atoms: C_6  and  C_8
REMARK    5  A    between atoms: N_15  and  C_16
REMARK                            x       y       z     vdW  Elec       q    Type
REMARK                         _______ _______ _______ _____ _____    ______ ____
ROOT
ATOM      1  C   UNL     1       6.994   5.780  18.948  0.00  0.00    +0.000 C 
ENDROOT
BRANCH   1   2
ATOM      2  N   UNL     1       5.598   5.514  19.246  0.00  0.00    +0.000 N 
ATOM      3  C   UNL     1       5.053   4.253  19.159  0.00  0.00    +0.000 C 
ATOM      4  O   UNL     1       5.719   3.266  18.863  0.00  0.00    +0.000 OA
ATOM      5  H   UNL     1       4.994   6.303  19.442  0.00  0.00    +0.000 HD
BRANCH   3   6
ATOM      6  C   UNL     1       3.611   4.095  19.518  0.00  0.00    +0.000 A 
ATOM      7  C   UNL     1       3.017   5.199  20.157  0.00  0.00    +0.000 A 
ATOM      8  C   UNL     1       1.666   5.187  20.511  0.00  0.00    +0.000 A 
ATOM      9  C   UNL     1       0.889   4.066  20.238  0.00  0.00    +0.000 A 
ATOM     10  C   UNL     1       1.467   2.957  19.621  0.00  0.00    +0.000 A 
ATOM     11  C   UNL     1       2.824   2.963  19.264  0.00  0.00    +0.000 A 
ATOM     12 CL   UNL     1       3.426   1.507  18.547  0.00  0.00    +0.000 Cl
ENDBRANCH   3   6
ENDBRANCH   1   2
BRANCH   1  13
ATOM     13  C   UNL     1       7.154   6.770  17.796  0.00  0.00    +0.000 C 
BRANCH  13  15
ATOM     14  O   UNL     1       5.318   6.483  16.281  0.00  0.00    +0.000 OA
ATOM     15  C   UNL     1       6.488   6.239  16.541  0.00  0.00    +0.000 C 
ATOM     16  N   UNL     1       7.349   5.473  15.757  0.00  0.00    +0.000 N 
ATOM     17  H   UNL     1       8.238   5.214  16.169  0.00  0.00    +0.000 HD
BRANCH  16  18
ATOM     18  C   UNL     1       7.034   4.895  14.506  0.00  0.00    +0.000 A 
ATOM     19  C   UNL     1       6.030   3.946  14.335  0.00  0.00    +0.000 A 
ATOM     20  C   UNL     1       5.830   3.406  13.075  0.00  0.00    +0.000 A 
ATOM     21  N   UNL     1       6.546   3.751  11.987  0.00  0.00    +0.000 NA
ATOM     22  C   UNL     1       7.495   4.690  12.167  0.00  0.00    +0.000 A 
ATOM     23  C   UNL     1       7.767   5.295  13.389  0.00  0.00    +0.000 A 
ENDBRANCH  16  18
ENDBRANCH  13  15
ENDBRANCH   1  13
TORSDOF 5
ENDMDL
MODEL 7
REMARK VINA RESULT:      -7.1      1.551      2.171
REMARK  Name = 
REMARK  5 active torsions:
REMARK  status: ('A' for Active; 'I' for Inactive)
REMARK    1  A    between atoms: C_2  and  C_3
REMARK    2  A    between atoms: C_3  and  C_4
REMARK    3  A    between atoms: C_4  and  N_5
REMARK    4  A    between atoms: C_6  and  C_8
REMARK    5  A    between atoms: N_15  and  C_16
REMARK                            x       y       z     vdW  Elec       q    Type
REMARK                         _______ _______ _______ _____ _____    ______ ____
ROOT
ATOM      1  C   UNL     1       5.473   6.494  17.832  0.00  0.00    +0.000 C 
ENDROOT
BRANCH   1   2
ATOM      2  N   UNL     1       4.565   5.806  18.732  0.00  0.00    +0.000 N 
ATOM      3  C   UNL     1       3.875   4.675  18.361  0.00  0.00    +0.000 C 
ATOM      4  O   UNL     1       4.011   4.151  17.260  0.00  0.00    +0.000 OA
ATOM      5  H   UNL     1       4.377   6.229  19.633  0.00  0.00    +0.000 HD
BRANCH   3   6
ATOM      6  C   UNL     1       2.990   4.036  19.382  0.00  0.00    +0.000 A 
ATOM      7  C   UNL     1       1.743   4.658  19.583  0.00  0.00    +0.000 A 
ATOM      8  C   UNL     1       0.813   4.136  20.485  0.00  0.00    +0.000 A 
ATOM      9  C   UNL     1       1.119   2.986  21.207  0.00  0.00    +0.000 A 
ATOM     10  C   UNL     1       2.356   2.368  21.032  0.00  0.00    +0.000 A 
ATOM     11  C   UNL     1       3.295   2.888  20.128  0.00  0.00    +0.000 A 
ATOM     12 CL   UNL     1       4.808   2.053  20.040  0.00  0.00    +0.000 Cl
ENDBRANCH   3   6
ENDBRANCH   1   2
BRANCH   1  13
ATOM     13  C   UNL     1       6.903   5.975  17.956  0.00  0.00    +0.000 C 
BRANCH  13  15
ATOM     14  O   UNL     1       8.100   4.241  16.810  0.00  0.00    +0.000 OA
ATOM     15  C   UNL     1       7.274   5.141  16.744  0.00  0.00    +0.000 C 
ATOM     16  N   UNL     1       6.576   5.517  15.597  0.00  0.00    +0.000 N 
ATOM     17  H   UNL     1       6.048   6.381  15.643  0.00  0.00    +0.000 HD
BRANCH  16  18
ATOM     18  C   UNL     1       6.665   4.891  14.332  0.00  0.00    +0.000 A 
ATOM     19  C   UNL     1       7.651   5.195  13.398  0.00  0.00    +0.000 A 
ATOM     20  C   UNL     1       7.624   4.557  12.168  0.00  0.00    +0.000 A 
ATOM     21  N   UNL     1       6.699   3.641  11.816  0.00  0.00    +0.000 NA
ATOM     22  C   UNL     1       5.769   3.342  12.744  0.00  0.00    +0.000 A 
ATOM     23  C   UNL     1       5.716   3.921  14.007  0.00  0.00    +0.000 A 
ENDBRANCH  16  18
ENDBRANCH  13  15
ENDBRANCH   1  13
TORSDOF 5
ENDMDL
MODEL 8
REMARK VINA RESULT:      -7.1      1.662      2.213
REMARK  Name = 
REMARK  5 active torsions:
REMARK  status: ('A' for Active; 'I' for Inactive)
REMARK    1  A    between atoms: C_2  and  C_3
REMARK    2  A    between atoms: C_3  and  C_4
REMARK    3  A    between atoms: C_4  and  N_5
REMARK    4  A    between atoms: C_6  and  C_8
REMARK    5  A    between atoms: N_15  and  C_16
REMARK                            x       y       z     vdW  Elec       q    Type
REMARK                         _______ _______ _______ _____ _____    ______ ____
ROOT
ATOM      1  C   UNL     1       6.010   6.737  18.038  0.00  0.00    +0.000 C 
ENDROOT
BRANCH   1   2
ATOM      2  N   UNL     1       5.034   5.705  18.336  0.00  0.00    +0.000 N 
ATOM      3  C   UNL     1       3.679   5.916  18.219  0.00  0.00    +0.000 C 
ATOM      4  O   UNL     1       3.209   6.976  17.817  0.00  0.00    +0.000 OA
ATOM      5  H   UNL     1       5.368   4.831  18.723  0.00  0.00    +0.000 HD
BRANCH   3   6
ATOM      6  C   UNL     1       2.769   4.770  18.525  0.00  0.00    +0.000 A 
ATOM      7  C   UNL     1       2.864   3.667  17.656  0.00  0.00    +0.000 A 
ATOM      8  C   UNL     1       2.091   2.521  17.856  0.00  0.00    +0.000 A 
ATOM      9  C   UNL     1       1.206   2.463  18.928  0.00  0.00    +0.000 A 
ATOM     10  C   UNL     1       1.088   3.554  19.789  0.00  0.00    +0.000 A 
ATOM     11  C   UNL     1       1.861   4.708  19.592  0.00  0.00    +0.000 A 
ATOM     12 CL   UNL     1       1.586   6.005  20.704  0.00  0.00    +0.000 Cl
ENDBRANCH   3   6
ENDBRANCH   1   2
BRANCH   1  13
ATOM     13  C   UNL     1       7.428   6.176  17.952  0.00  0.00    +0.000 C 
BRANCH  13  15
ATOM     14  O   UNL     1       8.054   4.096  16.936  0.00  0.00    +0.000 OA
ATOM     15  C   UNL     1       7.545   5.200  16.797  0.00  0.00    +0.000 C 
ATOM     16  N   UNL     1       7.017   5.704  15.610  0.00  0.00    +0.000 N 
ATOM     17  H   UNL     1       6.778   6.690  15.595  0.00  0.00    +0.000 HD
BRANCH  16  18
ATOM     18  C   UNL     1       6.930   5.009  14.381  0.00  0.00    +0.000 A 
ATOM     19  C   UNL     1       7.756   5.278  13.293  0.00  0.00    +0.000 A 
ATOM     20  C   UNL     1       7.561   4.572  12.117  0.00  0.00    +0.000 A 
ATOM     21  N   UNL     1       6.619   3.621  11.959  0.00  0.00    +0.000 NA
ATOM     22  C   UNL     1       5.848   3.357  13.032  0.00  0.00    +0.000 A 
ATOM     23  C   UNL     1       5.970   4.006  14.255  0.00  0.00    +0.000 A 
ENDBRANCH  16  18
ENDBRANCH  13  15
ENDBRANCH   1  13
TORSDOF 5
ENDMDL
MODEL 9
REMARK VINA RESULT:      -7.1      1.727      2.002
REMARK  Name = 
REMARK  5 active torsions:
REMARK  status: ('A' for Active; 'I' for Inactive)
REMARK    1  A    between atoms: C_2  and  C_3
REMARK    2  A    between atoms: C_3  and  C_4
REMARK    3  A    between atoms: C_4  and  N_5
REMARK    4  A    between atoms: C_6  and  C_8
REMARK    5  A    between atoms: N_15  and  C_16
REMARK                            x       y       z     vdW  Elec       q    Type
REMARK                         _______ _______ _______ _____ _____    ______ ____
ROOT
ATOM      1  C   UNL     1       5.731   6.846  17.867  0.00  0.00    +0.000 C 
ENDROOT
BRANCH   1   2
ATOM      2  N   UNL     1       4.843   5.752  18.214  0.00  0.00    +0.000 N 
ATOM      3  C   UNL     1       3.473   5.880  18.193  0.00  0.00    +0.000 C 
ATOM      4  O   UNL     1       2.912   6.913  17.842  0.00  0.00    +0.000 OA
ATOM      5  H   UNL     1       5.256   4.896  18.562  0.00  0.00    +0.000 HD
BRANCH   3   6
ATOM      6  C   UNL     1       2.658   4.676  18.541  0.00  0.00    +0.000 A 
ATOM      7  C   UNL     1       2.768   3.588  17.654  0.00  0.00    +0.000 A 
ATOM      8  C   UNL     1       2.083   2.394  17.889  0.00  0.00    +0.000 A 
ATOM      9  C   UNL     1       1.272   2.271  19.012  0.00  0.00    +0.000 A 
ATOM     10  C   UNL     1       1.139   3.345  19.892  0.00  0.00    +0.000 A 
ATOM     11  C   UNL     1       1.824   4.548  19.661  0.00  0.00    +0.000 A 
ATOM     12 CL   UNL     1       1.537   5.816  20.803  0.00  0.00    +0.000 Cl
ENDBRANCH   3   6
ENDBRANCH   1   2
BRANCH   1  13
ATOM     13  C   UNL     1       7.180   6.385  17.730  0.00  0.00    +0.000 C 
BRANCH  13  15
ATOM     14  O   UNL     1       7.890   4.292  16.800  0.00  0.00    +0.000 OA
ATOM     15  C   UNL     1       7.309   5.354  16.625  0.00  0.00    +0.000 C 
ATOM     16  N   UNL     1       6.700   5.758  15.438  0.00  0.00    +0.000 N 
ATOM     17  H   UNL     1       6.401   6.725  15.381  0.00  0.00    +0.000 HD
BRANCH  16  18
ATOM     18  C   UNL     1       6.605   4.990  14.254  0.00  0.00    +0.000 A 
ATOM     19  C   UNL     1       5.584   4.074  14.019  0.00  0.00    +0.000 A 
ATOM     20  C   UNL     1       5.605   3.337  12.846  0.00  0.00    +0.000 A 
ATOM     21  N   UNL     1       6.556   3.460  11.899  0.00  0.00    +0.000 NA
ATOM     22  C   UNL     1       7.521   4.370  12.133  0.00  0.00    +0.000 A 
ATOM     23  C   UNL     1       7.583   5.161  13.274  0.00  0.00    +0.000 A 
ENDBRANCH  16  18
ENDBRANCH  13  15
ENDBRANCH   1  13
TORSDOF 5
ENDMDL
