MODEL 1
REMARK VINA RESULT:      -7.6      0.000      0.000
REMARK  Name = 
REMARK  8 active torsions:
REMARK  status: ('A' for Active; 'I' for Inactive)
REMARK    1  A    between atoms: N_1  and  C_2
REMARK    2  A    between atoms: C_2  and  C_3
REMARK    3  A    between atoms: C_3  and  O_5
REMARK    4  A    between atoms: C_7  and  C_8
REMARK    5  A    between atoms: C_8  and  O_10
REMARK    6  A    between atoms: N_11  and  C_12
REMARK    7  A    between atoms: C_12  and  C_13
REMARK    8  A    between atoms: C_17  and  O_18
REMARK                            x       y       z     vdW  Elec       q    Type
REMARK                         _______ _______ _______ _____ _____    ______ ____
ROOT
ATOM      1  C   UNL     1       7.057   5.942  17.929  0.00  0.00    +0.000 C 
ATOM      2  C   UNL     1       7.323   4.759  17.002  0.00  0.00    +0.000 C 
ATOM      3  C   UNL     1       5.935   4.340  16.506  0.00  0.00    +0.000 C 
ATOM      4  N   UNL     1       5.027   4.620  17.646  0.00  0.00    +0.000 NA
ATOM      5  C   UNL     1       5.683   5.604  18.531  0.00  0.00    +0.000 C 
ENDROOT
BRANCH   1   6
ATOM      6  N   UNL     1       7.026   7.259  17.213  0.00  0.00    +0.000 NA
ATOM      7  H   UNL     1       7.079   8.011  17.920  0.00  0.00    +0.000 HD
ATOM      8  H   UNL     1       6.081   7.400  16.836  0.00  0.00    +0.000 HD
ENDBRANCH   1   6
BRANCH   1   9
ATOM      9  C   UNL     1       8.082   6.077  19.070  0.00  0.00    +0.000 C 
ATOM     10  O   UNL     1       8.375   5.210  19.878  0.00  0.00    +0.000 OA
BRANCH   9  11
ATOM     11  O   UNL     1       8.630   7.323  19.086  0.00  0.00    +0.000 OA
ATOM     12  H   UNL     1       9.011   7.470  18.183  0.00  0.00    +0.000 HD
ENDBRANCH   9  11
ENDBRANCH   1   9
BRANCH   3  13
ATOM     13  C   UNL     1       5.576   5.074  15.203  0.00  0.00    +0.000 C 
ATOM     14  O   UNL     1       5.469   6.289  15.093  0.00  0.00    +0.000 OA
BRANCH  13  15
ATOM     15  O   UNL     1       5.326   4.245  14.164  0.00  0.00    +0.000 OA
ATOM     16  H   UNL     1       5.412   3.293  14.380  0.00  0.00    +0.000 HD
ENDBRANCH  13  15
ENDBRANCH   3  13
BRANCH   4  17
ATOM     17  C   UNL     1       3.635   4.948  17.318  0.00  0.00    +0.000 C 
BRANCH  17  18
ATOM     18  C   UNL     1       2.618   4.425  18.316  0.00  0.00    +0.000 A 
ATOM     19  C   UNL     1       2.335   5.110  19.506  0.00  0.00    +0.000 A 
ATOM     20  C   UNL     1       1.394   4.604  20.411  0.00  0.00    +0.000 A 
ATOM     21  C   UNL     1       0.714   3.418  20.133  0.00  0.00    +0.000 A 
ATOM     22  C   UNL     1       0.982   2.745  18.947  0.00  0.00    +0.000 A 
ATOM     23  C   UNL     1       1.930   3.230  18.050  0.00  0.00    +0.000 A 
BRANCH  22  24
ATOM     24  O   UNL     1       0.325   1.597  18.616  0.00  0.00    +0.000 OA
ATOM     25  H   UNL     1       0.912   0.844  18.790  0.00  0.00    +0.000 HD
ENDBRANCH  22  24
ENDBRANCH  17  18
ENDBRANCH   4  17
TORSDOF 8
ENDMDL
MODEL 2
REMARK VINA RESULT:      -7.4      1.986      3.575
REMARK  Name = 
REMARK  8 active torsions:
REMARK  status: ('A' for Active; 'I' for Inactive)
REMARK    1  A    between atoms: N_1  and  C_2
REMARK    2  A    between atoms: C_2  and  C_3
REMARK    3  A    between atoms: C_3  and  O_5
REMARK    4  A    between atoms: C_7  and  C_8
REMARK    5  A    between atoms: C_8  and  O_10
REMARK    6  A    between atoms: N_11  and  C_12
REMARK    7  A    between atoms: C_12  and  C_13
REMARK    8  A    between atoms: C_17  and  O_18
REMARK                            x       y       z     vdW  Elec       q    Type
REMARK                         _______ _______ _______ _____ _____    ______ ____
ROOT
ATOM      1  C   UNL     1       6.589   4.682  15.927  0.00  0.00    +0.000 C 
ATOM      2  C   UNL     1       5.722   5.816  16.468  0.00  0.00    +0.000 C 
ATOM      3  C   UNL     1       4.845   5.152  17.534  0.00  0.00    +0.000 C 
ATOM      4  N   UNL     1       4.611   3.777  17.029  0.00  0.00    +0.000 NA
ATOM      5  C   UNL     1       5.668   3.457  16.049  0.00  0.00    +0.000 C 
ENDROOT
BRANCH   1   6
ATOM      6  N   UNL     1       7.857   4.486  16.704  0.00  0.00    +0.000 NA
ATOM      7  H   UNL     1       8.240   5.418  16.934  0.00  0.00    +0.000 HD
ATOM      8  H   UNL     1       8.575   4.123  16.065  0.00  0.00    +0.000 HD
ENDBRANCH   1   6
BRANCH   1   9
ATOM      9  C   UNL     1       6.992   4.859  14.452  0.00  0.00    +0.000 C 
ATOM     10  O   UNL     1       7.865   5.601  14.030  0.00  0.00    +0.000 OA
BRANCH   9  11
ATOM     11  O   UNL     1       6.225   4.078  13.642  0.00  0.00    +0.000 OA
ATOM     12  H   UNL     1       5.332   4.505  13.609  0.00  0.00    +0.000 HD
ENDBRANCH   9  11
ENDBRANCH   1   9
BRANCH   3  13
ATOM     13  C   UNL     1       5.517   5.224  18.917  0.00  0.00    +0.000 C 
ATOM     14  O   UNL     1       6.646   4.821  19.164  0.00  0.00    +0.000 OA
BRANCH  13  15
ATOM     15  O   UNL     1       4.719   5.735  19.882  0.00  0.00    +0.000 OA
ATOM     16  H   UNL     1       4.772   5.263  20.739  0.00  0.00    +0.000 HD
ENDBRANCH  13  15
ENDBRANCH   3  13
BRANCH   4  17
ATOM     17  C   UNL     1       4.393   2.731  18.034  0.00  0.00    +0.000 C 
BRANCH  17  18
ATOM     18  C   UNL     1       3.068   2.836  18.768  0.00  0.00    +0.000 A 
ATOM     19  C   UNL     1       1.856   2.986  18.081  0.00  0.00    +0.000 A 
ATOM     20  C   UNL     1       0.648   3.082  18.783  0.00  0.00    +0.000 A 
ATOM     21  C   UNL     1       0.635   3.015  20.177  0.00  0.00    +0.000 A 
ATOM     22  C   UNL     1       1.834   2.852  20.859  0.00  0.00    +0.000 A 
ATOM     23  C   UNL     1       3.042   2.774  20.171  0.00  0.00    +0.000 A 
BRANCH  22  24
ATOM     24  O   UNL     1       1.872   2.753  22.219  0.00  0.00    +0.000 OA
ATOM     25  H   UNL     1       2.787   2.889  22.513  0.00  0.00    +0.000 HD
ENDBRANCH  22  24
ENDBRANCH  17  18
ENDBRANCH   4  17
TORSDOF 8
ENDMDL
MODEL 3
REMARK VINA RESULT:      -7.4      1.106      1.535
REMARK  Name = 
REMARK  8 active torsions:
REMARK  status: ('A' for Active; 'I' for Inactive)
REMARK    1  A    between atoms: N_1  and  C_2
REMARK    2  A    between atoms: C_2  and  C_3
REMARK    3  A    between atoms: C_3  and  O_5
REMARK    4  A    between atoms: C_7  and  C_8
REMARK    5  A    between atoms: C_8  and  O_10
REMARK    6  A    between atoms: N_11  and  C_12
REMARK    7  A    between atoms: C_12  and  C_13
REMARK    8  A    between atoms: C_17  and  O_18
REMARK                            x       y       z     vdW  Elec       q    Type
REMARK                         _______ _______ _______ _____ _____    ______ ____
ROOT
ATOM      1  C   UNL     1       6.967   5.773  17.890  0.00  0.00    +0.000 C 
ATOM      2  C   UNL     1       7.533   4.668  17.001  0.00  0.00    +0.000 C 
ATOM      3  C   UNL     1       6.301   4.038  16.341  0.00  0.00    +0.000 C 
ATOM      4  N   UNL     1       5.230   4.144  17.362  0.00  0.00    +0.000 NA
ATOM      5  C   UNL     1       5.605   5.203  18.320  0.00  0.00    +0.000 C 
ENDROOT
BRANCH   1   6
ATOM      6  N   UNL     1       6.806   7.081  17.175  0.00  0.00    +0.000 NA
ATOM      7  H   UNL     1       6.392   6.892  16.248  0.00  0.00    +0.000 HD
ATOM      8  H   UNL     1       7.738   7.426  16.916  0.00  0.00    +0.000 HD
ENDBRANCH   1   6
BRANCH   1   9
ATOM      9  C   UNL     1       7.811   6.050  19.147  0.00  0.00    +0.000 C 
ATOM     10  O   UNL     1       7.833   5.371  20.161  0.00  0.00    +0.000 OA
BRANCH   9  11
ATOM     11  O   UNL     1       8.544   7.188  18.999  0.00  0.00    +0.000 OA
ATOM     12  H   UNL     1       8.571   7.376  18.027  0.00  0.00    +0.000 HD
ENDBRANCH   9  11
ENDBRANCH   1   9
BRANCH   3  13
ATOM     13  C   UNL     1       5.986   4.730  15.003  0.00  0.00    +0.000 C 
ATOM     14  O   UNL     1       5.713   5.917  14.880  0.00  0.00    +0.000 OA
BRANCH  13  15
ATOM     15  O   UNL     1       5.980   3.887  13.945  0.00  0.00    +0.000 OA
ATOM     16  H   UNL     1       5.292   4.086  13.277  0.00  0.00    +0.000 HD
ENDBRANCH  13  15
ENDBRANCH   3  13
BRANCH   4  17
ATOM     17  C   UNL     1       3.853   4.246  16.867  0.00  0.00    +0.000 C 
BRANCH  17  18
ATOM     18  C   UNL     1       2.797   3.802  17.862  0.00  0.00    +0.000 A 
ATOM     19  C   UNL     1       2.234   2.519  17.816  0.00  0.00    +0.000 A 
ATOM     20  C   UNL     1       1.259   2.136  18.745  0.00  0.00    +0.000 A 
ATOM     21  C   UNL     1       0.845   3.023  19.740  0.00  0.00    +0.000 A 
ATOM     22  C   UNL     1       1.412   4.290  19.797  0.00  0.00    +0.000 A 
ATOM     23  C   UNL     1       2.368   4.687  18.866  0.00  0.00    +0.000 A 
BRANCH  22  24
ATOM     24  O   UNL     1       1.062   5.184  20.766  0.00  0.00    +0.000 OA
ATOM     25  H   UNL     1       0.263   5.654  20.478  0.00  0.00    +0.000 HD
ENDBRANCH  22  24
ENDBRANCH  17  18
ENDBRANCH   4  17
TORSDOF 8
ENDMDL
MODEL 4
REMARK VINA RESULT:      -7.0      3.179      4.635
REMARK  Name = 
REMARK  8 active torsions:
REMARK  status: ('A' for Active; 'I' for Inactive)
REMARK    1  A    between atoms: N_1  and  C_2
REMARK    2  A    between atoms: C_2  and  C_3
REMARK    3  A    between atoms: C_3  and  O_5
REMARK    4  A    between atoms: C_7  and  C_8
REMARK    5  A    between atoms: C_8  and  O_10
REMARK    6  A    between atoms: N_11  and  C_12
REMARK    7  A    between atoms: C_12  and  C_13
REMARK    8  A    between atoms: C_17  and  O_18
REMARK                            x       y       z     vdW  Elec       q    Type
REMARK                         _______ _______ _______ _____ _____    ______ ____
ROOT
ATOM      1  C   UNL     1       5.815   4.690  17.376  0.00  0.00    +0.000 C 
ATOM      2  C   UNL     1       5.844   4.657  18.901  0.00  0.00    +0.000 C 
ATOM      3  C   UNL     1       4.472   5.196  19.323  0.00  0.00    +0.000 C 
ATOM      4  N   UNL     1       4.122   6.193  18.282  0.00  0.00    +0.000 NA
ATOM      5  C   UNL     1       4.922   5.905  17.075  0.00  0.00    +0.000 C 
ENDROOT
BRANCH   1   6
ATOM      6  N   UNL     1       5.250   3.439  16.770  0.00  0.00    +0.000 NA
ATOM      7  H   UNL     1       5.969   2.700  16.829  0.00  0.00    +0.000 HD
ATOM      8  H   UNL     1       5.181   3.575  15.754  0.00  0.00    +0.000 HD
ENDBRANCH   1   6
BRANCH   1   9
ATOM      9  C   UNL     1       7.196   4.914  16.733  0.00  0.00    +0.000 C 
ATOM     10  O   UNL     1       7.450   5.703  15.837  0.00  0.00    +0.000 OA
BRANCH   9  11
ATOM     11  O   UNL     1       8.129   4.093  17.288  0.00  0.00    +0.000 OA
ATOM     12  H   UNL     1       8.611   4.635  17.962  0.00  0.00    +0.000 HD
ENDBRANCH   9  11
ENDBRANCH   1   9
BRANCH   3  13
ATOM     13  C   UNL     1       3.460   4.047  19.480  0.00  0.00    +0.000 C 
ATOM     14  O   UNL     1       3.279   3.161  18.655  0.00  0.00    +0.000 OA
BRANCH  13  15
ATOM     15  O   UNL     1       2.724   4.124  20.612  0.00  0.00    +0.000 OA
ATOM     16  H   UNL     1       1.758   4.186  20.460  0.00  0.00    +0.000 HD
ENDBRANCH  13  15
ENDBRANCH   3  13
BRANCH   4  17
ATOM     17  C   UNL     1       2.694   6.399  18.018  0.00  0.00    +0.000 C 
BRANCH  17  18
ATOM     18  C   UNL     1       2.085   7.578  18.755  0.00  0.00    +0.000 A 
ATOM     19  C   UNL     1       1.860   7.545  20.138  0.00  0.00    +0.000 A 
ATOM     20  C   UNL     1       1.295   8.647  20.792  0.00  0.00    +0.000 A 
ATOM     21  C   UNL     1       0.961   9.798  20.078  0.00  0.00    +0.000 A 
ATOM     22  C   UNL     1       1.197   9.838  18.709  0.00  0.00    +0.000 A 
ATOM     23  C   UNL     1       1.742   8.741  18.046  0.00  0.00    +0.000 A 
BRANCH  22  24
ATOM     24  O   UNL     1       0.915  10.949  17.970  0.00  0.00    +0.000 OA
ATOM     25  H   UNL     1       1.070  11.733  18.521  0.00  0.00    +0.000 HD
ENDBRANCH  22  24
ENDBRANCH  17  18
ENDBRANCH   4  17
TORSDOF 8
ENDMDL
MODEL 5
REMARK VINA RESULT:      -7.0      1.401      3.321
REMARK  Name = 
REMARK  8 active torsions:
REMARK  status: ('A' for Active; 'I' for Inactive)
REMARK    1  A    between atoms: N_1  and  C_2
REMARK    2  A    between atoms: C_2  and  C_3
REMARK    3  A    between atoms: C_3  and  O_5
REMARK    4  A    between atoms: C_7  and  C_8
REMARK    5  A    between atoms: C_8  and  O_10
REMARK    6  A    between atoms: N_11  and  C_12
REMARK    7  A    between atoms: C_12  and  C_13
REMARK    8  A    between atoms: C_17  and  O_18
REMARK                            x       y       z     vdW  Elec       q    Type
REMARK                         _______ _______ _______ _____ _____    ______ ____
ROOT
ATOM      1  C   UNL     1       6.618   4.730  15.940  0.00  0.00    +0.000 C 
ATOM      2  C   UNL     1       6.394   6.127  16.513  0.00  0.00    +0.000 C 
ATOM      3  C   UNL     1       5.755   5.881  17.884  0.00  0.00    +0.000 C 
ATOM      4  N   UNL     1       4.936   4.657  17.705  0.00  0.00    +0.000 NA
ATOM      5  C   UNL     1       5.446   3.926  16.527  0.00  0.00    +0.000 C 
ENDROOT
BRANCH   1   6
ATOM      6  N   UNL     1       7.936   4.133  16.336  0.00  0.00    +0.000 NA
ATOM      7  H   UNL     1       8.368   4.749  17.044  0.00  0.00    +0.000 HD
ATOM      8  H   UNL     1       8.588   4.238  15.550  0.00  0.00    +0.000 HD
ENDBRANCH   1   6
BRANCH   1   9
ATOM      9  C   UNL     1       6.544   4.670  14.404  0.00  0.00    +0.000 C 
ATOM     10  O   UNL     1       5.753   4.010  13.749  0.00  0.00    +0.000 OA
BRANCH   9  11
ATOM     11  O   UNL     1       7.504   5.453  13.840  0.00  0.00    +0.000 OA
ATOM     12  H   UNL     1       8.141   5.677  14.565  0.00  0.00    +0.000 HD
ENDBRANCH   9  11
ENDBRANCH   1   9
BRANCH   3  13
ATOM     13  C   UNL     1       6.831   5.782  18.978  0.00  0.00    +0.000 C 
ATOM     14  O   UNL     1       6.673   5.240  20.065  0.00  0.00    +0.000 OA
BRANCH  13  15
ATOM     15  O   UNL     1       7.989   6.405  18.660  0.00  0.00    +0.000 OA
ATOM     16  H   UNL     1       8.159   7.222  19.172  0.00  0.00    +0.000 HD
ENDBRANCH  13  15
ENDBRANCH   3  13
BRANCH   4  17
ATOM     17  C   UNL     1       4.738   3.816  18.890  0.00  0.00    +0.000 C 
BRANCH  17  18
ATOM     18  C   UNL     1       3.291   3.688  19.331  0.00  0.00    +0.000 A 
ATOM     19  C   UNL     1       2.769   4.461  20.377  0.00  0.00    +0.000 A 
ATOM     20  C   UNL     1       1.430   4.321  20.765  0.00  0.00    +0.000 A 
ATOM     21  C   UNL     1       0.594   3.421  20.104  0.00  0.00    +0.000 A 
ATOM     22  C   UNL     1       1.106   2.665  19.056  0.00  0.00    +0.000 A 
ATOM     23  C   UNL     1       2.440   2.782  18.676  0.00  0.00    +0.000 A 
BRANCH  22  24
ATOM     24  O   UNL     1       0.323   1.791  18.361  0.00  0.00    +0.000 OA
ATOM     25  H   UNL     1      -0.314   1.391  18.974  0.00  0.00    +0.000 HD
ENDBRANCH  22  24
ENDBRANCH  17  18
ENDBRANCH   4  17
TORSDOF 8
ENDMDL
MODEL 6
REMARK VINA RESULT:      -7.0      1.763      2.274
REMARK  Name = 
REMARK  8 active torsions:
REMARK  status: ('A' for Active; 'I' for Inactive)
REMARK    1  A    between atoms: N_1  and  C_2
REMARK    2  A    between atoms: C_2  and  C_3
REMARK    3  A    between atoms: C_3  and  O_5
REMARK    4  A    between atoms: C_7  and  C_8
REMARK    5  A    between atoms: C_8  and  O_10
REMARK    6  A    between atoms: N_11  and  C_12
REMARK    7  A    between atoms: C_12  and  C_13
REMARK    8  A    between atoms: C_17  and  O_18
REMARK                            x       y       z     vdW  Elec       q    Type
REMARK                         _______ _______ _______ _____ _____    ______ ____
ROOT
ATOM      1  C   UNL     1       6.642   6.353  17.405  0.00  0.00    +0.000 C 
ATOM      2  C   UNL     1       6.869   4.992  18.057  0.00  0.00    +0.000 C 
ATOM      3  C   UNL     1       5.462   4.410  18.229  0.00  0.00    +0.000 C 
ATOM      4  N   UNL     1       4.595   5.586  18.487  0.00  0.00    +0.000 NA
ATOM      5  C   UNL     1       5.287   6.791  17.985  0.00  0.00    +0.000 C 
ENDROOT
BRANCH   1   6
ATOM      6  N   UNL     1       6.594   6.290  15.907  0.00  0.00    +0.000 NA
ATOM      7  H   UNL     1       7.371   6.861  15.536  0.00  0.00    +0.000 HD
ATOM      8  H   UNL     1       5.777   6.825  15.586  0.00  0.00    +0.000 HD
ENDBRANCH   1   6
BRANCH   1   9
ATOM      9  C   UNL     1       7.705   7.403  17.774  0.00  0.00    +0.000 C 
ATOM     10  O   UNL     1       7.942   8.432  17.160  0.00  0.00    +0.000 OA
BRANCH   9  11
ATOM     11  O   UNL     1       8.385   7.033  18.894  0.00  0.00    +0.000 OA
ATOM     12  H   UNL     1       7.908   7.444  19.658  0.00  0.00    +0.000 HD
ENDBRANCH   9  11
ENDBRANCH   1   9
BRANCH   3  13
ATOM     13  C   UNL     1       5.063   3.574  17.001  0.00  0.00    +0.000 C 
ATOM     14  O   UNL     1       5.137   3.959  15.841  0.00  0.00    +0.000 OA
BRANCH  13  15
ATOM     15  O   UNL     1       4.556   2.359  17.312  0.00  0.00    +0.000 OA
ATOM     16  H   UNL     1       4.041   2.340  18.145  0.00  0.00    +0.000 HD
ENDBRANCH  13  15
ENDBRANCH   3  13
BRANCH   4  17
ATOM     17  C   UNL     1       3.195   5.482  18.062  0.00  0.00    +0.000 C 
BRANCH  17  18
ATOM     18  C   UNL     1       2.373   4.484  18.858  0.00  0.00    +0.000 A 
ATOM     19  C   UNL     1       1.390   3.691  18.252  0.00  0.00    +0.000 A 
ATOM     20  C   UNL     1       0.644   2.780  19.012  0.00  0.00    +0.000 A 
ATOM     21  C   UNL     1       0.882   2.639  20.379  0.00  0.00    +0.000 A 
ATOM     22  C   UNL     1       1.867   3.414  20.979  0.00  0.00    +0.000 A 
ATOM     23  C   UNL     1       2.601   4.336  20.237  0.00  0.00    +0.000 A 
BRANCH  22  24
ATOM     24  O   UNL     1       2.157   3.295  22.306  0.00  0.00    +0.000 OA
ATOM     25  H   UNL     1       2.641   2.465  22.443  0.00  0.00    +0.000 HD
ENDBRANCH  22  24
ENDBRANCH  17  18
ENDBRANCH   4  17
TORSDOF 8
ENDMDL
MODEL 7
REMARK VINA RESULT:      -6.9      1.393      1.765
REMARK  Name = 
REMARK  8 active torsions:
REMARK  status: ('A' for Active; 'I' for Inactive)
REMARK    1  A    between atoms: N_1  and  C_2
REMARK    2  A    between atoms: C_2  and  C_3
REMARK    3  A    between atoms: C_3  and  O_5
REMARK    4  A    between atoms: C_7  and  C_8
REMARK    5  A    between atoms: C_8  and  O_10
REMARK    6  A    between atoms: N_11  and  C_12
REMARK    7  A    between atoms: C_12  and  C_13
REMARK    8  A    between atoms: C_17  and  O_18
REMARK                            x       y       z     vdW  Elec       q    Type
REMARK                         _______ _______ _______ _____ _____    ______ ____
ROOT
ATOM      1  C   UNL     1       6.705   6.397  17.407  0.00  0.00    +0.000 C 
ATOM      2  C   UNL     1       6.884   5.061  18.124  0.00  0.00    +0.000 C 
ATOM      3  C   UNL     1       5.465   4.492  18.232  0.00  0.00    +0.000 C 
ATOM      4  N   UNL     1       4.592   5.680  18.391  0.00  0.00    +0.000 NA
ATOM      5  C   UNL     1       5.320   6.862  17.887  0.00  0.00    +0.000 C 
ENDROOT
BRANCH   1   6
ATOM      6  N   UNL     1       6.748   6.275  15.913  0.00  0.00    +0.000 NA
ATOM      7  H   UNL     1       7.565   5.696  15.661  0.00  0.00    +0.000 HD
ATOM      8  H   UNL     1       7.016   7.186  15.521  0.00  0.00    +0.000 HD
ENDBRANCH   1   6
BRANCH   1   9
ATOM      9  C   UNL     1       7.751   7.456  17.800  0.00  0.00    +0.000 C 
ATOM     10  O   UNL     1       7.976   8.498  17.204  0.00  0.00    +0.000 OA
BRANCH   9  11
ATOM     11  O   UNL     1       8.430   7.077  18.917  0.00  0.00    +0.000 OA
ATOM     12  H   UNL     1       8.043   7.596  19.667  0.00  0.00    +0.000 HD
ENDBRANCH   9  11
ENDBRANCH   1   9
BRANCH   3  13
ATOM     13  C   UNL     1       5.136   3.610  17.015  0.00  0.00    +0.000 C 
ATOM     14  O   UNL     1       5.300   3.943  15.849  0.00  0.00    +0.000 OA
BRANCH  13  15
ATOM     15  O   UNL     1       4.584   2.418  17.341  0.00  0.00    +0.000 OA
ATOM     16  H   UNL     1       5.219   1.672  17.355  0.00  0.00    +0.000 HD
ENDBRANCH  13  15
ENDBRANCH   3  13
BRANCH   4  17
ATOM     17  C   UNL     1       3.219   5.565  17.886  0.00  0.00    +0.000 C 
BRANCH  17  18
ATOM     18  C   UNL     1       2.313   4.689  18.732  0.00  0.00    +0.000 A 
ATOM     19  C   UNL     1       2.093   4.954  20.091  0.00  0.00    +0.000 A 
ATOM     20  C   UNL     1       1.254   4.127  20.849  0.00  0.00    +0.000 A 
ATOM     21  C   UNL     1       0.614   3.037  20.257  0.00  0.00    +0.000 A 
ATOM     22  C   UNL     1       0.820   2.782  18.907  0.00  0.00    +0.000 A 
ATOM     23  C   UNL     1       1.667   3.586  18.149  0.00  0.00    +0.000 A 
BRANCH  22  24
ATOM     24  O   UNL     1       0.197   1.746  18.276  0.00  0.00    +0.000 OA
ATOM     25  H   UNL     1      -0.758   1.920  18.264  0.00  0.00    +0.000 HD
ENDBRANCH  22  24
ENDBRANCH  17  18
ENDBRANCH   4  17
TORSDOF 8
ENDMDL
MODEL 8
REMARK VINA RESULT:      -6.9      3.054      4.412
REMARK  Name = 
REMARK  8 active torsions:
REMARK  status: ('A' for Active; 'I' for Inactive)
REMARK    1  A    between atoms: N_1  and  C_2
REMARK    2  A    between atoms: C_2  and  C_3
REMARK    3  A    between atoms: C_3  and  O_5
REMARK    4  A    between atoms: C_7  and  C_8
REMARK    5  A    between atoms: C_8  and  O_10
REMARK    6  A    between atoms: N_11  and  C_12
REMARK    7  A    between atoms: C_12  and  C_13
REMARK    8  A    between atoms: C_17  and  O_18
REMARK                            x       y       z     vdW  Elec       q    Type
REMARK                         _______ _______ _______ _____ _____    ______ ____
ROOT
ATOM      1  C   UNL     1       6.026   4.867  16.884  0.00  0.00    +0.000 C 
ATOM      2  C   UNL     1       6.438   4.901  18.353  0.00  0.00    +0.000 C 
ATOM      3  C   UNL     1       5.136   5.183  19.110  0.00  0.00    +0.000 C 
ATOM      4  N   UNL     1       4.351   6.054  18.201  0.00  0.00    +0.000 NA
ATOM      5  C   UNL     1       4.868   5.877  16.829  0.00  0.00    +0.000 C 
ENDROOT
BRANCH   1   6
ATOM      6  N   UNL     1       5.583   3.509  16.426  0.00  0.00    +0.000 NA
ATOM      7  H   UNL     1       6.352   2.843  16.607  0.00  0.00    +0.000 HD
ATOM      8  H   UNL     1       5.550   3.509  15.399  0.00  0.00    +0.000 HD
ENDBRANCH   1   6
BRANCH   1   9
ATOM      9  C   UNL     1       7.134   5.325  15.919  0.00  0.00    +0.000 C 
ATOM     10  O   UNL     1       7.519   4.721  14.930  0.00  0.00    +0.000 OA
BRANCH   9  11
ATOM     11  O   UNL     1       7.664   6.515  16.317  0.00  0.00    +0.000 OA
ATOM     12  H   UNL     1       8.327   6.768  15.626  0.00  0.00    +0.000 HD
ENDBRANCH   9  11
ENDBRANCH   1   9
BRANCH   3  13
ATOM     13  C   UNL     1       4.437   3.870  19.504  0.00  0.00    +0.000 C 
ATOM     14  O   UNL     1       3.337   3.798  20.037  0.00  0.00    +0.000 OA
BRANCH  13  15
ATOM     15  O   UNL     1       5.179   2.766  19.258  0.00  0.00    +0.000 OA
ATOM     16  H   UNL     1       5.040   2.037  19.898  0.00  0.00    +0.000 HD
ENDBRANCH  13  15
ENDBRANCH   3  13
BRANCH   4  17
ATOM     17  C   UNL     1       2.890   5.974  18.305  0.00  0.00    +0.000 C 
BRANCH  17  18
ATOM     18  C   UNL     1       2.235   7.214  18.884  0.00  0.00    +0.000 A 
ATOM     19  C   UNL     1       1.895   7.301  20.241  0.00  0.00    +0.000 A 
ATOM     20  C   UNL     1       1.289   8.457  20.749  0.00  0.00    +0.000 A 
ATOM     21  C   UNL     1       1.029   9.544  19.912  0.00  0.00    +0.000 A 
ATOM     22  C   UNL     1       1.379   9.465  18.570  0.00  0.00    +0.000 A 
ATOM     23  C   UNL     1       1.965   8.313  18.052  0.00  0.00    +0.000 A 
BRANCH  22  24
ATOM     24  O   UNL     1       1.172  10.509  17.718  0.00  0.00    +0.000 OA
ATOM     25  H   UNL     1       0.216  10.662  17.643  0.00  0.00    +0.000 HD
ENDBRANCH  22  24
ENDBRANCH  17  18
ENDBRANCH   4  17
TORSDOF 8
ENDMDL
MODEL 9
REMARK VINA RESULT:      -6.9      3.343      4.595
REMARK  Name = 
REMARK  8 active torsions:
REMARK  status: ('A' for Active; 'I' for Inactive)
REMARK    1  A    between atoms: N_1  and  C_2
REMARK    2  A    between atoms: C_2  and  C_3
REMARK    3  A    between atoms: C_3  and  O_5
REMARK    4  A    between atoms: C_7  and  C_8
REMARK    5  A    between atoms: C_8  and  O_10
REMARK    6  A    between atoms: N_11  and  C_12
REMARK    7  A    between atoms: C_12  and  C_13
REMARK    8  A    between atoms: C_17  and  O_18
REMARK                            x       y       z     vdW  Elec       q    Type
REMARK                         _______ _______ _______ _____ _____    ______ ____
ROOT
ATOM      1  C   UNL     1       5.770   4.715  17.413  0.00  0.00    +0.000 C 
ATOM      2  C   UNL     1       5.808   4.696  18.938  0.00  0.00    +0.000 C 
ATOM      3  C   UNL     1       4.435   5.229  19.363  0.00  0.00    +0.000 C 
ATOM      4  N   UNL     1       4.073   6.216  18.317  0.00  0.00    +0.000 NA
ATOM      5  C   UNL     1       4.868   5.922  17.107  0.00  0.00    +0.000 C 
ENDROOT
BRANCH   1   6
ATOM      6  N   UNL     1       5.209   3.457  16.820  0.00  0.00    +0.000 NA
ATOM      7  H   UNL     1       4.198   3.425  17.029  0.00  0.00    +0.000 HD
ATOM      8  H   UNL     1       5.555   2.659  17.367  0.00  0.00    +0.000 HD
ENDBRANCH   1   6
BRANCH   1   9
ATOM      9  C   UNL     1       7.145   4.943  16.761  0.00  0.00    +0.000 C 
ATOM     10  O   UNL     1       7.389   5.724  15.854  0.00  0.00    +0.000 OA
BRANCH   9  11
ATOM     11  O   UNL     1       8.088   4.134  17.320  0.00  0.00    +0.000 OA
ATOM     12  H   UNL     1       8.552   4.681  18.003  0.00  0.00    +0.000 HD
ENDBRANCH   9  11
ENDBRANCH   1   9
BRANCH   3  13
ATOM     13  C   UNL     1       3.431   4.075  19.535  0.00  0.00    +0.000 C 
ATOM     14  O   UNL     1       3.148   3.262  18.665  0.00  0.00    +0.000 OA
BRANCH  13  15
ATOM     15  O   UNL     1       2.824   4.059  20.744  0.00  0.00    +0.000 OA
ATOM     16  H   UNL     1       1.963   3.594  20.755  0.00  0.00    +0.000 HD
ENDBRANCH  13  15
ENDBRANCH   3  13
BRANCH   4  17
ATOM     17  C   UNL     1       2.642   6.411  18.059  0.00  0.00    +0.000 C 
BRANCH  17  18
ATOM     18  C   UNL     1       2.066   7.682  18.656  0.00  0.00    +0.000 A 
ATOM     19  C   UNL     1       1.781   8.803  17.866  0.00  0.00    +0.000 A 
ATOM     20  C   UNL     1       1.252   9.964  18.444  0.00  0.00    +0.000 A 
ATOM     21  C   UNL     1       0.989  10.014  19.814  0.00  0.00    +0.000 A 
ATOM     22  C   UNL     1       1.258   8.898  20.596  0.00  0.00    +0.000 A 
ATOM     23  C   UNL     1       1.801   7.746  20.034  0.00  0.00    +0.000 A 
BRANCH  22  24
ATOM     24  O   UNL     1       0.993   8.887  21.934  0.00  0.00    +0.000 OA
ATOM     25  H   UNL     1       1.836   8.891  22.416  0.00  0.00    +0.000 HD
ENDBRANCH  22  24
ENDBRANCH  17  18
ENDBRANCH   4  17
TORSDOF 8
ENDMDL
