MODEL 1
REMARK VINA RESULT:      -7.8      0.000      0.000
REMARK  Name = 
REMARK  6 active torsions:
REMARK  status: ('A' for Active; 'I' for Inactive)
REMARK    1  A    between atoms: C_1  and  N_2
REMARK    2  A    between atoms: C_3  and  C_4
REMARK    3  A    between atoms: N_9  and  C_10
REMARK    4  A    between atoms: C_10  and  C_11
REMARK    5  A    between atoms: C_11  and  N_12
REMARK    6  A    between atoms: N_15  and  C_16
REMARK                            x       y       z     vdW  Elec       q    Type
REMARK                         _______ _______ _______ _____ _____    ______ ____
ROOT
ATOM      1  C   UNL     1       2.556   3.199  20.858  0.00  0.00    +0.000 C 
ENDROOT
BRANCH   1   2
ATOM      2  N   UNL     1       2.895   4.611  20.968  0.00  0.00    +0.000 N 
ATOM      3  C   UNL     1       2.121   5.512  20.270  0.00  0.00    +0.000 C 
ATOM      4  O   UNL     1       1.173   5.165  19.574  0.00  0.00    +0.000 OA
ATOM      5  N   UNL     1       2.586   6.803  20.401  0.00  0.00    +0.000 N 
ATOM      6  H   UNL     1       3.234   4.948  21.869  0.00  0.00    +0.000 HD
ATOM      7  H   UNL     1       3.594   6.860  20.478  0.00  0.00    +0.000 HD
BRANCH   5   8
ATOM      8  C   UNL     1       1.962   7.876  19.721  0.00  0.00    +0.000 A 
ATOM      9  C   UNL     1       2.250   8.171  18.385  0.00  0.00    +0.000 A 
ATOM     10  C   UNL     1       1.634   9.258  17.757  0.00  0.00    +0.000 A 
ATOM     11  C   UNL     1       0.744  10.067  18.465  0.00  0.00    +0.000 A 
ATOM     12  C   UNL     1       0.451   9.776  19.798  0.00  0.00    +0.000 A 
ATOM     13  C   UNL     1       1.043   8.672  20.408  0.00  0.00    +0.000 A 
ATOM     14  F   UNL     1       0.768   8.414  21.697  0.00  0.00    +0.000 F 
ENDBRANCH   5   8
ENDBRANCH   1   2
BRANCH   1  15
ATOM     15  C   UNL     1       3.461   2.377  19.940  0.00  0.00    +0.000 C 
BRANCH  15  20
ATOM     16  C   UNL     1       5.041   4.730  15.901  0.00  0.00    +0.000 C 
ATOM     17  N   UNL     1       5.007   4.238  17.261  0.00  0.00    +0.000 N 
ATOM     18  C   UNL     1       5.870   4.354  18.298  0.00  0.00    +0.000 A 
ATOM     19  N   UNL     1       5.459   3.738  19.385  0.00  0.00    +0.000 NA
ATOM     20  N   UNL     1       4.250   3.192  19.042  0.00  0.00    +0.000 N 
ATOM     21  C   UNL     1       3.955   3.486  17.717  0.00  0.00    +0.000 A 
ATOM     22  O   UNL     1       2.952   3.161  17.101  0.00  0.00    +0.000 OA
BRANCH  18  23
ATOM     23  C   UNL     1       7.189   5.110  18.249  0.00  0.00    +0.000 C 
ATOM     24  F   UNL     1       8.201   4.431  17.646  0.00  0.00    +0.000 F 
ATOM     25  F   UNL     1       7.076   6.287  17.570  0.00  0.00    +0.000 F 
ATOM     26  F   UNL     1       7.643   5.426  19.493  0.00  0.00    +0.000 F 
ENDBRANCH  18  23
ENDBRANCH  15  20
ENDBRANCH   1  15
TORSDOF 5
ENDMDL
MODEL 2
REMARK VINA RESULT:      -7.7      1.863      2.375
REMARK  Name = 
REMARK  6 active torsions:
REMARK  status: ('A' for Active; 'I' for Inactive)
REMARK    1  A    between atoms: C_1  and  N_2
REMARK    2  A    between atoms: C_3  and  C_4
REMARK    3  A    between atoms: N_9  and  C_10
REMARK    4  A    between atoms: C_10  and  C_11
REMARK    5  A    between atoms: C_11  and  N_12
REMARK    6  A    between atoms: N_15  and  C_16
REMARK                            x       y       z     vdW  Elec       q    Type
REMARK                         _______ _______ _______ _____ _____    ______ ____
ROOT
ATOM      1  C   UNL     1       3.218   3.464  19.828  0.00  0.00    +0.000 C 
ENDROOT
BRANCH   1   2
ATOM      2  N   UNL     1       2.988   4.756  20.458  0.00  0.00    +0.000 N 
ATOM      3  C   UNL     1       2.420   5.751  19.692  0.00  0.00    +0.000 C 
ATOM      4  O   UNL     1       2.111   5.582  18.518  0.00  0.00    +0.000 OA
ATOM      5  N   UNL     1       2.320   6.940  20.381  0.00  0.00    +0.000 N 
ATOM      6  H   UNL     1       2.707   4.761  21.439  0.00  0.00    +0.000 HD
ATOM      7  H   UNL     1       3.078   7.089  21.036  0.00  0.00    +0.000 HD
BRANCH   5   8
ATOM      8  C   UNL     1       1.811   8.104  19.759  0.00  0.00    +0.000 A 
ATOM      9  C   UNL     1       2.193   8.478  18.466  0.00  0.00    +0.000 A 
ATOM     10  C   UNL     1       1.689   9.651  17.897  0.00  0.00    +0.000 A 
ATOM     11  C   UNL     1       0.819  10.468  18.622  0.00  0.00    +0.000 A 
ATOM     12  C   UNL     1       0.432  10.098  19.910  0.00  0.00    +0.000 A 
ATOM     13  C   UNL     1       0.912   8.911  20.460  0.00  0.00    +0.000 A 
ATOM     14  F   UNL     1       0.548   8.576  21.708  0.00  0.00    +0.000 F 
ENDBRANCH   5   8
ENDBRANCH   1   2
BRANCH   1  15
ATOM     15  C   UNL     1       4.682   3.124  19.543  0.00  0.00    +0.000 C 
BRANCH  15  20
ATOM     16  C   UNL     1       7.338   6.728  17.470  0.00  0.00    +0.000 C 
ATOM     17  N   UNL     1       6.435   5.606  17.594  0.00  0.00    +0.000 N 
ATOM     18  C   UNL     1       5.695   4.922  16.689  0.00  0.00    +0.000 A 
ATOM     19  N   UNL     1       4.987   3.953  17.225  0.00  0.00    +0.000 NA
ATOM     20  N   UNL     1       5.286   3.998  18.561  0.00  0.00    +0.000 N 
ATOM     21  C   UNL     1       6.183   5.029  18.812  0.00  0.00    +0.000 A 
ATOM     22  O   UNL     1       6.662   5.337  19.892  0.00  0.00    +0.000 OA
BRANCH  18  23
ATOM     23  C   UNL     1       5.660   5.217  15.197  0.00  0.00    +0.000 C 
ATOM     24  F   UNL     1       4.942   4.322  14.466  0.00  0.00    +0.000 F 
ATOM     25  F   UNL     1       5.113   6.436  14.931  0.00  0.00    +0.000 F 
ATOM     26  F   UNL     1       6.907   5.227  14.649  0.00  0.00    +0.000 F 
ENDBRANCH  18  23
ENDBRANCH  15  20
ENDBRANCH   1  15
TORSDOF 5
ENDMDL
MODEL 3
REMARK VINA RESULT:      -7.6      3.736      6.885
REMARK  Name = 
REMARK  6 active torsions:
REMARK  status: ('A' for Active; 'I' for Inactive)
REMARK    1  A    between atoms: C_1  and  N_2
REMARK    2  A    between atoms: C_3  and  C_4
REMARK    3  A    between atoms: N_9  and  C_10
REMARK    4  A    between atoms: C_10  and  C_11
REMARK    5  A    between atoms: C_11  and  N_12
REMARK    6  A    between atoms: N_15  and  C_16
REMARK                            x       y       z     vdW  Elec       q    Type
REMARK                         _______ _______ _______ _____ _____    ______ ____
ROOT
ATOM      1  C   UNL     1       7.693   5.868  18.484  0.00  0.00    +0.000 C 
ENDROOT
BRANCH   1   2
ATOM      2  N   UNL     1       7.138   6.222  17.186  0.00  0.00    +0.000 N 
ATOM      3  C   UNL     1       7.109   5.247  16.213  0.00  0.00    +0.000 C 
ATOM      4  O   UNL     1       7.530   4.112  16.406  0.00  0.00    +0.000 OA
ATOM      5  N   UNL     1       6.627   5.727  15.015  0.00  0.00    +0.000 N 
ATOM      6  H   UNL     1       6.345   6.865  17.170  0.00  0.00    +0.000 HD
ATOM      7  H   UNL     1       6.872   6.695  14.842  0.00  0.00    +0.000 HD
BRANCH   5   8
ATOM      8  C   UNL     1       6.563   4.899  13.869  0.00  0.00    +0.000 A 
ATOM      9  C   UNL     1       5.516   3.994  13.669  0.00  0.00    +0.000 A 
ATOM     10  C   UNL     1       5.504   3.173  12.537  0.00  0.00    +0.000 A 
ATOM     11  C   UNL     1       6.547   3.236  11.611  0.00  0.00    +0.000 A 
ATOM     12  C   UNL     1       7.593   4.139  11.804  0.00  0.00    +0.000 A 
ATOM     13  C   UNL     1       7.583   4.977  12.917  0.00  0.00    +0.000 A 
ATOM     14  F   UNL     1       8.604   5.828  13.102  0.00  0.00    +0.000 F 
ENDBRANCH   5   8
ENDBRANCH   1   2
BRANCH   1  15
ATOM     15  C   UNL     1       6.671   5.673  19.605  0.00  0.00    +0.000 C 
BRANCH  15  20
ATOM     16  C   UNL     1       2.176   4.650  17.847  0.00  0.00    +0.000 C 
ATOM     17  N   UNL     1       3.486   4.450  18.424  0.00  0.00    +0.000 N 
ATOM     18  C   UNL     1       4.128   3.347  18.877  0.00  0.00    +0.000 A 
ATOM     19  N   UNL     1       5.331   3.601  19.342  0.00  0.00    +0.000 NA
ATOM     20  N   UNL     1       5.491   4.952  19.177  0.00  0.00    +0.000 N 
ATOM     21  C   UNL     1       4.346   5.501  18.612  0.00  0.00    +0.000 A 
ATOM     22  O   UNL     1       4.161   6.672  18.324  0.00  0.00    +0.000 OA
BRANCH  18  23
ATOM     23  C   UNL     1       3.548   1.940  18.867  0.00  0.00    +0.000 C 
ATOM     24  F   UNL     1       3.284   1.453  17.625  0.00  0.00    +0.000 F 
ATOM     25  F   UNL     1       4.388   1.038  19.448  0.00  0.00    +0.000 F 
ATOM     26  F   UNL     1       2.373   1.868  19.551  0.00  0.00    +0.000 F 
ENDBRANCH  18  23
ENDBRANCH  15  20
ENDBRANCH   1  15
TORSDOF 5
ENDMDL
MODEL 4
REMARK VINA RESULT:      -7.5      2.011      2.701
REMARK  Name = 
REMARK  6 active torsions:
REMARK  status: ('A' for Active; 'I' for Inactive)
REMARK    1  A    between atoms: C_1  and  N_2
REMARK    2  A    between atoms: C_3  and  C_4
REMARK    3  A    between atoms: N_9  and  C_10
REMARK    4  A    between atoms: C_10  and  C_11
REMARK    5  A    between atoms: C_11  and  N_12
REMARK    6  A    between atoms: N_15  and  C_16
REMARK                            x       y       z     vdW  Elec       q    Type
REMARK                         _______ _______ _______ _____ _____    ______ ____
ROOT
ATOM      1  C   UNL     1       3.221   3.458  19.935  0.00  0.00    +0.000 C 
ENDROOT
BRANCH   1   2
ATOM      2  N   UNL     1       3.218   4.828  20.428  0.00  0.00    +0.000 N 
ATOM      3  C   UNL     1       2.420   5.742  19.775  0.00  0.00    +0.000 C 
ATOM      4  O   UNL     1       1.728   5.440  18.809  0.00  0.00    +0.000 OA
ATOM      5  N   UNL     1       2.560   7.011  20.292  0.00  0.00    +0.000 N 
ATOM      6  H   UNL     1       3.290   4.968  21.436  0.00  0.00    +0.000 HD
ATOM      7  H   UNL     1       3.496   7.209  20.625  0.00  0.00    +0.000 HD
BRANCH   5   8
ATOM      8  C   UNL     1       1.866   8.110  19.730  0.00  0.00    +0.000 A 
ATOM      9  C   UNL     1       0.836   8.762  20.415  0.00  0.00    +0.000 A 
ATOM     10  C   UNL     1       0.156   9.825  19.814  0.00  0.00    +0.000 A 
ATOM     11  C   UNL     1       0.486  10.229  18.518  0.00  0.00    +0.000 A 
ATOM     12  C   UNL     1       1.514   9.583  17.831  0.00  0.00    +0.000 A 
ATOM     13  C   UNL     1       2.210   8.546  18.448  0.00  0.00    +0.000 A 
ATOM     14  F   UNL     1       3.185   7.920  17.770  0.00  0.00    +0.000 F 
ENDBRANCH   5   8
ENDBRANCH   1   2
BRANCH   1  15
ATOM     15  C   UNL     1       4.563   2.957  19.397  0.00  0.00    +0.000 C 
BRANCH  15  20
ATOM     16  C   UNL     1       7.205   6.688  17.541  0.00  0.00    +0.000 C 
ATOM     17  N   UNL     1       6.324   5.543  17.595  0.00  0.00    +0.000 N 
ATOM     18  C   UNL     1       5.630   4.875  16.643  0.00  0.00    +0.000 A 
ATOM     19  N   UNL     1       4.927   3.873  17.120  0.00  0.00    +0.000 NA
ATOM     20  N   UNL     1       5.180   3.878  18.467  0.00  0.00    +0.000 N 
ATOM     21  C   UNL     1       6.044   4.919  18.784  0.00  0.00    +0.000 A 
ATOM     22  O   UNL     1       6.479   5.198  19.890  0.00  0.00    +0.000 OA
BRANCH  18  23
ATOM     23  C   UNL     1       5.639   5.221  15.161  0.00  0.00    +0.000 C 
ATOM     24  F   UNL     1       4.972   4.335  14.375  0.00  0.00    +0.000 F 
ATOM     25  F   UNL     1       5.068   6.435  14.918  0.00  0.00    +0.000 F 
ATOM     26  F   UNL     1       6.903   5.284  14.659  0.00  0.00    +0.000 F 
ENDBRANCH  18  23
ENDBRANCH  15  20
ENDBRANCH   1  15
TORSDOF 5
ENDMDL
MODEL 5
REMARK VINA RESULT:      -7.5      1.048      1.662
REMARK  Name = 
REMARK  6 active torsions:
REMARK  status: ('A' for Active; 'I' for Inactive)
REMARK    1  A    between atoms: C_1  and  N_2
REMARK    2  A    between atoms: C_3  and  C_4
REMARK    3  A    between atoms: N_9  and  C_10
REMARK    4  A    between atoms: C_10  and  C_11
REMARK    5  A    between atoms: C_11  and  N_12
REMARK    6  A    between atoms: N_15  and  C_16
REMARK                            x       y       z     vdW  Elec       q    Type
REMARK                         _______ _______ _______ _____ _____    ______ ____
ROOT
ATOM      1  C   UNL     1       2.732   3.707  20.839  0.00  0.00    +0.000 C 
ENDROOT
BRANCH   1   2
ATOM      2  N   UNL     1       3.032   5.119  20.655  0.00  0.00    +0.000 N 
ATOM      3  C   UNL     1       1.971   5.996  20.583  0.00  0.00    +0.000 C 
ATOM      4  O   UNL     1       0.806   5.627  20.668  0.00  0.00    +0.000 OA
ATOM      5  N   UNL     1       2.384   7.287  20.338  0.00  0.00    +0.000 N 
ATOM      6  H   UNL     1       3.862   5.491  21.117  0.00  0.00    +0.000 HD
ATOM      7  H   UNL     1       3.207   7.341  19.750  0.00  0.00    +0.000 HD
BRANCH   5   8
ATOM      8  C   UNL     1       1.447   8.336  20.177  0.00  0.00    +0.000 A 
ATOM      9  C   UNL     1       0.673   8.805  21.243  0.00  0.00    +0.000 A 
ATOM     10  C   UNL     1      -0.262   9.823  21.036  0.00  0.00    +0.000 A 
ATOM     11  C   UNL     1      -0.444  10.364  19.762  0.00  0.00    +0.000 A 
ATOM     12  C   UNL     1       0.328   9.902  18.696  0.00  0.00    +0.000 A 
ATOM     13  C   UNL     1       1.282   8.910  18.914  0.00  0.00    +0.000 A 
ATOM     14  F   UNL     1       2.005   8.460  17.877  0.00  0.00    +0.000 F 
ENDBRANCH   5   8
ENDBRANCH   1   2
BRANCH   1  15
ATOM     15  C   UNL     1       3.484   2.750  19.914  0.00  0.00    +0.000 C 
BRANCH  15  20
ATOM     16  C   UNL     1       5.299   4.678  15.751  0.00  0.00    +0.000 C 
ATOM     17  N   UNL     1       5.210   4.285  17.139  0.00  0.00    +0.000 N 
ATOM     18  C   UNL     1       6.070   4.396  18.179  0.00  0.00    +0.000 A 
ATOM     19  N   UNL     1       5.598   3.893  19.299  0.00  0.00    +0.000 NA
ATOM     20  N   UNL     1       4.349   3.431  18.975  0.00  0.00    +0.000 N 
ATOM     21  C   UNL     1       4.092   3.659  17.629  0.00  0.00    +0.000 A 
ATOM     22  O   UNL     1       3.071   3.380  17.021  0.00  0.00    +0.000 OA
BRANCH  18  23
ATOM     23  C   UNL     1       7.450   5.031  18.099  0.00  0.00    +0.000 C 
ATOM     24  F   UNL     1       7.520   6.118  17.285  0.00  0.00    +0.000 F 
ATOM     25  F   UNL     1       7.890   5.452  19.318  0.00  0.00    +0.000 F 
ATOM     26  F   UNL     1       8.387   4.158  17.633  0.00  0.00    +0.000 F 
ENDBRANCH  18  23
ENDBRANCH  15  20
ENDBRANCH   1  15
TORSDOF 5
ENDMDL
MODEL 6
REMARK VINA RESULT:      -7.4      0.620      1.059
REMARK  Name = 
REMARK  6 active torsions:
REMARK  status: ('A' for Active; 'I' for Inactive)
REMARK    1  A    between atoms: C_1  and  N_2
REMARK    2  A    between atoms: C_3  and  C_4
REMARK    3  A    between atoms: N_9  and  C_10
REMARK    4  A    between atoms: C_10  and  C_11
REMARK    5  A    between atoms: C_11  and  N_12
REMARK    6  A    between atoms: N_15  and  C_16
REMARK                            x       y       z     vdW  Elec       q    Type
REMARK                         _______ _______ _______ _____ _____    ______ ____
ROOT
ATOM      1  C   UNL     1       2.571   3.759  20.805  0.00  0.00    +0.000 C 
ENDROOT
BRANCH   1   2
ATOM      2  N   UNL     1       2.931   5.167  20.707  0.00  0.00    +0.000 N 
ATOM      3  C   UNL     1       1.917   6.074  20.487  0.00  0.00    +0.000 C 
ATOM      4  O   UNL     1       0.745   5.736  20.374  0.00  0.00    +0.000 OA
ATOM      5  N   UNL     1       2.395   7.358  20.345  0.00  0.00    +0.000 N 
ATOM      6  H   UNL     1       3.684   5.505  21.307  0.00  0.00    +0.000 HD
ATOM      7  H   UNL     1       3.304   7.402  19.899  0.00  0.00    +0.000 HD
BRANCH   5   8
ATOM      8  C   UNL     1       1.523   8.436  20.062  0.00  0.00    +0.000 A 
ATOM      9  C   UNL     1       1.352   8.925  18.763  0.00  0.00    +0.000 A 
ATOM     10  C   UNL     1       0.501  10.010  18.528  0.00  0.00    +0.000 A 
ATOM     11  C   UNL     1      -0.166  10.624  19.590  0.00  0.00    +0.000 A 
ATOM     12  C   UNL     1      -0.001  10.138  20.887  0.00  0.00    +0.000 A 
ATOM     13  C   UNL     1       0.822   9.036  21.111  0.00  0.00    +0.000 A 
ATOM     14  F   UNL     1       0.988   8.589  22.366  0.00  0.00    +0.000 F 
ENDBRANCH   5   8
ENDBRANCH   1   2
BRANCH   1  15
ATOM     15  C   UNL     1       3.533   2.787  20.121  0.00  0.00    +0.000 C 
BRANCH  15  20
ATOM     16  C   UNL     1       5.181   4.431  15.771  0.00  0.00    +0.000 C 
ATOM     17  N   UNL     1       5.140   4.147  17.188  0.00  0.00    +0.000 N 
ATOM     18  C   UNL     1       6.021   4.367  18.193  0.00  0.00    +0.000 A 
ATOM     19  N   UNL     1       5.593   3.941  19.360  0.00  0.00    +0.000 NA
ATOM     20  N   UNL     1       4.352   3.417  19.108  0.00  0.00    +0.000 N 
ATOM     21  C   UNL     1       4.055   3.529  17.756  0.00  0.00    +0.000 A 
ATOM     22  O   UNL     1       3.029   3.172  17.200  0.00  0.00    +0.000 OA
BRANCH  18  23
ATOM     23  C   UNL     1       7.378   5.035  18.025  0.00  0.00    +0.000 C 
ATOM     24  F   UNL     1       7.363   6.142  17.235  0.00  0.00    +0.000 F 
ATOM     25  F   UNL     1       7.898   5.438  19.218  0.00  0.00    +0.000 F 
ATOM     26  F   UNL     1       8.295   4.195  17.470  0.00  0.00    +0.000 F 
ENDBRANCH  18  23
ENDBRANCH  15  20
ENDBRANCH   1  15
TORSDOF 5
ENDMDL
MODEL 7
REMARK VINA RESULT:      -7.2      0.841      1.109
REMARK  Name = 
REMARK  6 active torsions:
REMARK  status: ('A' for Active; 'I' for Inactive)
REMARK    1  A    between atoms: C_1  and  N_2
REMARK    2  A    between atoms: C_3  and  C_4
REMARK    3  A    between atoms: N_9  and  C_10
REMARK    4  A    between atoms: C_10  and  C_11
REMARK    5  A    between atoms: C_11  and  N_12
REMARK    6  A    between atoms: N_15  and  C_16
REMARK                            x       y       z     vdW  Elec       q    Type
REMARK                         _______ _______ _______ _____ _____    ______ ____
ROOT
ATOM      1  C   UNL     1       2.891   2.901  20.011  0.00  0.00    +0.000 C 
ENDROOT
BRANCH   1   2
ATOM      2  N   UNL     1       3.094   4.276  20.444  0.00  0.00    +0.000 N 
ATOM      3  C   UNL     1       2.355   5.260  19.823  0.00  0.00    +0.000 C 
ATOM      4  O   UNL     1       1.547   5.013  18.934  0.00  0.00    +0.000 OA
ATOM      5  N   UNL     1       2.689   6.518  20.271  0.00  0.00    +0.000 N 
ATOM      6  H   UNL     1       3.273   4.439  21.435  0.00  0.00    +0.000 HD
ATOM      7  H   UNL     1       3.669   6.611  20.514  0.00  0.00    +0.000 HD
BRANCH   5   8
ATOM      8  C   UNL     1       2.083   7.674  19.725  0.00  0.00    +0.000 A 
ATOM      9  C   UNL     1       2.217   8.010  18.374  0.00  0.00    +0.000 A 
ATOM     10  C   UNL     1       1.626   9.176  17.878  0.00  0.00    +0.000 A 
ATOM     11  C   UNL     1       0.915  10.022  18.732  0.00  0.00    +0.000 A 
ATOM     12  C   UNL     1       0.775   9.690  20.080  0.00  0.00    +0.000 A 
ATOM     13  C   UNL     1       1.339   8.511  20.561  0.00  0.00    +0.000 A 
ATOM     14  F   UNL     1       1.215   8.212  21.864  0.00  0.00    +0.000 F 
ENDBRANCH   5   8
ENDBRANCH   1   2
BRANCH   1  15
ATOM     15  C   UNL     1       3.847   2.407  18.924  0.00  0.00    +0.000 C 
BRANCH  15  20
ATOM     16  C   UNL     1       6.220   5.635  16.046  0.00  0.00    +0.000 C 
ATOM     17  N   UNL     1       5.867   4.864  17.216  0.00  0.00    +0.000 N 
ATOM     18  C   UNL     1       6.396   4.793  18.461  0.00  0.00    +0.000 A 
ATOM     19  N   UNL     1       5.769   3.942  19.243  0.00  0.00    +0.000 NA
ATOM     20  N   UNL     1       4.763   3.429  18.467  0.00  0.00    +0.000 N 
ATOM     21  C   UNL     1       4.813   3.986  17.195  0.00  0.00    +0.000 A 
ATOM     22  O   UNL     1       4.057   3.756  16.265  0.00  0.00    +0.000 OA
BRANCH  18  23
ATOM     23  C   UNL     1       7.593   5.600  18.941  0.00  0.00    +0.000 C 
ATOM     24  F   UNL     1       7.738   6.805  18.329  0.00  0.00    +0.000 F 
ATOM     25  F   UNL     1       7.524   5.868  20.276  0.00  0.00    +0.000 F 
ATOM     26  F   UNL     1       8.767   4.939  18.741  0.00  0.00    +0.000 F 
ENDBRANCH  18  23
ENDBRANCH  15  20
ENDBRANCH   1  15
TORSDOF 5
ENDMDL
MODEL 8
REMARK VINA RESULT:      -7.1      4.200      5.448
REMARK  Name = 
REMARK  6 active torsions:
REMARK  status: ('A' for Active; 'I' for Inactive)
REMARK    1  A    between atoms: C_1  and  N_2
REMARK    2  A    between atoms: C_3  and  C_4
REMARK    3  A    between atoms: N_9  and  C_10
REMARK    4  A    between atoms: C_10  and  C_11
REMARK    5  A    between atoms: C_11  and  N_12
REMARK    6  A    between atoms: N_15  and  C_16
REMARK                            x       y       z     vdW  Elec       q    Type
REMARK                         _______ _______ _______ _____ _____    ______ ____
ROOT
ATOM      1  C   UNL     1       7.385   5.166  18.296  0.00  0.00    +0.000 C 
ENDROOT
BRANCH   1   2
ATOM      2  N   UNL     1       6.565   3.981  18.507  0.00  0.00    +0.000 N 
ATOM      3  C   UNL     1       5.304   4.159  19.033  0.00  0.00    +0.000 C 
ATOM      4  O   UNL     1       4.862   5.266  19.322  0.00  0.00    +0.000 OA
ATOM      5  N   UNL     1       4.660   2.961  19.249  0.00  0.00    +0.000 N 
ATOM      6  H   UNL     1       6.640   3.226  17.825  0.00  0.00    +0.000 HD
ATOM      7  H   UNL     1       5.286   2.211  19.516  0.00  0.00    +0.000 HD
BRANCH   5   8
ATOM      8  C   UNL     1       3.371   2.918  19.832  0.00  0.00    +0.000 A 
ATOM      9  C   UNL     1       3.189   2.740  21.207  0.00  0.00    +0.000 A 
ATOM     10  C   UNL     1       1.898   2.675  21.742  0.00  0.00    +0.000 A 
ATOM     11  C   UNL     1       0.785   2.767  20.904  0.00  0.00    +0.000 A 
ATOM     12  C   UNL     1       0.961   2.948  19.532  0.00  0.00    +0.000 A 
ATOM     13  C   UNL     1       2.249   3.044  19.010  0.00  0.00    +0.000 A 
ATOM     14  F   UNL     1       2.407   3.199  17.686  0.00  0.00    +0.000 F 
ENDBRANCH   5   8
ENDBRANCH   1   2
BRANCH   1  15
ATOM     15  C   UNL     1       6.818   6.188  17.310  0.00  0.00    +0.000 C 
BRANCH  15  20
ATOM     16  C   UNL     1       5.347   3.758  13.276  0.00  0.00    +0.000 C 
ATOM     17  N   UNL     1       6.142   4.605  14.136  0.00  0.00    +0.000 N 
ATOM     18  C   UNL     1       7.299   5.281  13.940  0.00  0.00    +0.000 A 
ATOM     19  N   UNL     1       7.701   5.941  15.004  0.00  0.00    +0.000 NA
ATOM     20  N   UNL     1       6.745   5.689  15.954  0.00  0.00    +0.000 N 
ATOM     21  C   UNL     1       5.768   4.850  15.433  0.00  0.00    +0.000 A 
ATOM     22  O   UNL     1       4.773   4.439  16.008  0.00  0.00    +0.000 OA
BRANCH  18  23
ATOM     23  C   UNL     1       8.083   5.299  12.637  0.00  0.00    +0.000 C 
ATOM     24  F   UNL     1       7.843   6.384  11.853  0.00  0.00    +0.000 F 
ATOM     25  F   UNL     1       9.429   5.286  12.851  0.00  0.00    +0.000 F 
ATOM     26  F   UNL     1       7.807   4.214  11.861  0.00  0.00    +0.000 F 
ENDBRANCH  18  23
ENDBRANCH  15  20
ENDBRANCH   1  15
TORSDOF 5
ENDMDL
MODEL 9
REMARK VINA RESULT:      -7.1      3.460      6.946
REMARK  Name = 
REMARK  6 active torsions:
REMARK  status: ('A' for Active; 'I' for Inactive)
REMARK    1  A    between atoms: C_1  and  N_2
REMARK    2  A    between atoms: C_3  and  C_4
REMARK    3  A    between atoms: N_9  and  C_10
REMARK    4  A    between atoms: C_10  and  C_11
REMARK    5  A    between atoms: C_11  and  N_12
REMARK    6  A    between atoms: N_15  and  C_16
REMARK                            x       y       z     vdW  Elec       q    Type
REMARK                         _______ _______ _______ _____ _____    ______ ____
ROOT
ATOM      1  C   UNL     1       4.040   7.249  17.651  0.00  0.00    +0.000 C 
ENDROOT
BRANCH   1   2
ATOM      2  N   UNL     1       4.632   5.998  17.198  0.00  0.00    +0.000 N 
ATOM      3  C   UNL     1       5.073   5.931  15.895  0.00  0.00    +0.000 C 
ATOM      4  O   UNL     1       4.983   6.878  15.121  0.00  0.00    +0.000 OA
ATOM      5  N   UNL     1       5.545   4.678  15.572  0.00  0.00    +0.000 N 
ATOM      6  H   UNL     1       5.196   5.472  17.867  0.00  0.00    +0.000 HD
ATOM      7  H   UNL     1       5.052   3.930  16.044  0.00  0.00    +0.000 HD
BRANCH   5   8
ATOM      8  C   UNL     1       5.999   4.382  14.265  0.00  0.00    +0.000 A 
ATOM      9  C   UNL     1       5.266   3.567  13.396  0.00  0.00    +0.000 A 
ATOM     10  C   UNL     1       5.762   3.276  12.121  0.00  0.00    +0.000 A 
ATOM     11  C   UNL     1       7.000   3.779  11.716  0.00  0.00    +0.000 A 
ATOM     12  C   UNL     1       7.734   4.595  12.578  0.00  0.00    +0.000 A 
ATOM     13  C   UNL     1       7.219   4.908  13.834  0.00  0.00    +0.000 A 
ATOM     14  F   UNL     1       7.943   5.678  14.662  0.00  0.00    +0.000 F 
ENDBRANCH   5   8
ENDBRANCH   1   2
BRANCH   1  15
ATOM     15  C   UNL     1       2.608   7.146  18.176  0.00  0.00    +0.000 C 
BRANCH  15  20
ATOM     16  C   UNL     1       1.560   3.503  21.335  0.00  0.00    +0.000 C 
ATOM     17  N   UNL     1       1.851   4.180  20.091  0.00  0.00    +0.000 N 
ATOM     18  C   UNL     1       2.003   3.736  18.820  0.00  0.00    +0.000 A 
ATOM     19  N   UNL     1       2.275   4.696  17.965  0.00  0.00    +0.000 NA
ATOM     20  N   UNL     1       2.295   5.841  18.718  0.00  0.00    +0.000 N 
ATOM     21  C   UNL     1       2.041   5.538  20.050  0.00  0.00    +0.000 A 
ATOM     22  O   UNL     1       1.977   6.325  20.981  0.00  0.00    +0.000 OA
BRANCH  18  23
ATOM     23  C   UNL     1       1.879   2.282  18.390  0.00  0.00    +0.000 C 
ATOM     24  F   UNL     1       0.626   1.767  18.510  0.00  0.00    +0.000 F 
ATOM     25  F   UNL     1       2.229   2.106  17.084  0.00  0.00    +0.000 F 
ATOM     26  F   UNL     1       2.687   1.464  19.118  0.00  0.00    +0.000 F 
ENDBRANCH  18  23
ENDBRANCH  15  20
ENDBRANCH   1  15
TORSDOF 5
ENDMDL
