MODEL 1
REMARK VINA RESULT:      -7.9      0.000      0.000
REMARK  Name = 
REMARK  11 active torsions:
REMARK  status: ('A' for Active; 'I' for Inactive)
REMARK    1  A    between atoms: C_1  and  C_2
REMARK    2  A    between atoms: C_3  and  N_4
REMARK    3  A    between atoms: C_6  and  N_7
REMARK    4  A    between atoms: C_8  and  C_9
REMARK    5  A    between atoms: C_12  and  C_13
REMARK    6  A    between atoms: C_15  and  C_16
REMARK    7  A    between atoms: C_22  and  O_23
REMARK    8  A    between atoms: O_23  and  C_24
REMARK    9  A    between atoms: C_24  and  C_25
REMARK   10  A    between atoms: C_32  and  C_33
REMARK   11  A    between atoms: C_33  and  O_35
REMARK                            x       y       z     vdW  Elec       q    Type
REMARK                         _______ _______ _______ _____ _____    ______ ____
ROOT
ATOM      1  N   UNL     1      -0.183  13.081  19.696  0.00  0.00    +0.000 N 
ATOM      2  C   UNL     1       0.214  14.434  19.748  0.00  0.00    +0.000 A 
ATOM      3  C   UNL     1      -0.516  15.639  19.240  0.00  0.00    +0.000 C 
ATOM      4  C   UNL     1       1.489  14.498  20.271  0.00  0.00    +0.000 A 
ATOM      5  C   UNL     1       1.929  13.194  20.509  0.00  0.00    +0.000 A 
ATOM      6  C   UNL     1       0.929  12.295  20.150  0.00  0.00    +0.000 A 
ENDROOT
BRANCH   1  11
ATOM      7  C   UNL     1      -5.311  10.984  17.911  0.00  0.00    +0.000 C 
ATOM      8  C   UNL     1      -3.995  11.602  18.315  0.00  0.00    +0.000 A 
ATOM      9  C   UNL     1      -3.877  12.297  19.533  0.00  0.00    +0.000 A 
ATOM     10  C   UNL     1      -2.600  12.647  20.015  0.00  0.00    +0.000 A 
ATOM     11  C   UNL     1      -1.464  12.609  19.208  0.00  0.00    +0.000 A 
ATOM     12  C   UNL     1      -1.620  12.078  17.923  0.00  0.00    +0.000 A 
ATOM     13  C   UNL     1      -2.828  11.477  17.520  0.00  0.00    +0.000 A 
BRANCH   9  14
ATOM     14  N   UNL     1      -4.968  12.479  20.401  0.00  0.00    +0.000 N 
ATOM     15  H   UNL     1      -5.696  13.076  20.018  0.00  0.00    +0.000 HD
ATOM     16  H   UNL     1      -4.688  12.837  21.312  0.00  0.00    +0.000 HD
ENDBRANCH   9  14
BRANCH  13  17
ATOM     17  C   UNL     1      -2.779  10.738  16.220  0.00  0.00    +0.000 C 
ATOM     18  O   UNL     1      -2.511   9.550  16.150  0.00  0.00    +0.000 OA
BRANCH  17  19
ATOM     19  O   UNL     1      -3.175  11.455  15.147  0.00  0.00    +0.000 OA
ATOM     20  H   UNL     1      -3.624  10.943  14.449  0.00  0.00    +0.000 HD
ENDBRANCH  17  19
ENDBRANCH  13  17
ENDBRANCH   1  11
BRANCH   6  21
ATOM     21  C   UNL     1       1.039  10.808  20.320  0.00  0.00    +0.000 A 
ATOM     22  C   UNL     1       1.410  10.011  19.219  0.00  0.00    +0.000 A 
ATOM     23  C   UNL     1       1.681   8.637  19.353  0.00  0.00    +0.000 A 
ATOM     24  C   UNL     1       1.440   8.016  20.576  0.00  0.00    +0.000 A 
ATOM     25  C   UNL     1       0.941   8.751  21.643  0.00  0.00    +0.000 A 
ATOM     26  C   UNL     1       0.753  10.144  21.549  0.00  0.00    +0.000 A 
BRANCH  23  27
ATOM     27  C   UNL     1       2.269   7.827  18.227  0.00  0.00    +0.000 C 
ATOM     28  F   UNL     1       3.410   7.170  18.561  0.00  0.00    +0.000 F 
ATOM     29  F   UNL     1       1.402   6.863  17.797  0.00  0.00    +0.000 F 
ATOM     30  F   UNL     1       2.561   8.581  17.135  0.00  0.00    +0.000 F 
ENDBRANCH  23  27
BRANCH  26  31
ATOM     31  O   UNL     1       0.298  10.882  22.625  0.00  0.00    +0.000 OA
BRANCH  31  32
ATOM     32  C   UNL     1      -1.102  10.763  22.926  0.00  0.00    +0.000 C 
BRANCH  32  33
ATOM     33  C   UNL     1      -1.774  12.067  23.279  0.00  0.00    +0.000 A 
ATOM     34  C   UNL     1      -1.044  13.266  23.161  0.00  0.00    +0.000 A 
ATOM     35  C   UNL     1      -1.667  14.501  23.350  0.00  0.00    +0.000 A 
ATOM     36  C   UNL     1      -3.022  14.552  23.661  0.00  0.00    +0.000 A 
ATOM     37  C   UNL     1      -3.754  13.371  23.784  0.00  0.00    +0.000 A 
ATOM     38  C   UNL     1      -3.132  12.134  23.597  0.00  0.00    +0.000 A 
ENDBRANCH  32  33
ENDBRANCH  31  32
ENDBRANCH  26  31
ENDBRANCH   6  21
TORSDOF 9
ENDMDL
MODEL 2
REMARK VINA RESULT:      -7.6      1.738      2.164
REMARK  Name = 
REMARK  11 active torsions:
REMARK  status: ('A' for Active; 'I' for Inactive)
REMARK    1  A    between atoms: C_1  and  C_2
REMARK    2  A    between atoms: C_3  and  N_4
REMARK    3  A    between atoms: C_6  and  N_7
REMARK    4  A    between atoms: C_8  and  C_9
REMARK    5  A    between atoms: C_12  and  C_13
REMARK    6  A    between atoms: C_15  and  C_16
REMARK    7  A    between atoms: C_22  and  O_23
REMARK    8  A    between atoms: O_23  and  C_24
REMARK    9  A    between atoms: C_24  and  C_25
REMARK   10  A    between atoms: C_32  and  C_33
REMARK   11  A    between atoms: C_33  and  O_35
REMARK                            x       y       z     vdW  Elec       q    Type
REMARK                         _______ _______ _______ _____ _____    ______ ____
ROOT
ATOM      1  N   UNL     1      -0.261  13.049  19.734  0.00  0.00    +0.000 N 
ATOM      2  C   UNL     1       0.126  14.406  19.769  0.00  0.00    +0.000 A 
ATOM      3  C   UNL     1      -0.604  15.597  19.228  0.00  0.00    +0.000 C 
ATOM      4  C   UNL     1       1.392  14.488  20.313  0.00  0.00    +0.000 A 
ATOM      5  C   UNL     1       1.836  13.191  20.580  0.00  0.00    +0.000 A 
ATOM      6  C   UNL     1       0.849  12.279  20.220  0.00  0.00    +0.000 A 
ENDROOT
BRANCH   1  11
ATOM      7  C   UNL     1      -5.350  11.274  17.533  0.00  0.00    +0.000 C 
ATOM      8  C   UNL     1      -4.033  11.660  18.163  0.00  0.00    +0.000 A 
ATOM      9  C   UNL     1      -2.819  11.376  17.511  0.00  0.00    +0.000 A 
ATOM     10  C   UNL     1      -1.624  11.957  17.978  0.00  0.00    +0.000 A 
ATOM     11  C   UNL     1      -1.530  12.559  19.231  0.00  0.00    +0.000 A 
ATOM     12  C   UNL     1      -2.716  12.683  19.963  0.00  0.00    +0.000 A 
ATOM     13  C   UNL     1      -3.963  12.350  19.400  0.00  0.00    +0.000 A 
BRANCH   9  14
ATOM     14  N   UNL     1      -2.770  10.698  16.279  0.00  0.00    +0.000 N 
ATOM     15  H   UNL     1      -2.426  11.273  15.514  0.00  0.00    +0.000 HD
ATOM     16  H   UNL     1      -3.668  10.297  16.018  0.00  0.00    +0.000 HD
ENDBRANCH   9  14
BRANCH  13  17
ATOM     17  C   UNL     1      -5.162  12.758  20.197  0.00  0.00    +0.000 C 
ATOM     18  O   UNL     1      -5.716  13.834  20.045  0.00  0.00    +0.000 OA
BRANCH  17  19
ATOM     19  O   UNL     1      -5.656  11.798  21.006  0.00  0.00    +0.000 OA
ATOM     20  H   UNL     1      -5.376  11.855  21.937  0.00  0.00    +0.000 HD
ENDBRANCH  17  19
ENDBRANCH  13  17
ENDBRANCH   1  11
BRANCH   6  21
ATOM     21  C   UNL     1       0.965  10.796  20.416  0.00  0.00    +0.000 A 
ATOM     22  C   UNL     1       1.329   9.979  19.327  0.00  0.00    +0.000 A 
ATOM     23  C   UNL     1       1.606   8.609  19.485  0.00  0.00    +0.000 A 
ATOM     24  C   UNL     1       1.380   8.010  20.722  0.00  0.00    +0.000 A 
ATOM     25  C   UNL     1       0.888   8.764  21.779  0.00  0.00    +0.000 A 
ATOM     26  C   UNL     1       0.694  10.155  21.661  0.00  0.00    +0.000 A 
BRANCH  23  27
ATOM     27  C   UNL     1       2.186   7.780  18.369  0.00  0.00    +0.000 C 
ATOM     28  F   UNL     1       2.192   6.445  18.621  0.00  0.00    +0.000 F 
ATOM     29  F   UNL     1       1.477   7.932  17.212  0.00  0.00    +0.000 F 
ATOM     30  F   UNL     1       3.466   8.124  18.070  0.00  0.00    +0.000 F 
ENDBRANCH  23  27
BRANCH  26  31
ATOM     31  O   UNL     1       0.247  10.911  22.727  0.00  0.00    +0.000 OA
BRANCH  31  32
ATOM     32  C   UNL     1      -1.149  10.788  23.048  0.00  0.00    +0.000 C 
BRANCH  32  33
ATOM     33  C   UNL     1      -1.842  12.101  23.313  0.00  0.00    +0.000 A 
ATOM     34  C   UNL     1      -1.113  13.299  23.178  0.00  0.00    +0.000 A 
ATOM     35  C   UNL     1      -1.750  14.537  23.286  0.00  0.00    +0.000 A 
ATOM     36  C   UNL     1      -3.119  14.592  23.530  0.00  0.00    +0.000 A 
ATOM     37  C   UNL     1      -3.850  13.412  23.669  0.00  0.00    +0.000 A 
ATOM     38  C   UNL     1      -3.214  12.172  23.565  0.00  0.00    +0.000 A 
ENDBRANCH  32  33
ENDBRANCH  31  32
ENDBRANCH  26  31
ENDBRANCH   6  21
TORSDOF 9
ENDMDL
MODEL 3
REMARK VINA RESULT:      -7.6      1.676      2.196
REMARK  Name = 
REMARK  11 active torsions:
REMARK  status: ('A' for Active; 'I' for Inactive)
REMARK    1  A    between atoms: C_1  and  C_2
REMARK    2  A    between atoms: C_3  and  N_4
REMARK    3  A    between atoms: C_6  and  N_7
REMARK    4  A    between atoms: C_8  and  C_9
REMARK    5  A    between atoms: C_12  and  C_13
REMARK    6  A    between atoms: C_15  and  C_16
REMARK    7  A    between atoms: C_22  and  O_23
REMARK    8  A    between atoms: O_23  and  C_24
REMARK    9  A    between atoms: C_24  and  C_25
REMARK   10  A    between atoms: C_32  and  C_33
REMARK   11  A    between atoms: C_33  and  O_35
REMARK                            x       y       z     vdW  Elec       q    Type
REMARK                         _______ _______ _______ _____ _____    ______ ____
ROOT
ATOM      1  N   UNL     1      -0.157  12.976  19.659  0.00  0.00    +0.000 N 
ATOM      2  C   UNL     1       0.221  14.335  19.719  0.00  0.00    +0.000 A 
ATOM      3  C   UNL     1      -0.513  15.529  19.191  0.00  0.00    +0.000 C 
ATOM      4  C   UNL     1       1.481  14.418  20.275  0.00  0.00    +0.000 A 
ATOM      5  C   UNL     1       1.932  13.119  20.526  0.00  0.00    +0.000 A 
ATOM      6  C   UNL     1       0.955  12.206  20.143  0.00  0.00    +0.000 A 
ENDROOT
BRANCH   1  11
ATOM      7  C   UNL     1      -5.210  11.197  17.384  0.00  0.00    +0.000 C 
ATOM      8  C   UNL     1      -3.904  11.584  18.033  0.00  0.00    +0.000 A 
ATOM      9  C   UNL     1      -2.680  11.300  17.400  0.00  0.00    +0.000 A 
ATOM     10  C   UNL     1      -1.493  11.882  17.885  0.00  0.00    +0.000 A 
ATOM     11  C   UNL     1      -1.418  12.486  19.139  0.00  0.00    +0.000 A 
ATOM     12  C   UNL     1      -2.615  12.610  19.852  0.00  0.00    +0.000 A 
ATOM     13  C   UNL     1      -3.852  12.276  19.270  0.00  0.00    +0.000 A 
BRANCH   9  14
ATOM     14  N   UNL     1      -2.612  10.620  16.170  0.00  0.00    +0.000 N 
ATOM     15  H   UNL     1      -2.203   9.692  16.242  0.00  0.00    +0.000 HD
ATOM     16  H   UNL     1      -2.115  11.150  15.458  0.00  0.00    +0.000 HD
ENDBRANCH   9  14
BRANCH  13  17
ATOM     17  C   UNL     1      -5.063  12.684  20.048  0.00  0.00    +0.000 C 
ATOM     18  O   UNL     1      -5.543  11.989  20.928  0.00  0.00    +0.000 OA
BRANCH  17  19
ATOM     19  O   UNL     1      -5.509  13.931  19.789  0.00  0.00    +0.000 OA
ATOM     20  H   UNL     1      -5.789  14.089  18.868  0.00  0.00    +0.000 HD
ENDBRANCH  17  19
ENDBRANCH  13  17
ENDBRANCH   1  11
BRANCH   6  21
ATOM     21  C   UNL     1       1.081  10.721  20.317  0.00  0.00    +0.000 A 
ATOM     22  C   UNL     1       1.443   9.923  19.214  0.00  0.00    +0.000 A 
ATOM     23  C   UNL     1       1.728   8.552  19.350  0.00  0.00    +0.000 A 
ATOM     24  C   UNL     1       1.512   7.934  20.579  0.00  0.00    +0.000 A 
ATOM     25  C   UNL     1       1.022   8.669  21.650  0.00  0.00    +0.000 A 
ATOM     26  C   UNL     1       0.820  10.060  21.553  0.00  0.00    +0.000 A 
BRANCH  23  27
ATOM     27  C   UNL     1       2.307   7.743  18.218  0.00  0.00    +0.000 C 
ATOM     28  F   UNL     1       3.429   7.054  18.553  0.00  0.00    +0.000 F 
ATOM     29  F   UNL     1       1.420   6.807  17.768  0.00  0.00    +0.000 F 
ATOM     30  F   UNL     1       2.627   8.504  17.139  0.00  0.00    +0.000 F 
ENDBRANCH  23  27
BRANCH  26  31
ATOM     31  O   UNL     1       0.374  10.798  22.633  0.00  0.00    +0.000 OA
BRANCH  31  32
ATOM     32  C   UNL     1      -1.028  10.695  22.934  0.00  0.00    +0.000 C 
BRANCH  32  33
ATOM     33  C   UNL     1      -1.716  12.022  23.139  0.00  0.00    +0.000 A 
ATOM     34  C   UNL     1      -3.078  12.037  23.497  0.00  0.00    +0.000 A 
ATOM     35  C   UNL     1      -3.716  13.236  23.823  0.00  0.00    +0.000 A 
ATOM     36  C   UNL     1      -3.002  14.430  23.793  0.00  0.00    +0.000 A 
ATOM     37  C   UNL     1      -1.654  14.427  23.436  0.00  0.00    +0.000 A 
ATOM     38  C   UNL     1      -1.014  13.229  23.107  0.00  0.00    +0.000 A 
ENDBRANCH  32  33
ENDBRANCH  31  32
ENDBRANCH  26  31
ENDBRANCH   6  21
TORSDOF 9
ENDMDL
MODEL 4
REMARK VINA RESULT:      -6.6      2.677      5.464
REMARK  Name = 
REMARK  11 active torsions:
REMARK  status: ('A' for Active; 'I' for Inactive)
REMARK    1  A    between atoms: C_1  and  C_2
REMARK    2  A    between atoms: C_3  and  N_4
REMARK    3  A    between atoms: C_6  and  N_7
REMARK    4  A    between atoms: C_8  and  C_9
REMARK    5  A    between atoms: C_12  and  C_13
REMARK    6  A    between atoms: C_15  and  C_16
REMARK    7  A    between atoms: C_22  and  O_23
REMARK    8  A    between atoms: O_23  and  C_24
REMARK    9  A    between atoms: C_24  and  C_25
REMARK   10  A    between atoms: C_32  and  C_33
REMARK   11  A    between atoms: C_33  and  O_35
REMARK                            x       y       z     vdW  Elec       q    Type
REMARK                         _______ _______ _______ _____ _____    ______ ____
ROOT
ATOM      1  N   UNL     1       0.607  12.540  19.328  0.00  0.00    +0.000 N 
ATOM      2  C   UNL     1       1.527  13.606  19.427  0.00  0.00    +0.000 A 
ATOM      3  C   UNL     1       2.867  13.620  20.098  0.00  0.00    +0.000 C 
ATOM      4  C   UNL     1       0.954  14.734  18.878  0.00  0.00    +0.000 A 
ATOM      5  C   UNL     1      -0.343  14.411  18.472  0.00  0.00    +0.000 A 
ATOM      6  C   UNL     1      -0.595  13.071  18.750  0.00  0.00    +0.000 A 
ENDROOT
BRANCH   1  11
ATOM      7  C   UNL     1       1.364   7.032  21.051  0.00  0.00    +0.000 C 
ATOM      8  C   UNL     1       1.247   8.483  20.653  0.00  0.00    +0.000 A 
ATOM      9  C   UNL     1       1.644   8.906  19.371  0.00  0.00    +0.000 A 
ATOM     10  C   UNL     1       1.300  10.197  18.926  0.00  0.00    +0.000 A 
ATOM     11  C   UNL     1       0.847  11.188  19.794  0.00  0.00    +0.000 A 
ATOM     12  C   UNL     1       0.619  10.808  21.121  0.00  0.00    +0.000 A 
ATOM     13  C   UNL     1       0.701   9.462  21.522  0.00  0.00    +0.000 A 
BRANCH   9  14
ATOM     14  N   UNL     1       2.196   8.021  18.427  0.00  0.00    +0.000 N 
ATOM     15  H   UNL     1       3.203   7.913  18.514  0.00  0.00    +0.000 HD
ATOM     16  H   UNL     1       1.969   8.280  17.469  0.00  0.00    +0.000 HD
ENDBRANCH   9  14
BRANCH  13  17
ATOM     17  C   UNL     1       0.199   9.166  22.900  0.00  0.00    +0.000 C 
ATOM     18  O   UNL     1       0.767   9.560  23.905  0.00  0.00    +0.000 OA
BRANCH  17  19
ATOM     19  O   UNL     1      -0.995   8.538  22.944  0.00  0.00    +0.000 OA
ATOM     20  H   UNL     1      -1.011   7.649  22.545  0.00  0.00    +0.000 HD
ENDBRANCH  17  19
ENDBRANCH  13  17
ENDBRANCH   1  11
BRANCH   6  21
ATOM     21  C   UNL     1      -1.875  12.369  18.400  0.00  0.00    +0.000 A 
ATOM     22  C   UNL     1      -2.013  11.770  17.133  0.00  0.00    +0.000 A 
ATOM     23  C   UNL     1      -3.121  10.967  16.806  0.00  0.00    +0.000 A 
ATOM     24  C   UNL     1      -4.179  10.874  17.707  0.00  0.00    +0.000 A 
ATOM     25  C   UNL     1      -4.132  11.568  18.909  0.00  0.00    +0.000 A 
ATOM     26  C   UNL     1      -2.989  12.300  19.288  0.00  0.00    +0.000 A 
BRANCH  23  27
ATOM     27  C   UNL     1      -3.176  10.166  15.532  0.00  0.00    +0.000 C 
ATOM     28  F   UNL     1      -2.529  10.749  14.488  0.00  0.00    +0.000 F 
ATOM     29  F   UNL     1      -2.594   8.940  15.685  0.00  0.00    +0.000 F 
ATOM     30  F   UNL     1      -4.447   9.927  15.115  0.00  0.00    +0.000 F 
ENDBRANCH  23  27
BRANCH  26  31
ATOM     31  O   UNL     1      -2.925  12.954  20.504  0.00  0.00    +0.000 OA
BRANCH  31  32
ATOM     32  C   UNL     1      -4.050  13.786  20.834  0.00  0.00    +0.000 C 
BRANCH  32  33
ATOM     33  C   UNL     1      -4.752  13.400  22.112  0.00  0.00    +0.000 A 
ATOM     34  C   UNL     1      -6.149  13.218  22.098  0.00  0.00    +0.000 A 
ATOM     35  C   UNL     1      -6.816  12.735  23.224  0.00  0.00    +0.000 A 
ATOM     36  C   UNL     1      -6.099  12.429  24.377  0.00  0.00    +0.000 A 
ATOM     37  C   UNL     1      -4.716  12.608  24.403  0.00  0.00    +0.000 A 
ATOM     38  C   UNL     1      -4.046  13.095  23.278  0.00  0.00    +0.000 A 
ENDBRANCH  32  33
ENDBRANCH  31  32
ENDBRANCH  26  31
ENDBRANCH   6  21
TORSDOF 9
ENDMDL
MODEL 5
REMARK VINA RESULT:      -6.5      3.500      5.654
REMARK  Name = 
REMARK  11 active torsions:
REMARK  status: ('A' for Active; 'I' for Inactive)
REMARK    1  A    between atoms: C_1  and  C_2
REMARK    2  A    between atoms: C_3  and  N_4
REMARK    3  A    between atoms: C_6  and  N_7
REMARK    4  A    between atoms: C_8  and  C_9
REMARK    5  A    between atoms: C_12  and  C_13
REMARK    6  A    between atoms: C_15  and  C_16
REMARK    7  A    between atoms: C_22  and  O_23
REMARK    8  A    between atoms: O_23  and  C_24
REMARK    9  A    between atoms: C_24  and  C_25
REMARK   10  A    between atoms: C_32  and  C_33
REMARK   11  A    between atoms: C_33  and  O_35
REMARK                            x       y       z     vdW  Elec       q    Type
REMARK                         _______ _______ _______ _____ _____    ______ ____
ROOT
ATOM      1  N   UNL     1      -2.023  13.992  20.983  0.00  0.00    +0.000 N 
ATOM      2  C   UNL     1      -1.264  15.181  21.017  0.00  0.00    +0.000 A 
ATOM      3  C   UNL     1       0.220  15.335  21.147  0.00  0.00    +0.000 C 
ATOM      4  C   UNL     1      -2.130  16.255  21.016  0.00  0.00    +0.000 A 
ATOM      5  C   UNL     1      -3.437  15.762  21.030  0.00  0.00    +0.000 A 
ATOM      6  C   UNL     1      -3.408  14.371  21.026  0.00  0.00    +0.000 A 
ENDROOT
BRANCH   1  11
ATOM      7  C   UNL     1       0.422   8.709  21.043  0.00  0.00    +0.000 C 
ATOM      8  C   UNL     1      -0.292  10.038  20.995  0.00  0.00    +0.000 A 
ATOM      9  C   UNL     1      -0.799  10.620  22.172  0.00  0.00    +0.000 A 
ATOM     10  C   UNL     1      -1.233  11.959  22.157  0.00  0.00    +0.000 A 
ATOM     11  C   UNL     1      -1.469  12.652  20.970  0.00  0.00    +0.000 A 
ATOM     12  C   UNL     1      -1.128  11.999  19.780  0.00  0.00    +0.000 A 
ATOM     13  C   UNL     1      -0.446  10.769  19.789  0.00  0.00    +0.000 A 
BRANCH   9  14
ATOM     14  N   UNL     1      -0.700   9.986  23.424  0.00  0.00    +0.000 N 
ATOM     15  H   UNL     1      -1.517  10.124  24.014  0.00  0.00    +0.000 HD
ATOM     16  H   UNL     1       0.133  10.263  23.938  0.00  0.00    +0.000 HD
ENDBRANCH   9  14
BRANCH  13  17
ATOM     17  C   UNL     1       0.070  10.306  18.463  0.00  0.00    +0.000 C 
ATOM     18  O   UNL     1      -0.636   9.736  17.647  0.00  0.00    +0.000 OA
BRANCH  17  19
ATOM     19  O   UNL     1       1.339  10.675  18.189  0.00  0.00    +0.000 OA
ATOM     20  H   UNL     1       1.750  11.266  18.846  0.00  0.00    +0.000 HD
ENDBRANCH  17  19
ENDBRANCH  13  17
ENDBRANCH   1  11
BRANCH   6  21
ATOM     21  C   UNL     1      -4.633  13.507  20.988  0.00  0.00    +0.000 A 
ATOM     22  C   UNL     1      -4.927  12.772  19.822  0.00  0.00    +0.000 A 
ATOM     23  C   UNL     1      -5.970  11.829  19.780  0.00  0.00    +0.000 A 
ATOM     24  C   UNL     1      -6.825  11.716  20.873  0.00  0.00    +0.000 A 
ATOM     25  C   UNL     1      -6.643  12.527  21.985  0.00  0.00    +0.000 A 
ATOM     26  C   UNL     1      -5.549  13.410  22.077  0.00  0.00    +0.000 A 
BRANCH  23  27
ATOM     27  C   UNL     1      -6.159  10.903  18.607  0.00  0.00    +0.000 C 
ATOM     28  F   UNL     1      -5.048  10.754  17.840  0.00  0.00    +0.000 F 
ATOM     29  F   UNL     1      -6.497   9.643  19.013  0.00  0.00    +0.000 F 
ATOM     30  F   UNL     1      -7.154  11.306  17.774  0.00  0.00    +0.000 F 
ENDBRANCH  23  27
BRANCH  26  31
ATOM     31  O   UNL     1      -5.344  14.185  23.203  0.00  0.00    +0.000 OA
BRANCH  31  32
ATOM     32  C   UNL     1      -4.312  13.739  24.098  0.00  0.00    +0.000 C 
BRANCH  32  33
ATOM     33  C   UNL     1      -3.386  14.833  24.571  0.00  0.00    +0.000 A 
ATOM     34  C   UNL     1      -1.997  14.600  24.576  0.00  0.00    +0.000 A 
ATOM     35  C   UNL     1      -1.103  15.627  24.880  0.00  0.00    +0.000 A 
ATOM     36  C   UNL     1      -1.584  16.897  25.184  0.00  0.00    +0.000 A 
ATOM     37  C   UNL     1      -2.958  17.139  25.185  0.00  0.00    +0.000 A 
ATOM     38  C   UNL     1      -3.856  16.111  24.884  0.00  0.00    +0.000 A 
ENDBRANCH  32  33
ENDBRANCH  31  32
ENDBRANCH  26  31
ENDBRANCH   6  21
TORSDOF 9
ENDMDL
MODEL 6
REMARK VINA RESULT:      -6.5      2.808      5.919
REMARK  Name = 
REMARK  11 active torsions:
REMARK  status: ('A' for Active; 'I' for Inactive)
REMARK    1  A    between atoms: C_1  and  C_2
REMARK    2  A    between atoms: C_3  and  N_4
REMARK    3  A    between atoms: C_6  and  N_7
REMARK    4  A    between atoms: C_8  and  C_9
REMARK    5  A    between atoms: C_12  and  C_13
REMARK    6  A    between atoms: C_15  and  C_16
REMARK    7  A    between atoms: C_22  and  O_23
REMARK    8  A    between atoms: O_23  and  C_24
REMARK    9  A    between atoms: C_24  and  C_25
REMARK   10  A    between atoms: C_32  and  C_33
REMARK   11  A    between atoms: C_33  and  O_35
REMARK                            x       y       z     vdW  Elec       q    Type
REMARK                         _______ _______ _______ _____ _____    ______ ____
ROOT
ATOM      1  N   UNL     1      -3.877  12.431  19.408  0.00  0.00    +0.000 N 
ATOM      2  C   UNL     1      -4.873  12.210  18.434  0.00  0.00    +0.000 A 
ATOM      3  C   UNL     1      -6.328  12.564  18.492  0.00  0.00    +0.000 C 
ATOM      4  C   UNL     1      -4.320  11.491  17.394  0.00  0.00    +0.000 A 
ATOM      5  C   UNL     1      -2.990  11.208  17.719  0.00  0.00    +0.000 A 
ATOM      6  C   UNL     1      -2.689  11.759  18.961  0.00  0.00    +0.000 A 
ENDROOT
BRANCH   1  11
ATOM      7  C   UNL     1      -4.407  15.312  24.439  0.00  0.00    +0.000 C 
ATOM      8  C   UNL     1      -4.362  14.583  23.118  0.00  0.00    +0.000 A 
ATOM      9  C   UNL     1      -3.809  15.200  21.980  0.00  0.00    +0.000 A 
ATOM     10  C   UNL     1      -3.544  14.431  20.830  0.00  0.00    +0.000 A 
ATOM     11  C   UNL     1      -4.074  13.155  20.649  0.00  0.00    +0.000 A 
ATOM     12  C   UNL     1      -4.781  12.607  21.725  0.00  0.00    +0.000 A 
ATOM     13  C   UNL     1      -4.828  13.251  22.975  0.00  0.00    +0.000 A 
BRANCH   9  14
ATOM     14  N   UNL     1      -3.315  16.516  22.007  0.00  0.00    +0.000 N 
ATOM     15  H   UNL     1      -4.032  17.215  22.183  0.00  0.00    +0.000 HD
ATOM     16  H   UNL     1      -2.810  16.762  21.158  0.00  0.00    +0.000 HD
ENDBRANCH   9  14
BRANCH  13  17
ATOM     17  C   UNL     1      -5.406  12.446  24.096  0.00  0.00    +0.000 C 
ATOM     18  O   UNL     1      -6.605  12.248  24.212  0.00  0.00    +0.000 OA
BRANCH  17  19
ATOM     19  O   UNL     1      -4.495  11.853  24.896  0.00  0.00    +0.000 OA
ATOM     20  H   UNL     1      -4.509  12.143  25.826  0.00  0.00    +0.000 HD
ENDBRANCH  17  19
ENDBRANCH  13  17
ENDBRANCH   1  11
BRANCH   6  21
ATOM     21  C   UNL     1      -1.334  11.693  19.601  0.00  0.00    +0.000 A 
ATOM     22  C   UNL     1      -0.978  10.557  20.355  0.00  0.00    +0.000 A 
ATOM     23  C   UNL     1       0.328  10.370  20.845  0.00  0.00    +0.000 A 
ATOM     24  C   UNL     1       1.258  11.396  20.704  0.00  0.00    +0.000 A 
ATOM     25  C   UNL     1       0.894  12.585  20.086  0.00  0.00    +0.000 A 
ATOM     26  C   UNL     1      -0.381  12.750  19.510  0.00  0.00    +0.000 A 
BRANCH  23  27
ATOM     27  C   UNL     1       0.762   9.072  21.475  0.00  0.00    +0.000 C 
ATOM     28  F   UNL     1      -0.263   8.222  21.744  0.00  0.00    +0.000 F 
ATOM     29  F   UNL     1       1.610   8.379  20.658  0.00  0.00    +0.000 F 
ATOM     30  F   UNL     1       1.433   9.253  22.642  0.00  0.00    +0.000 F 
ENDBRANCH  23  27
BRANCH  26  31
ATOM     31  O   UNL     1      -0.728  13.918  18.856  0.00  0.00    +0.000 OA
BRANCH  31  32
ATOM     32  C   UNL     1      -0.336  15.143  19.499  0.00  0.00    +0.000 C 
BRANCH  32  33
ATOM     33  C   UNL     1       0.208  16.189  18.559  0.00  0.00    +0.000 A 
ATOM     34  C   UNL     1      -0.679  17.118  17.980  0.00  0.00    +0.000 A 
ATOM     35  C   UNL     1      -0.199  18.179  17.212  0.00  0.00    +0.000 A 
ATOM     36  C   UNL     1       1.170  18.324  17.010  0.00  0.00    +0.000 A 
ATOM     37  C   UNL     1       2.058  17.409  17.575  0.00  0.00    +0.000 A 
ATOM     38  C   UNL     1       1.579  16.344  18.343  0.00  0.00    +0.000 A 
ENDBRANCH  32  33
ENDBRANCH  31  32
ENDBRANCH  26  31
ENDBRANCH   6  21
TORSDOF 9
ENDMDL
MODEL 7
REMARK VINA RESULT:      -6.4      2.800      5.903
REMARK  Name = 
REMARK  11 active torsions:
REMARK  status: ('A' for Active; 'I' for Inactive)
REMARK    1  A    between atoms: C_1  and  C_2
REMARK    2  A    between atoms: C_3  and  N_4
REMARK    3  A    between atoms: C_6  and  N_7
REMARK    4  A    between atoms: C_8  and  C_9
REMARK    5  A    between atoms: C_12  and  C_13
REMARK    6  A    between atoms: C_15  and  C_16
REMARK    7  A    between atoms: C_22  and  O_23
REMARK    8  A    between atoms: O_23  and  C_24
REMARK    9  A    between atoms: C_24  and  C_25
REMARK   10  A    between atoms: C_32  and  C_33
REMARK   11  A    between atoms: C_33  and  O_35
REMARK                            x       y       z     vdW  Elec       q    Type
REMARK                         _______ _______ _______ _____ _____    ______ ____
ROOT
ATOM      1  N   UNL     1      -3.884  12.518  19.554  0.00  0.00    +0.000 N 
ATOM      2  C   UNL     1      -4.897  12.281  18.600  0.00  0.00    +0.000 A 
ATOM      3  C   UNL     1      -6.350  12.637  18.677  0.00  0.00    +0.000 C 
ATOM      4  C   UNL     1      -4.362  11.543  17.565  0.00  0.00    +0.000 A 
ATOM      5  C   UNL     1      -3.027  11.265  17.871  0.00  0.00    +0.000 A 
ATOM      6  C   UNL     1      -2.704  11.837  19.098  0.00  0.00    +0.000 A 
ENDROOT
BRANCH   1  11
ATOM      7  C   UNL     1      -4.324  15.495  24.537  0.00  0.00    +0.000 C 
ATOM      8  C   UNL     1      -4.303  14.738  23.231  0.00  0.00    +0.000 A 
ATOM      9  C   UNL     1      -3.806  15.344  22.062  0.00  0.00    +0.000 A 
ATOM     10  C   UNL     1      -3.558  14.558  20.920  0.00  0.00    +0.000 A 
ATOM     11  C   UNL     1      -4.059  13.264  20.785  0.00  0.00    +0.000 A 
ATOM     12  C   UNL     1      -4.714  12.721  21.896  0.00  0.00    +0.000 A 
ATOM     13  C   UNL     1      -4.737  13.392  23.133  0.00  0.00    +0.000 A 
BRANCH   9  14
ATOM     14  N   UNL     1      -3.347  16.674  22.044  0.00  0.00    +0.000 N 
ATOM     15  H   UNL     1      -2.512  16.822  22.604  0.00  0.00    +0.000 HD
ATOM     16  H   UNL     1      -4.063  17.338  22.329  0.00  0.00    +0.000 HD
ENDBRANCH   9  14
BRANCH  13  17
ATOM     17  C   UNL     1      -5.254  12.596  24.290  0.00  0.00    +0.000 C 
ATOM     18  O   UNL     1      -6.366  12.095  24.296  0.00  0.00    +0.000 OA
BRANCH  17  19
ATOM     19  O   UNL     1      -4.354  12.372  25.270  0.00  0.00    +0.000 OA
ATOM     20  H   UNL     1      -4.032  11.454  25.336  0.00  0.00    +0.000 HD
ENDBRANCH  17  19
ENDBRANCH  13  17
ENDBRANCH   1  11
BRANCH   6  21
ATOM     21  C   UNL     1      -1.338  11.781  19.715  0.00  0.00    +0.000 A 
ATOM     22  C   UNL     1      -0.956  10.643  20.452  0.00  0.00    +0.000 A 
ATOM     23  C   UNL     1       0.359  10.466  20.919  0.00  0.00    +0.000 A 
ATOM     24  C   UNL     1       1.275  11.504  20.774  0.00  0.00    +0.000 A 
ATOM     25  C   UNL     1       0.887  12.695  20.174  0.00  0.00    +0.000 A 
ATOM     26  C   UNL     1      -0.400  12.851  19.619  0.00  0.00    +0.000 A 
BRANCH  23  27
ATOM     27  C   UNL     1       0.819   9.167  21.529  0.00  0.00    +0.000 C 
ATOM     28  F   UNL     1       1.535   9.321  22.674  0.00  0.00    +0.000 F 
ATOM     29  F   UNL     1      -0.238   8.368  21.861  0.00  0.00    +0.000 F 
ATOM     30  F   UNL     1       1.591   8.434  20.685  0.00  0.00    +0.000 F 
ENDBRANCH  23  27
BRANCH  26  31
ATOM     31  O   UNL     1      -0.770  14.020  18.983  0.00  0.00    +0.000 OA
BRANCH  31  32
ATOM     32  C   UNL     1      -0.443  15.242  19.665  0.00  0.00    +0.000 C 
BRANCH  32  33
ATOM     33  C   UNL     1       0.103  16.326  18.768  0.00  0.00    +0.000 A 
ATOM     34  C   UNL     1       1.488  16.374  18.520  0.00  0.00    +0.000 A 
ATOM     35  C   UNL     1       2.015  17.278  17.595  0.00  0.00    +0.000 A 
ATOM     36  C   UNL     1       1.166  18.142  16.910  0.00  0.00    +0.000 A 
ATOM     37  C   UNL     1      -0.208  18.105  17.151  0.00  0.00    +0.000 A 
ATOM     38  C   UNL     1      -0.737  17.204  18.079  0.00  0.00    +0.000 A 
ENDBRANCH  32  33
ENDBRANCH  31  32
ENDBRANCH  26  31
ENDBRANCH   6  21
TORSDOF 9
ENDMDL
MODEL 8
REMARK VINA RESULT:      -6.3      3.172      6.451
REMARK  Name = 
REMARK  11 active torsions:
REMARK  status: ('A' for Active; 'I' for Inactive)
REMARK    1  A    between atoms: C_1  and  C_2
REMARK    2  A    between atoms: C_3  and  N_4
REMARK    3  A    between atoms: C_6  and  N_7
REMARK    4  A    between atoms: C_8  and  C_9
REMARK    5  A    between atoms: C_12  and  C_13
REMARK    6  A    between atoms: C_15  and  C_16
REMARK    7  A    between atoms: C_22  and  O_23
REMARK    8  A    between atoms: O_23  and  C_24
REMARK    9  A    between atoms: C_24  and  C_25
REMARK   10  A    between atoms: C_32  and  C_33
REMARK   11  A    between atoms: C_33  and  O_35
REMARK                            x       y       z     vdW  Elec       q    Type
REMARK                         _______ _______ _______ _____ _____    ______ ____
ROOT
ATOM      1  N   UNL     1      -3.681  11.899  18.946  0.00  0.00    +0.000 N 
ATOM      2  C   UNL     1      -4.451  11.097  18.077  0.00  0.00    +0.000 A 
ATOM      3  C   UNL     1      -5.913  10.779  18.154  0.00  0.00    +0.000 C 
ATOM      4  C   UNL     1      -3.610  10.527  17.143  0.00  0.00    +0.000 A 
ATOM      5  C   UNL     1      -2.302  10.919  17.438  0.00  0.00    +0.000 A 
ATOM      6  C   UNL     1      -2.308  11.752  18.553  0.00  0.00    +0.000 A 
ENDROOT
BRANCH   1  11
ATOM      7  C   UNL     1      -5.644  15.173  23.340  0.00  0.00    +0.000 C 
ATOM      8  C   UNL     1      -5.199  14.258  22.226  0.00  0.00    +0.000 A 
ATOM      9  C   UNL     1      -5.620  14.486  20.903  0.00  0.00    +0.000 A 
ATOM     10  C   UNL     1      -5.006  13.788  19.845  0.00  0.00    +0.000 A 
ATOM     11  C   UNL     1      -4.210  12.664  20.058  0.00  0.00    +0.000 A 
ATOM     12  C   UNL     1      -3.934  12.329  21.389  0.00  0.00    +0.000 A 
ATOM     13  C   UNL     1      -4.318  13.169  22.450  0.00  0.00    +0.000 A 
BRANCH   9  14
ATOM     14  N   UNL     1      -6.491  15.538  20.564  0.00  0.00    +0.000 N 
ATOM     15  H   UNL     1      -7.412  15.454  20.988  0.00  0.00    +0.000 HD
ATOM     16  H   UNL     1      -6.596  15.650  19.558  0.00  0.00    +0.000 HD
ENDBRANCH   9  14
BRANCH  13  17
ATOM     17  C   UNL     1      -3.752  12.818  23.790  0.00  0.00    +0.000 C 
ATOM     18  O   UNL     1      -4.325  12.077  24.571  0.00  0.00    +0.000 OA
BRANCH  17  19
ATOM     19  O   UNL     1      -2.506  13.283  24.017  0.00  0.00    +0.000 OA
ATOM     20  H   UNL     1      -1.805  12.605  24.026  0.00  0.00    +0.000 HD
ENDBRANCH  17  19
ENDBRANCH  13  17
ENDBRANCH   1  11
BRANCH   6  21
ATOM     21  C   UNL     1      -1.080  12.401  19.121  0.00  0.00    +0.000 A 
ATOM     22  C   UNL     1      -0.684  13.668  18.648  0.00  0.00    +0.000 A 
ATOM     23  C   UNL     1       0.362  14.392  19.248  0.00  0.00    +0.000 A 
ATOM     24  C   UNL     1       1.120  13.786  20.246  0.00  0.00    +0.000 A 
ATOM     25  C   UNL     1       0.840  12.483  20.637  0.00  0.00    +0.000 A 
ATOM     26  C   UNL     1      -0.262  11.780  20.110  0.00  0.00    +0.000 A 
BRANCH  23  27
ATOM     27  C   UNL     1       0.655  15.823  18.877  0.00  0.00    +0.000 C 
ATOM     28  F   UNL     1      -0.334  16.417  18.158  0.00  0.00    +0.000 F 
ATOM     29  F   UNL     1       0.824  16.603  19.985  0.00  0.00    +0.000 F 
ATOM     30  F   UNL     1       1.795  15.954  18.149  0.00  0.00    +0.000 F 
ENDBRANCH  23  27
BRANCH  26  31
ATOM     31  O   UNL     1      -0.565  10.500  20.532  0.00  0.00    +0.000 OA
BRANCH  31  32
ATOM     32  C   UNL     1       0.519   9.747  21.099  0.00  0.00    +0.000 C 
BRANCH  32  33
ATOM     33  C   UNL     1       1.292   8.924  20.098  0.00  0.00    +0.000 A 
ATOM     34  C   UNL     1       1.805   7.673  20.492  0.00  0.00    +0.000 A 
ATOM     35  C   UNL     1       2.410   6.826  19.562  0.00  0.00    +0.000 A 
ATOM     36  C   UNL     1       2.512   7.219  18.231  0.00  0.00    +0.000 A 
ATOM     37  C   UNL     1       2.010   8.457  17.830  0.00  0.00    +0.000 A 
ATOM     38  C   UNL     1       1.406   9.308  18.760  0.00  0.00    +0.000 A 
ENDBRANCH  32  33
ENDBRANCH  31  32
ENDBRANCH  26  31
ENDBRANCH   6  21
TORSDOF 9
ENDMDL
MODEL 9
REMARK VINA RESULT:      -6.3      3.282      6.481
REMARK  Name = 
REMARK  11 active torsions:
REMARK  status: ('A' for Active; 'I' for Inactive)
REMARK    1  A    between atoms: C_1  and  C_2
REMARK    2  A    between atoms: C_3  and  N_4
REMARK    3  A    between atoms: C_6  and  N_7
REMARK    4  A    between atoms: C_8  and  C_9
REMARK    5  A    between atoms: C_12  and  C_13
REMARK    6  A    between atoms: C_15  and  C_16
REMARK    7  A    between atoms: C_22  and  O_23
REMARK    8  A    between atoms: O_23  and  C_24
REMARK    9  A    between atoms: C_24  and  C_25
REMARK   10  A    between atoms: C_32  and  C_33
REMARK   11  A    between atoms: C_33  and  O_35
REMARK                            x       y       z     vdW  Elec       q    Type
REMARK                         _______ _______ _______ _____ _____    ______ ____
ROOT
ATOM      1  N   UNL     1      -1.292  13.920  21.397  0.00  0.00    +0.000 N 
ATOM      2  C   UNL     1      -1.384  14.136  22.789  0.00  0.00    +0.000 A 
ATOM      3  C   UNL     1      -0.767  15.232  23.604  0.00  0.00    +0.000 C 
ATOM      4  C   UNL     1      -2.078  13.085  23.352  0.00  0.00    +0.000 A 
ATOM      5  C   UNL     1      -2.387  12.175  22.339  0.00  0.00    +0.000 A 
ATOM      6  C   UNL     1      -1.903  12.650  21.124  0.00  0.00    +0.000 A 
ENDROOT
BRANCH   1  11
ATOM      7  C   UNL     1       1.183  17.398  17.439  0.00  0.00    +0.000 C 
ATOM      8  C   UNL     1       0.596  16.539  18.532  0.00  0.00    +0.000 A 
ATOM      9  C   UNL     1      -0.678  16.824  19.057  0.00  0.00    +0.000 A 
ATOM     10  C   UNL     1      -1.318  15.882  19.886  0.00  0.00    +0.000 A 
ATOM     11  C   UNL     1      -0.636  14.810  20.459  0.00  0.00    +0.000 A 
ATOM     12  C   UNL     1       0.696  14.629  20.069  0.00  0.00    +0.000 A 
ATOM     13  C   UNL     1       1.270  15.400  19.041  0.00  0.00    +0.000 A 
BRANCH   9  14
ATOM     14  N   UNL     1      -1.438  17.926  18.625  0.00  0.00    +0.000 N 
ATOM     15  H   UNL     1      -2.035  18.317  19.350  0.00  0.00    +0.000 HD
ATOM     16  H   UNL     1      -2.003  17.715  17.806  0.00  0.00    +0.000 HD
ENDBRANCH   9  14
BRANCH  13  17
ATOM     17  C   UNL     1       2.611  14.942  18.562  0.00  0.00    +0.000 C 
ATOM     18  O   UNL     1       3.655  15.392  19.003  0.00  0.00    +0.000 OA
BRANCH  17  19
ATOM     19  O   UNL     1       2.579  13.908  17.695  0.00  0.00    +0.000 OA
ATOM     20  H   UNL     1       1.698  13.517  17.547  0.00  0.00    +0.000 HD
ENDBRANCH  17  19
ENDBRANCH  13  17
ENDBRANCH   1  11
BRANCH   6  21
ATOM     21  C   UNL     1      -2.101  11.951  19.811  0.00  0.00    +0.000 A 
ATOM     22  C   UNL     1      -3.382  11.929  19.224  0.00  0.00    +0.000 A 
ATOM     23  C   UNL     1      -3.596  11.427  17.927  0.00  0.00    +0.000 A 
ATOM     24  C   UNL     1      -2.544  10.809  17.257  0.00  0.00    +0.000 A 
ATOM     25  C   UNL     1      -1.303  10.692  17.869  0.00  0.00    +0.000 A 
ATOM     26  C   UNL     1      -1.050  11.271  19.129  0.00  0.00    +0.000 A 
BRANCH  23  27
ATOM     27  C   UNL     1      -4.919  11.584  17.222  0.00  0.00    +0.000 C 
ATOM     28  F   UNL     1      -5.389  12.859  17.213  0.00  0.00    +0.000 F 
ATOM     29  F   UNL     1      -4.833  11.214  15.910  0.00  0.00    +0.000 F 
ATOM     30  F   UNL     1      -5.898  10.814  17.764  0.00  0.00    +0.000 F 
ENDBRANCH  23  27
BRANCH  26  31
ATOM     31  O   UNL     1       0.198  11.193  19.717  0.00  0.00    +0.000 OA
BRANCH  31  32
ATOM     32  C   UNL     1       1.270  10.746  18.870  0.00  0.00    +0.000 C 
BRANCH  32  33
ATOM     33  C   UNL     1       1.604   9.282  19.013  0.00  0.00    +0.000 A 
ATOM     34  C   UNL     1       2.220   8.613  17.938  0.00  0.00    +0.000 A 
ATOM     35  C   UNL     1       2.663   7.296  18.078  0.00  0.00    +0.000 A 
ATOM     36  C   UNL     1       2.494   6.634  19.290  0.00  0.00    +0.000 A 
ATOM     37  C   UNL     1       1.882   7.286  20.361  0.00  0.00    +0.000 A 
ATOM     38  C   UNL     1       1.435   8.603  20.222  0.00  0.00    +0.000 A 
ENDBRANCH  32  33
ENDBRANCH  31  32
ENDBRANCH  26  31
ENDBRANCH   6  21
TORSDOF 9
ENDMDL
