MODEL 1
REMARK VINA RESULT:      -8.4      0.000      0.000
REMARK  Name = 
REMARK  7 active torsions:
REMARK  status: ('A' for Active; 'I' for Inactive)
REMARK    1  A    between atoms: C_1  and  O_2
REMARK    2  A    between atoms: O_2  and  C_3
REMARK    3  A    between atoms: C_6  and  N_7
REMARK    4  A    between atoms: C_8  and  C_10
REMARK    5  A    between atoms: C_10  and  N_17
REMARK    6  A    between atoms: C_11  and  C_12
REMARK    7  A    between atoms: C_18  and  C_20
REMARK                            x       y       z     vdW  Elec       q    Type
REMARK                         _______ _______ _______ _____ _____    ______ ____
ROOT
ATOM      1  C   UNL     1       4.187   4.246  17.316  0.00  0.00    +0.000 C 
ATOM      2  C   UNL     1       3.720   3.063  17.767  0.00  0.00    +0.000 C 
ENDROOT
BRANCH   2   3
ATOM      3  C   UNL     1       2.927   2.845  18.927  0.00  0.00    +0.000 A 
ATOM      4  C   UNL     1       1.555   2.935  19.088  0.00  0.00    +0.000 A 
ATOM      5  C   UNL     1       1.148   2.805  20.450  0.00  0.00    +0.000 A 
ATOM      6  C   UNL     1       2.220   2.612  21.290  0.00  0.00    +0.000 A 
ATOM      7  S   UNL     1       3.702   2.573  20.439  0.00  0.00    +0.000 S 
ENDBRANCH   2   3
BRANCH   1   9
ATOM      8  N   UNL     1       2.743   6.128  17.910  0.00  0.00    +0.000 N 
ATOM      9  C   UNL     1       3.993   5.538  18.104  0.00  0.00    +0.000 C 
ATOM     10  O   UNL     1       4.894   6.001  18.793  0.00  0.00    +0.000 OA
ATOM     11  H   UNL     1       2.085   5.648  17.314  0.00  0.00    +0.000 HD
BRANCH   8  15
ATOM     12  C   UNL     1       1.276   9.704  19.671  0.00  0.00    +0.000 A 
ATOM     13  C   UNL     1       1.444   8.559  20.448  0.00  0.00    +0.000 A 
ATOM     14  C   UNL     1       1.943   7.379  19.892  0.00  0.00    +0.000 A 
ATOM     15  C   UNL     1       2.262   7.306  18.535  0.00  0.00    +0.000 A 
ATOM     16  C   UNL     1       2.069   8.452  17.748  0.00  0.00    +0.000 A 
ATOM     17  C   UNL     1       1.585   9.646  18.312  0.00  0.00    +0.000 A 
BRANCH  12  19
ATOM     18  C   UNL     1      -0.290  10.499  21.251  0.00  0.00    +0.000 C 
ATOM     19  O   UNL     1       0.763  10.776  20.337  0.00  0.00    +0.000 OA
ENDBRANCH  12  19
ENDBRANCH   8  15
ENDBRANCH   1   9
BRANCH   1  20
ATOM     20  N   UNL     1       4.903   4.349  16.128  0.00  0.00    +0.000 N 
ATOM     21  C   UNL     1       6.281   4.409  15.969  0.00  0.00    +0.000 C 
ATOM     22  O   UNL     1       7.095   4.354  16.885  0.00  0.00    +0.000 OA
ATOM     23  H   UNL     1       4.373   4.355  15.262  0.00  0.00    +0.000 HD
BRANCH  21  24
ATOM     24  C   UNL     1       6.691   4.478  14.582  0.00  0.00    +0.000 A 
ATOM     25  C   UNL     1       6.224   3.809  13.467  0.00  0.00    +0.000 A 
ATOM     26  C   UNL     1       6.975   4.282  12.366  0.00  0.00    +0.000 A 
ATOM     27  C   UNL     1       7.857   5.205  12.874  0.00  0.00    +0.000 A 
ATOM     28  O   UNL     1       7.692   5.341  14.216  0.00  0.00    +0.000 OA
ENDBRANCH  21  24
ENDBRANCH   1  20
TORSDOF 6
ENDMDL
MODEL 2
REMARK VINA RESULT:      -8.4      0.483      1.068
REMARK  Name = 
REMARK  7 active torsions:
REMARK  status: ('A' for Active; 'I' for Inactive)
REMARK    1  A    between atoms: C_1  and  O_2
REMARK    2  A    between atoms: O_2  and  C_3
REMARK    3  A    between atoms: C_6  and  N_7
REMARK    4  A    between atoms: C_8  and  C_10
REMARK    5  A    between atoms: C_10  and  N_17
REMARK    6  A    between atoms: C_11  and  C_12
REMARK    7  A    between atoms: C_18  and  C_20
REMARK                            x       y       z     vdW  Elec       q    Type
REMARK                         _______ _______ _______ _____ _____    ______ ____
ROOT
ATOM      1  C   UNL     1       4.203   4.250  17.169  0.00  0.00    +0.000 C 
ATOM      2  C   UNL     1       3.741   3.072  17.638  0.00  0.00    +0.000 C 
ENDROOT
BRANCH   2   3
ATOM      3  C   UNL     1       2.951   2.867  18.803  0.00  0.00    +0.000 A 
ATOM      4  C   UNL     1       1.579   2.946  18.964  0.00  0.00    +0.000 A 
ATOM      5  C   UNL     1       1.174   2.837  20.328  0.00  0.00    +0.000 A 
ATOM      6  C   UNL     1       2.249   2.671  21.170  0.00  0.00    +0.000 A 
ATOM      7  S   UNL     1       3.730   2.631  20.319  0.00  0.00    +0.000 S 
ENDBRANCH   2   3
BRANCH   1   9
ATOM      8  N   UNL     1       2.706   6.056  17.860  0.00  0.00    +0.000 N 
ATOM      9  C   UNL     1       4.005   5.553  17.939  0.00  0.00    +0.000 C 
ATOM     10  O   UNL     1       4.939   6.093  18.518  0.00  0.00    +0.000 OA
ATOM     11  H   UNL     1       2.023   5.516  17.348  0.00  0.00    +0.000 HD
BRANCH   8  15
ATOM     12  C   UNL     1       1.264   9.498  19.890  0.00  0.00    +0.000 A 
ATOM     13  C   UNL     1       1.530   9.552  18.523  0.00  0.00    +0.000 A 
ATOM     14  C   UNL     1       1.986   8.425  17.833  0.00  0.00    +0.000 A 
ATOM     15  C   UNL     1       2.215   7.221  18.500  0.00  0.00    +0.000 A 
ATOM     16  C   UNL     1       1.971   7.174  19.882  0.00  0.00    +0.000 A 
ATOM     17  C   UNL     1       1.492   8.303  20.573  0.00  0.00    +0.000 A 
BRANCH  12  19
ATOM     18  C   UNL     1       0.918  11.816  19.595  0.00  0.00    +0.000 C 
ATOM     19  O   UNL     1       0.843  10.672  20.437  0.00  0.00    +0.000 OA
ENDBRANCH  12  19
ENDBRANCH   8  15
ENDBRANCH   1   9
BRANCH   1  20
ATOM     20  N   UNL     1       4.916   4.339  15.978  0.00  0.00    +0.000 N 
ATOM     21  C   UNL     1       6.293   4.379  15.815  0.00  0.00    +0.000 C 
ATOM     22  O   UNL     1       7.110   4.315  16.727  0.00  0.00    +0.000 OA
ATOM     23  H   UNL     1       4.382   4.349  15.114  0.00  0.00    +0.000 HD
BRANCH  21  24
ATOM     24  C   UNL     1       6.700   4.437  14.426  0.00  0.00    +0.000 A 
ATOM     25  C   UNL     1       6.249   3.739  13.322  0.00  0.00    +0.000 A 
ATOM     26  C   UNL     1       6.986   4.214  12.212  0.00  0.00    +0.000 A 
ATOM     27  C   UNL     1       7.844   5.168  12.704  0.00  0.00    +0.000 A 
ATOM     28  O   UNL     1       7.677   5.320  14.044  0.00  0.00    +0.000 OA
ENDBRANCH  21  24
ENDBRANCH   1  20
TORSDOF 6
ENDMDL
MODEL 3
REMARK VINA RESULT:      -7.7      0.887      1.489
REMARK  Name = 
REMARK  7 active torsions:
REMARK  status: ('A' for Active; 'I' for Inactive)
REMARK    1  A    between atoms: C_1  and  O_2
REMARK    2  A    between atoms: O_2  and  C_3
REMARK    3  A    between atoms: C_6  and  N_7
REMARK    4  A    between atoms: C_8  and  C_10
REMARK    5  A    between atoms: C_10  and  N_17
REMARK    6  A    between atoms: C_11  and  C_12
REMARK    7  A    between atoms: C_18  and  C_20
REMARK                            x       y       z     vdW  Elec       q    Type
REMARK                         _______ _______ _______ _____ _____    ______ ____
ROOT
ATOM      1  C   UNL     1       4.293   4.284  17.165  0.00  0.00    +0.000 C 
ATOM      2  C   UNL     1       3.919   3.138  17.771  0.00  0.00    +0.000 C 
ENDROOT
BRANCH   2   3
ATOM      3  C   UNL     1       3.221   3.011  19.003  0.00  0.00    +0.000 A 
ATOM      4  C   UNL     1       3.716   2.867  20.288  0.00  0.00    +0.000 A 
ATOM      5  C   UNL     1       2.694   2.601  21.248  0.00  0.00    +0.000 A 
ATOM      6  C   UNL     1       1.447   2.557  20.671  0.00  0.00    +0.000 A 
ATOM      7  S   UNL     1       1.508   2.849  18.988  0.00  0.00    +0.000 S 
ENDBRANCH   2   3
BRANCH   1   9
ATOM      8  N   UNL     1       2.750   6.039  17.884  0.00  0.00    +0.000 N 
ATOM      9  C   UNL     1       4.088   5.644  17.825  0.00  0.00    +0.000 C 
ATOM     10  O   UNL     1       5.040   6.311  18.209  0.00  0.00    +0.000 OA
ATOM     11  H   UNL     1       2.055   5.399  17.530  0.00  0.00    +0.000 HD
BRANCH   8  15
ATOM     12  C   UNL     1       1.281   9.556  19.760  0.00  0.00    +0.000 A 
ATOM     13  C   UNL     1       1.543   9.551  18.390  0.00  0.00    +0.000 A 
ATOM     14  C   UNL     1       2.008   8.398  17.752  0.00  0.00    +0.000 A 
ATOM     15  C   UNL     1       2.250   7.228  18.472  0.00  0.00    +0.000 A 
ATOM     16  C   UNL     1       2.011   7.242  19.856  0.00  0.00    +0.000 A 
ATOM     17  C   UNL     1       1.523   8.397  20.495  0.00  0.00    +0.000 A 
BRANCH  12  19
ATOM     18  C   UNL     1      -0.259  10.697  21.142  0.00  0.00    +0.000 C 
ATOM     19  O   UNL     1       0.851  10.750  20.254  0.00  0.00    +0.000 OA
ENDBRANCH  12  19
ENDBRANCH   8  15
ENDBRANCH   1   9
BRANCH   1  20
ATOM     20  N   UNL     1       4.918   4.289  15.922  0.00  0.00    +0.000 N 
ATOM     21  C   UNL     1       6.280   4.343  15.658  0.00  0.00    +0.000 C 
ATOM     22  O   UNL     1       7.160   4.372  16.511  0.00  0.00    +0.000 OA
ATOM     23  H   UNL     1       4.326   4.217  15.101  0.00  0.00    +0.000 HD
BRANCH  21  24
ATOM     24  C   UNL     1       6.587   4.295  14.243  0.00  0.00    +0.000 A 
ATOM     25  C   UNL     1       7.488   5.021  13.488  0.00  0.00    +0.000 A 
ATOM     26  C   UNL     1       7.384   4.543  12.161  0.00  0.00    +0.000 A 
ATOM     27  C   UNL     1       6.424   3.560  12.184  0.00  0.00    +0.000 A 
ATOM     28  O   UNL     1       5.937   3.392  13.441  0.00  0.00    +0.000 OA
ENDBRANCH  21  24
ENDBRANCH   1  20
TORSDOF 6
ENDMDL
MODEL 4
REMARK VINA RESULT:      -7.4      0.947      1.333
REMARK  Name = 
REMARK  7 active torsions:
REMARK  status: ('A' for Active; 'I' for Inactive)
REMARK    1  A    between atoms: C_1  and  O_2
REMARK    2  A    between atoms: O_2  and  C_3
REMARK    3  A    between atoms: C_6  and  N_7
REMARK    4  A    between atoms: C_8  and  C_10
REMARK    5  A    between atoms: C_10  and  N_17
REMARK    6  A    between atoms: C_11  and  C_12
REMARK    7  A    between atoms: C_18  and  C_20
REMARK                            x       y       z     vdW  Elec       q    Type
REMARK                         _______ _______ _______ _____ _____    ______ ____
ROOT
ATOM      1  C   UNL     1       3.695   3.963  17.420  0.00  0.00    +0.000 C 
ATOM      2  C   UNL     1       3.830   2.930  18.277  0.00  0.00    +0.000 C 
ENDROOT
BRANCH   2   3
ATOM      3  C   UNL     1       3.029   2.657  19.420  0.00  0.00    +0.000 A 
ATOM      4  C   UNL     1       1.657   2.512  19.522  0.00  0.00    +0.000 A 
ATOM      5  C   UNL     1       1.209   2.411  20.873  0.00  0.00    +0.000 A 
ATOM      6  C   UNL     1       2.254   2.474  21.765  0.00  0.00    +0.000 A 
ATOM      7  S   UNL     1       3.761   2.640  20.977  0.00  0.00    +0.000 S 
ENDBRANCH   2   3
BRANCH   1   9
ATOM      8  N   UNL     1       3.204   6.186  18.313  0.00  0.00    +0.000 N 
ATOM      9  C   UNL     1       2.675   5.074  17.657  0.00  0.00    +0.000 C 
ATOM     10  O   UNL     1       1.503   4.938  17.327  0.00  0.00    +0.000 OA
ATOM     11  H   UNL     1       4.189   6.176  18.535  0.00  0.00    +0.000 HD
BRANCH   8  15
ATOM     12  C   UNL     1       1.143   9.741  19.390  0.00  0.00    +0.000 A 
ATOM     13  C   UNL     1       1.673   9.601  18.108  0.00  0.00    +0.000 A 
ATOM     14  C   UNL     1       2.338   8.432  17.729  0.00  0.00    +0.000 A 
ATOM     15  C   UNL     1       2.513   7.382  18.632  0.00  0.00    +0.000 A 
ATOM     16  C   UNL     1       2.001   7.535  19.930  0.00  0.00    +0.000 A 
ATOM     17  C   UNL     1       1.314   8.704  20.306  0.00  0.00    +0.000 A 
BRANCH  12  19
ATOM     18  C   UNL     1      -0.395  10.963  20.702  0.00  0.00    +0.000 C 
ATOM     19  O   UNL     1       0.539  10.938  19.630  0.00  0.00    +0.000 OA
ENDBRANCH  12  19
ENDBRANCH   8  15
ENDBRANCH   1   9
BRANCH   1  20
ATOM     20  N   UNL     1       4.499   4.095  16.293  0.00  0.00    +0.000 N 
ATOM     21  C   UNL     1       5.803   4.568  16.231  0.00  0.00    +0.000 C 
ATOM     22  O   UNL     1       6.464   4.929  17.199  0.00  0.00    +0.000 OA
ATOM     23  H   UNL     1       4.114   3.787  15.405  0.00  0.00    +0.000 HD
BRANCH  21  24
ATOM     24  C   UNL     1       6.356   4.537  14.894  0.00  0.00    +0.000 A 
ATOM     25  C   UNL     1       5.952   3.852  13.764  0.00  0.00    +0.000 A 
ATOM     26  C   UNL     1       6.848   4.211  12.729  0.00  0.00    +0.000 A 
ATOM     27  C   UNL     1       7.747   5.086  13.290  0.00  0.00    +0.000 A 
ATOM     28  O   UNL     1       7.457   5.300  14.600  0.00  0.00    +0.000 OA
ENDBRANCH  21  24
ENDBRANCH   1  20
TORSDOF 6
ENDMDL
MODEL 5
REMARK VINA RESULT:      -7.3      1.146      1.185
REMARK  Name = 
REMARK  7 active torsions:
REMARK  status: ('A' for Active; 'I' for Inactive)
REMARK    1  A    between atoms: C_1  and  O_2
REMARK    2  A    between atoms: O_2  and  C_3
REMARK    3  A    between atoms: C_6  and  N_7
REMARK    4  A    between atoms: C_8  and  C_10
REMARK    5  A    between atoms: C_10  and  N_17
REMARK    6  A    between atoms: C_11  and  C_12
REMARK    7  A    between atoms: C_18  and  C_20
REMARK                            x       y       z     vdW  Elec       q    Type
REMARK                         _______ _______ _______ _____ _____    ______ ____
ROOT
ATOM      1  C   UNL     1       3.579   3.981  17.502  0.00  0.00    +0.000 C 
ATOM      2  C   UNL     1       3.673   2.948  18.365  0.00  0.00    +0.000 C 
ENDROOT
BRANCH   2   3
ATOM      3  C   UNL     1       2.855   2.708  19.503  0.00  0.00    +0.000 A 
ATOM      4  C   UNL     1       1.476   2.656  19.603  0.00  0.00    +0.000 A 
ATOM      5  C   UNL     1       1.022   2.558  20.953  0.00  0.00    +0.000 A 
ATOM      6  C   UNL     1       2.069   2.530  21.845  0.00  0.00    +0.000 A 
ATOM      7  S   UNL     1       3.584   2.607  21.058  0.00  0.00    +0.000 S 
ENDBRANCH   2   3
BRANCH   1   9
ATOM      8  N   UNL     1       3.139   6.195  18.443  0.00  0.00    +0.000 N 
ATOM      9  C   UNL     1       2.596   5.127  17.727  0.00  0.00    +0.000 C 
ATOM     10  O   UNL     1       1.438   5.052  17.337  0.00  0.00    +0.000 OA
ATOM     11  H   UNL     1       4.110   6.136  18.711  0.00  0.00    +0.000 HD
BRANCH   8  15
ATOM     12  C   UNL     1       1.167   9.861  19.294  0.00  0.00    +0.000 A 
ATOM     13  C   UNL     1       1.238   8.862  20.265  0.00  0.00    +0.000 A 
ATOM     14  C   UNL     1       1.899   7.657  20.010  0.00  0.00    +0.000 A 
ATOM     15  C   UNL     1       2.483   7.409  18.768  0.00  0.00    +0.000 A 
ATOM     16  C   UNL     1       2.389   8.405  17.782  0.00  0.00    +0.000 A 
ATOM     17  C   UNL     1       1.742   9.626  18.045  0.00  0.00    +0.000 A 
BRANCH  12  19
ATOM     18  C   UNL     1       0.555  12.085  18.785  0.00  0.00    +0.000 C 
ATOM     19  O   UNL     1       0.478  10.973  19.670  0.00  0.00    +0.000 OA
ENDBRANCH  12  19
ENDBRANCH   8  15
ENDBRANCH   1   9
BRANCH   1  20
ATOM     20  N   UNL     1       4.396   4.080  16.381  0.00  0.00    +0.000 N 
ATOM     21  C   UNL     1       5.540   4.852  16.229  0.00  0.00    +0.000 C 
ATOM     22  O   UNL     1       6.025   5.565  17.101  0.00  0.00    +0.000 OA
ATOM     23  H   UNL     1       4.159   3.506  15.578  0.00  0.00    +0.000 HD
BRANCH  21  24
ATOM     24  C   UNL     1       6.169   4.689  14.935  0.00  0.00    +0.000 A 
ATOM     25  C   UNL     1       5.799   3.934  13.839  0.00  0.00    +0.000 A 
ATOM     26  C   UNL     1       6.770   4.168  12.838  0.00  0.00    +0.000 A 
ATOM     27  C   UNL     1       7.677   5.045  13.384  0.00  0.00    +0.000 A 
ATOM     28  O   UNL     1       7.321   5.376  14.653  0.00  0.00    +0.000 OA
ENDBRANCH  21  24
ENDBRANCH   1  20
TORSDOF 6
ENDMDL
MODEL 6
REMARK VINA RESULT:      -7.2      1.089      1.194
REMARK  Name = 
REMARK  7 active torsions:
REMARK  status: ('A' for Active; 'I' for Inactive)
REMARK    1  A    between atoms: C_1  and  O_2
REMARK    2  A    between atoms: O_2  and  C_3
REMARK    3  A    between atoms: C_6  and  N_7
REMARK    4  A    between atoms: C_8  and  C_10
REMARK    5  A    between atoms: C_10  and  N_17
REMARK    6  A    between atoms: C_11  and  C_12
REMARK    7  A    between atoms: C_18  and  C_20
REMARK                            x       y       z     vdW  Elec       q    Type
REMARK                         _______ _______ _______ _____ _____    ______ ____
ROOT
ATOM      1  C   UNL     1       4.198   3.914  17.465  0.00  0.00    +0.000 C 
ATOM      2  C   UNL     1       3.712   2.777  18.004  0.00  0.00    +0.000 C 
ENDROOT
BRANCH   2   3
ATOM      3  C   UNL     1       2.936   2.657  19.189  0.00  0.00    +0.000 A 
ATOM      4  C   UNL     1       1.568   2.773  19.364  0.00  0.00    +0.000 A 
ATOM      5  C   UNL     1       1.181   2.754  20.737  0.00  0.00    +0.000 A 
ATOM      6  C   UNL     1       2.264   2.618  21.573  0.00  0.00    +0.000 A 
ATOM      7  S   UNL     1       3.732   2.498  20.706  0.00  0.00    +0.000 S 
ENDBRANCH   2   3
BRANCH   1   9
ATOM      8  N   UNL     1       2.820   5.881  17.926  0.00  0.00    +0.000 N 
ATOM      9  C   UNL     1       4.048   5.262  18.164  0.00  0.00    +0.000 C 
ATOM     10  O   UNL     1       4.963   5.738  18.825  0.00  0.00    +0.000 OA
ATOM     11  H   UNL     1       2.146   5.386  17.360  0.00  0.00    +0.000 HD
BRANCH   8  15
ATOM     12  C   UNL     1       1.480   9.617  19.439  0.00  0.00    +0.000 A 
ATOM     13  C   UNL     1       1.560   8.509  20.281  0.00  0.00    +0.000 A 
ATOM     14  C   UNL     1       2.016   7.277  19.807  0.00  0.00    +0.000 A 
ATOM     15  C   UNL     1       2.379   7.114  18.470  0.00  0.00    +0.000 A 
ATOM     16  C   UNL     1       2.275   8.224  17.616  0.00  0.00    +0.000 A 
ATOM     17  C   UNL     1       1.834   9.470  18.099  0.00  0.00    +0.000 A 
BRANCH  12  19
ATOM     18  C   UNL     1       1.020  11.925  19.229  0.00  0.00    +0.000 C 
ATOM     19  O   UNL     1       1.001  10.748  20.028  0.00  0.00    +0.000 OA
ENDBRANCH  12  19
ENDBRANCH   8  15
ENDBRANCH   1   9
BRANCH   1  20
ATOM     20  N   UNL     1       4.894   3.918  16.260  0.00  0.00    +0.000 N 
ATOM     21  C   UNL     1       5.236   5.015  15.482  0.00  0.00    +0.000 C 
ATOM     22  O   UNL     1       4.986   6.182  15.765  0.00  0.00    +0.000 OA
ATOM     23  H   UNL     1       5.223   3.025  15.908  0.00  0.00    +0.000 HD
BRANCH  21  24
ATOM     24  C   UNL     1       5.996   4.660  14.301  0.00  0.00    +0.000 A 
ATOM     25  C   UNL     1       7.255   5.048  13.885  0.00  0.00    +0.000 A 
ATOM     26  C   UNL     1       7.505   4.375  12.667  0.00  0.00    +0.000 A 
ATOM     27  C   UNL     1       6.385   3.623  12.409  0.00  0.00    +0.000 A 
ATOM     28  O   UNL     1       5.463   3.779  13.395  0.00  0.00    +0.000 OA
ENDBRANCH  21  24
ENDBRANCH   1  20
TORSDOF 6
ENDMDL
MODEL 7
REMARK VINA RESULT:      -6.8      1.754      7.055
REMARK  Name = 
REMARK  7 active torsions:
REMARK  status: ('A' for Active; 'I' for Inactive)
REMARK    1  A    between atoms: C_1  and  O_2
REMARK    2  A    between atoms: O_2  and  C_3
REMARK    3  A    between atoms: C_6  and  N_7
REMARK    4  A    between atoms: C_8  and  C_10
REMARK    5  A    between atoms: C_10  and  N_17
REMARK    6  A    between atoms: C_11  and  C_12
REMARK    7  A    between atoms: C_18  and  C_20
REMARK                            x       y       z     vdW  Elec       q    Type
REMARK                         _______ _______ _______ _____ _____    ______ ____
ROOT
ATOM      1  C   UNL     1       2.225   6.617  19.927  0.00  0.00    +0.000 C 
ATOM      2  C   UNL     1       1.390   5.764  20.556  0.00  0.00    +0.000 C 
ENDROOT
BRANCH   2   3
ATOM      3  C   UNL     1       1.561   4.361  20.712  0.00  0.00    +0.000 A 
ATOM      4  C   UNL     1       2.181   3.655  21.728  0.00  0.00    +0.000 A 
ATOM      5  C   UNL     1       2.297   2.261  21.443  0.00  0.00    +0.000 A 
ATOM      6  C   UNL     1       1.757   1.941  20.219  0.00  0.00    +0.000 A 
ATOM      7  S   UNL     1       1.102   3.308  19.430  0.00  0.00    +0.000 S 
ENDBRANCH   2   3
BRANCH   1   9
ATOM      8  N   UNL     1       3.237   5.888  17.823  0.00  0.00    +0.000 N 
ATOM      9  C   UNL     1       3.462   6.126  19.180  0.00  0.00    +0.000 C 
ATOM     10  O   UNL     1       4.519   5.929  19.767  0.00  0.00    +0.000 OA
ATOM     11  H   UNL     1       2.317   6.088  17.458  0.00  0.00    +0.000 HD
BRANCH   8  15
ATOM     12  C   UNL     1       6.074   4.511  14.977  0.00  0.00    +0.000 A 
ATOM     13  C   UNL     1       5.849   5.878  15.137  0.00  0.00    +0.000 A 
ATOM     14  C   UNL     1       4.935   6.351  16.081  0.00  0.00    +0.000 A 
ATOM     15  C   UNL     1       4.200   5.467  16.872  0.00  0.00    +0.000 A 
ATOM     16  C   UNL     1       4.408   4.090  16.693  0.00  0.00    +0.000 A 
ATOM     17  C   UNL     1       5.344   3.614  15.757  0.00  0.00    +0.000 A 
BRANCH  12  19
ATOM     18  C   UNL     1       6.441   3.643  12.811  0.00  0.00    +0.000 C 
ATOM     19  O   UNL     1       6.977   4.190  14.010  0.00  0.00    +0.000 OA
ENDBRANCH  12  19
ENDBRANCH   8  15
ENDBRANCH   1   9
BRANCH   1  20
ATOM     20  N   UNL     1       1.987   7.988  19.892  0.00  0.00    +0.000 N 
ATOM     21  C   UNL     1       1.735   8.777  18.778  0.00  0.00    +0.000 C 
ATOM     22  O   UNL     1       1.660   8.362  17.627  0.00  0.00    +0.000 OA
ATOM     23  H   UNL     1       1.964   8.480  20.779  0.00  0.00    +0.000 HD
BRANCH  21  24
ATOM     24  C   UNL     1       1.495  10.166  19.109  0.00  0.00    +0.000 A 
ATOM     25  C   UNL     1       0.849  10.741  20.186  0.00  0.00    +0.000 A 
ATOM     26  C   UNL     1       0.931  12.141  20.009  0.00  0.00    +0.000 A 
ATOM     27  C   UNL     1       1.616  12.338  18.834  0.00  0.00    +0.000 A 
ATOM     28  O   UNL     1       1.972  11.150  18.280  0.00  0.00    +0.000 OA
ENDBRANCH  21  24
ENDBRANCH   1  20
TORSDOF 6
ENDMDL
MODEL 8
REMARK VINA RESULT:      -6.4      1.595      7.305
REMARK  Name = 
REMARK  7 active torsions:
REMARK  status: ('A' for Active; 'I' for Inactive)
REMARK    1  A    between atoms: C_1  and  O_2
REMARK    2  A    between atoms: O_2  and  C_3
REMARK    3  A    between atoms: C_6  and  N_7
REMARK    4  A    between atoms: C_8  and  C_10
REMARK    5  A    between atoms: C_10  and  N_17
REMARK    6  A    between atoms: C_11  and  C_12
REMARK    7  A    between atoms: C_18  and  C_20
REMARK                            x       y       z     vdW  Elec       q    Type
REMARK                         _______ _______ _______ _____ _____    ______ ____
ROOT
ATOM      1  C   UNL     1       2.141   6.563  19.892  0.00  0.00    +0.000 C 
ATOM      2  C   UNL     1       1.337   5.705  20.554  0.00  0.00    +0.000 C 
ENDROOT
BRANCH   2   3
ATOM      3  C   UNL     1       1.558   4.315  20.762  0.00  0.00    +0.000 A 
ATOM      4  C   UNL     1       2.228   3.672  21.788  0.00  0.00    +0.000 A 
ATOM      5  C   UNL     1       2.382   2.272  21.556  0.00  0.00    +0.000 A 
ATOM      6  C   UNL     1       1.820   1.885  20.363  0.00  0.00    +0.000 A 
ATOM      7  S   UNL     1       1.099   3.196  19.538  0.00  0.00    +0.000 S 
ENDBRANCH   2   3
BRANCH   1   9
ATOM      8  N   UNL     1       3.192   5.854  17.801  0.00  0.00    +0.000 N 
ATOM      9  C   UNL     1       3.394   6.088  19.162  0.00  0.00    +0.000 C 
ATOM     10  O   UNL     1       4.444   5.900  19.764  0.00  0.00    +0.000 OA
ATOM     11  H   UNL     1       2.276   6.046  17.422  0.00  0.00    +0.000 HD
BRANCH   8  15
ATOM     12  C   UNL     1       6.177   4.754  14.986  0.00  0.00    +0.000 A 
ATOM     13  C   UNL     1       5.512   3.773  15.720  0.00  0.00    +0.000 A 
ATOM     14  C   UNL     1       4.514   4.114  16.636  0.00  0.00    +0.000 A 
ATOM     15  C   UNL     1       4.174   5.448  16.863  0.00  0.00    +0.000 A 
ATOM     16  C   UNL     1       4.862   6.437  16.141  0.00  0.00    +0.000 A 
ATOM     17  C   UNL     1       5.853   6.093  15.204  0.00  0.00    +0.000 A 
BRANCH  12  19
ATOM     18  C   UNL     1       6.696   3.875  12.855  0.00  0.00    +0.000 C 
ATOM     19  O   UNL     1       7.138   4.283  14.144  0.00  0.00    +0.000 OA
ENDBRANCH  12  19
ENDBRANCH   8  15
ENDBRANCH   1   9
BRANCH   1  20
ATOM     20  N   UNL     1       1.854   7.922  19.806  0.00  0.00    +0.000 N 
ATOM     21  C   UNL     1       1.360   8.749  20.805  0.00  0.00    +0.000 C 
ATOM     22  O   UNL     1       1.119   8.395  21.954  0.00  0.00    +0.000 OA
ATOM     23  H   UNL     1       2.048   8.385  18.924  0.00  0.00    +0.000 HD
BRANCH  21  24
ATOM     24  C   UNL     1       1.210  10.126  20.381  0.00  0.00    +0.000 A 
ATOM     25  C   UNL     1       1.064  10.672  19.120  0.00  0.00    +0.000 A 
ATOM     26  C   UNL     1       0.938  12.070  19.296  0.00  0.00    +0.000 A 
ATOM     27  C   UNL     1       1.019  12.293  20.649  0.00  0.00    +0.000 A 
ATOM     28  O   UNL     1       1.177  11.123  21.321  0.00  0.00    +0.000 OA
ENDBRANCH  21  24
ENDBRANCH   1  20
TORSDOF 6
ENDMDL
MODEL 9
REMARK VINA RESULT:      -6.3      1.843      7.810
REMARK  Name = 
REMARK  7 active torsions:
REMARK  status: ('A' for Active; 'I' for Inactive)
REMARK    1  A    between atoms: C_1  and  O_2
REMARK    2  A    between atoms: O_2  and  C_3
REMARK    3  A    between atoms: C_6  and  N_7
REMARK    4  A    between atoms: C_8  and  C_10
REMARK    5  A    between atoms: C_10  and  N_17
REMARK    6  A    between atoms: C_11  and  C_12
REMARK    7  A    between atoms: C_18  and  C_20
REMARK                            x       y       z     vdW  Elec       q    Type
REMARK                         _______ _______ _______ _____ _____    ______ ____
ROOT
ATOM      1  C   UNL     1       1.768   7.110  20.166  0.00  0.00    +0.000 C 
ATOM      2  C   UNL     1       1.364   6.086  20.945  0.00  0.00    +0.000 C 
ENDROOT
BRANCH   2   3
ATOM      3  C   UNL     1       1.703   4.713  20.796  0.00  0.00    +0.000 A 
ATOM      4  C   UNL     1       2.589   3.939  21.525  0.00  0.00    +0.000 A 
ATOM      5  C   UNL     1       2.783   2.641  20.963  0.00  0.00    +0.000 A 
ATOM      6  C   UNL     1       2.034   2.459  19.824  0.00  0.00    +0.000 A 
ATOM      7  S   UNL     1       1.095   3.836  19.447  0.00  0.00    +0.000 S 
ENDBRANCH   2   3
BRANCH   1   9
ATOM      8  N   UNL     1       3.790   6.197  19.137  0.00  0.00    +0.000 N 
ATOM      9  C   UNL     1       2.595   6.880  18.904  0.00  0.00    +0.000 C 
ATOM     10  O   UNL     1       2.228   7.313  17.819  0.00  0.00    +0.000 OA
ATOM     11  H   UNL     1       3.981   5.894  20.081  0.00  0.00    +0.000 HD
BRANCH   8  15
ATOM     12  C   UNL     1       6.557   4.940  16.169  0.00  0.00    +0.000 A 
ATOM     13  C   UNL     1       6.722   6.171  16.804  0.00  0.00    +0.000 A 
ATOM     14  C   UNL     1       5.834   6.593  17.796  0.00  0.00    +0.000 A 
ATOM     15  C   UNL     1       4.740   5.807  18.160  0.00  0.00    +0.000 A 
ATOM     16  C   UNL     1       4.560   4.579  17.503  0.00  0.00    +0.000 A 
ATOM     17  C   UNL     1       5.466   4.145  16.518  0.00  0.00    +0.000 A 
BRANCH  12  19
ATOM     18  C   UNL     1       7.015   4.675  13.867  0.00  0.00    +0.000 C 
ATOM     19  O   UNL     1       7.483   4.664  15.210  0.00  0.00    +0.000 OA
ENDBRANCH  12  19
ENDBRANCH   8  15
ENDBRANCH   1   9
BRANCH   1  20
ATOM     20  N   UNL     1       1.423   8.428  20.446  0.00  0.00    +0.000 N 
ATOM     21  C   UNL     1       0.290   8.888  21.103  0.00  0.00    +0.000 C 
ATOM     22  O   UNL     1      -0.590   8.172  21.569  0.00  0.00    +0.000 OA
ATOM     23  H   UNL     1       2.079   9.152  20.168  0.00  0.00    +0.000 HD
BRANCH  21  24
ATOM     24  C   UNL     1       0.266  10.328  21.256  0.00  0.00    +0.000 A 
ATOM     25  C   UNL     1       0.990  11.316  20.618  0.00  0.00    +0.000 A 
ATOM     26  C   UNL     1       0.543  12.551  21.144  0.00  0.00    +0.000 A 
ATOM     27  C   UNL     1      -0.422  12.242  22.073  0.00  0.00    +0.000 A 
ATOM     28  O   UNL     1      -0.607  10.898  22.147  0.00  0.00    +0.000 OA
ENDBRANCH  21  24
ENDBRANCH   1  20
TORSDOF 6
ENDMDL
