MODEL 1
REMARK VINA RESULT:      -6.8      0.000      0.000
REMARK  Name = 
REMARK  2 active torsions:
REMARK  status: ('A' for Active; 'I' for Inactive)
REMARK    1  A    between atoms: C_1  and  O_2
REMARK    2  A    between atoms: O_2  and  C_3
REMARK                            x       y       z     vdW  Elec       q    Type
REMARK                         _______ _______ _______ _____ _____    ______ ____
ROOT
ATOM      1  C   UNL     1       6.398   4.646  16.546  0.00  0.00    +0.000 A 
ATOM      2  C   UNL     1       6.732   4.749  17.924  0.00  0.00    +0.000 A 
ATOM      3  C   UNL     1       5.798   4.411  18.915  0.00  0.00    +0.000 A 
ATOM      4  C   UNL     1       4.545   3.973  18.510  0.00  0.00    +0.000 A 
ATOM      5  C   UNL     1       4.191   3.877  17.171  0.00  0.00    +0.000 A 
ATOM      6  C   UNL     1       5.108   4.215  16.174  0.00  0.00    +0.000 A 
ATOM      7  C   UNL     1       2.772   3.370  17.001  0.00  0.00    +0.000 C 
ATOM      8  C   UNL     1       2.412   3.186  18.441  0.00  0.00    +0.000 A 
ATOM      9  S   UNL     1       1.096   2.636  19.323  0.00  0.00    +0.000 S 
ATOM     10  C   UNL     1       1.953   2.885  20.784  0.00  0.00    +0.000 A 
ATOM     11  N   UNL     1       1.432   2.584  22.061  0.00  0.00    +0.000 N 
ATOM     12  N   UNL     1       3.205   3.379  20.603  0.00  0.00    +0.000 NA
ATOM     13  C   UNL     1       3.414   3.531  19.277  0.00  0.00    +0.000 A 
ATOM     14  H   UNL     1       0.488   2.182  22.156  0.00  0.00    +0.000 HD
ATOM     15  H   UNL     1       2.003   2.740  22.904  0.00  0.00    +0.000 HD
ENDROOT
BRANCH   1  17
ATOM     16  C   UNL     1       7.037   4.835  14.205  0.00  0.00    +0.000 C 
ATOM     17  O   UNL     1       7.281   4.942  15.559  0.00  0.00    +0.000 OA
ENDBRANCH   1  17
TORSDOF 1
ENDMDL
MODEL 2
REMARK VINA RESULT:      -6.7      3.842      5.967
REMARK  Name = 
REMARK  2 active torsions:
REMARK  status: ('A' for Active; 'I' for Inactive)
REMARK    1  A    between atoms: C_1  and  O_2
REMARK    2  A    between atoms: O_2  and  C_3
REMARK                            x       y       z     vdW  Elec       q    Type
REMARK                         _______ _______ _______ _____ _____    ______ ____
ROOT
ATOM      1  C   UNL     1       1.958   3.309  19.474  0.00  0.00    +0.000 A 
ATOM      2  C   UNL     1       1.869   2.938  18.104  0.00  0.00    +0.000 A 
ATOM      3  C   UNL     1       2.850   3.345  17.186  0.00  0.00    +0.000 A 
ATOM      4  C   UNL     1       3.905   4.116  17.656  0.00  0.00    +0.000 A 
ATOM      5  C   UNL     1       4.006   4.501  18.986  0.00  0.00    +0.000 A 
ATOM      6  C   UNL     1       3.035   4.109  19.909  0.00  0.00    +0.000 A 
ATOM      7  C   UNL     1       5.251   5.330  19.237  0.00  0.00    +0.000 C 
ATOM      8  C   UNL     1       5.821   5.324  17.854  0.00  0.00    +0.000 A 
ATOM      9  S   UNL     1       7.187   5.915  17.081  0.00  0.00    +0.000 S 
ATOM     10  C   UNL     1       6.674   5.213  15.606  0.00  0.00    +0.000 A 
ATOM     11  N   UNL     1       7.412   5.282  14.404  0.00  0.00    +0.000 N 
ATOM     12  N   UNL     1       5.493   4.549  15.702  0.00  0.00    +0.000 NA
ATOM     13  C   UNL     1       5.055   4.642  16.977  0.00  0.00    +0.000 A 
ATOM     14  H   UNL     1       8.320   5.768  14.380  0.00  0.00    +0.000 HD
ATOM     15  H   UNL     1       7.059   4.823  13.552  0.00  0.00    +0.000 HD
ENDROOT
BRANCH   1  17
ATOM     16  C   UNL     1       1.304   2.643  21.722  0.00  0.00    +0.000 C 
ATOM     17  O   UNL     1       1.041   2.916  20.394  0.00  0.00    +0.000 OA
ENDBRANCH   1  17
TORSDOF 1
ENDMDL
MODEL 3
REMARK VINA RESULT:      -6.4      2.356      2.750
REMARK  Name = 
REMARK  2 active torsions:
REMARK  status: ('A' for Active; 'I' for Inactive)
REMARK    1  A    between atoms: C_1  and  O_2
REMARK    2  A    between atoms: O_2  and  C_3
REMARK                            x       y       z     vdW  Elec       q    Type
REMARK                         _______ _______ _______ _____ _____    ______ ____
ROOT
ATOM      1  C   UNL     1       7.057   6.939  17.454  0.00  0.00    +0.000 A 
ATOM      2  C   UNL     1       7.457   5.626  17.824  0.00  0.00    +0.000 A 
ATOM      3  C   UNL     1       6.501   4.639  18.109  0.00  0.00    +0.000 A 
ATOM      4  C   UNL     1       5.159   4.983  18.017  0.00  0.00    +0.000 A 
ATOM      5  C   UNL     1       4.744   6.262  17.672  0.00  0.00    +0.000 A 
ATOM      6  C   UNL     1       5.684   7.255  17.391  0.00  0.00    +0.000 A 
ATOM      7  C   UNL     1       3.232   6.372  17.639  0.00  0.00    +0.000 C 
ATOM      8  C   UNL     1       2.885   4.962  17.998  0.00  0.00    +0.000 A 
ATOM      9  S   UNL     1       1.495   4.044  18.187  0.00  0.00    +0.000 S 
ATOM     10  C   UNL     1       2.438   2.660  18.538  0.00  0.00    +0.000 A 
ATOM     11  N   UNL     1       1.894   1.383  18.799  0.00  0.00    +0.000 N 
ATOM     12  N   UNL     1       3.776   2.894  18.515  0.00  0.00    +0.000 NA
ATOM     13  C   UNL     1       3.975   4.195  18.210  0.00  0.00    +0.000 A 
ATOM     14  H   UNL     1       0.874   1.239  18.778  0.00  0.00    +0.000 HD
ATOM     15  H   UNL     1       2.515   0.583  18.987  0.00  0.00    +0.000 HD
ENDROOT
BRANCH   1  17
ATOM     16  C   UNL     1       8.139   9.082  17.862  0.00  0.00    +0.000 C 
ATOM     17  O   UNL     1       7.951   7.914  17.150  0.00  0.00    +0.000 OA
ENDBRANCH   1  17
TORSDOF 1
ENDMDL
MODEL 4
REMARK VINA RESULT:      -6.3      3.591      4.268
REMARK  Name = 
REMARK  2 active torsions:
REMARK  status: ('A' for Active; 'I' for Inactive)
REMARK    1  A    between atoms: C_1  and  O_2
REMARK    2  A    between atoms: O_2  and  C_3
REMARK                            x       y       z     vdW  Elec       q    Type
REMARK                         _______ _______ _______ _____ _____    ______ ____
ROOT
ATOM      1  C   UNL     1       2.763   8.069  17.888  0.00  0.00    +0.000 A 
ATOM      2  C   UNL     1       3.943   7.480  17.355  0.00  0.00    +0.000 A 
ATOM      3  C   UNL     1       4.395   6.236  17.820  0.00  0.00    +0.000 A 
ATOM      4  C   UNL     1       3.658   5.601  18.811  0.00  0.00    +0.000 A 
ATOM      5  C   UNL     1       2.511   6.162  19.355  0.00  0.00    +0.000 A 
ATOM      6  C   UNL     1       2.052   7.402  18.907  0.00  0.00    +0.000 A 
ATOM      7  C   UNL     1       1.894   5.265  20.411  0.00  0.00    +0.000 C 
ATOM      8  C   UNL     1       2.862   4.127  20.348  0.00  0.00    +0.000 A 
ATOM      9  S   UNL     1       3.052   2.628  21.077  0.00  0.00    +0.000 S 
ATOM     10  C   UNL     1       4.449   2.330  20.134  0.00  0.00    +0.000 A 
ATOM     11  N   UNL     1       5.198   1.135  20.194  0.00  0.00    +0.000 N 
ATOM     12  N   UNL     1       4.763   3.348  19.290  0.00  0.00    +0.000 NA
ATOM     13  C   UNL     1       3.847   4.329  19.449  0.00  0.00    +0.000 A 
ATOM     14  H   UNL     1       4.910   0.373  20.825  0.00  0.00    +0.000 HD
ATOM     15  H   UNL     1       6.021   1.007  19.588  0.00  0.00    +0.000 HD
ENDROOT
BRANCH   1  17
ATOM     16  C   UNL     1       1.444  10.098  18.157  0.00  0.00    +0.000 C 
ATOM     17  O   UNL     1       2.283   9.260  17.448  0.00  0.00    +0.000 OA
ENDBRANCH   1  17
TORSDOF 1
ENDMDL
MODEL 5
REMARK VINA RESULT:      -6.3      2.336      2.684
REMARK  Name = 
REMARK  2 active torsions:
REMARK  status: ('A' for Active; 'I' for Inactive)
REMARK    1  A    between atoms: C_1  and  O_2
REMARK    2  A    between atoms: O_2  and  C_3
REMARK                            x       y       z     vdW  Elec       q    Type
REMARK                         _______ _______ _______ _____ _____    ______ ____
ROOT
ATOM      1  C   UNL     1       5.748   4.567  15.205  0.00  0.00    +0.000 A 
ATOM      2  C   UNL     1       5.540   5.968  15.335  0.00  0.00    +0.000 A 
ATOM      3  C   UNL     1       4.745   6.481  16.371  0.00  0.00    +0.000 A 
ATOM      4  C   UNL     1       4.172   5.583  17.261  0.00  0.00    +0.000 A 
ATOM      5  C   UNL     1       4.350   4.211  17.147  0.00  0.00    +0.000 A 
ATOM      6  C   UNL     1       5.134   3.686  16.118  0.00  0.00    +0.000 A 
ATOM      7  C   UNL     1       3.625   3.458  18.245  0.00  0.00    +0.000 C 
ATOM      8  C   UNL     1       3.043   4.620  18.984  0.00  0.00    +0.000 A 
ATOM      9  S   UNL     1       2.116   4.868  20.360  0.00  0.00    +0.000 S 
ATOM     10  C   UNL     1       2.192   6.562  20.124  0.00  0.00    +0.000 A 
ATOM     11  N   UNL     1       1.605   7.504  20.996  0.00  0.00    +0.000 N 
ATOM     12  N   UNL     1       2.902   6.926  19.024  0.00  0.00    +0.000 NA
ATOM     13  C   UNL     1       3.355   5.806  18.420  0.00  0.00    +0.000 A 
ATOM     14  H   UNL     1       1.100   7.189  21.837  0.00  0.00    +0.000 HD
ATOM     15  H   UNL     1       1.700   8.513  20.810  0.00  0.00    +0.000 HD
ENDROOT
BRANCH   1  17
ATOM     16  C   UNL     1       6.086   3.599  12.997  0.00  0.00    +0.000 C 
ATOM     17  O   UNL     1       6.528   4.036  14.230  0.00  0.00    +0.000 OA
ENDBRANCH   1  17
TORSDOF 1
ENDMDL
MODEL 6
REMARK VINA RESULT:      -6.3      1.645      1.962
REMARK  Name = 
REMARK  2 active torsions:
REMARK  status: ('A' for Active; 'I' for Inactive)
REMARK    1  A    between atoms: C_1  and  O_2
REMARK    2  A    between atoms: O_2  and  C_3
REMARK                            x       y       z     vdW  Elec       q    Type
REMARK                         _______ _______ _______ _____ _____    ______ ____
ROOT
ATOM      1  C   UNL     1       5.675   5.275  15.696  0.00  0.00    +0.000 A 
ATOM      2  C   UNL     1       5.535   3.896  16.013  0.00  0.00    +0.000 A 
ATOM      3  C   UNL     1       4.714   3.484  17.074  0.00  0.00    +0.000 A 
ATOM      4  C   UNL     1       4.045   4.460  17.800  0.00  0.00    +0.000 A 
ATOM      5  C   UNL     1       4.177   5.813  17.518  0.00  0.00    +0.000 A 
ATOM      6  C   UNL     1       4.995   6.238  16.470  0.00  0.00    +0.000 A 
ATOM      7  C   UNL     1       3.340   6.665  18.453  0.00  0.00    +0.000 C 
ATOM      8  C   UNL     1       2.719   5.578  19.271  0.00  0.00    +0.000 A 
ATOM      9  S   UNL     1       1.618   5.457  20.530  0.00  0.00    +0.000 S 
ATOM     10  C   UNL     1       1.743   3.750  20.496  0.00  0.00    +0.000 A 
ATOM     11  N   UNL     1       1.006   2.892  21.340  0.00  0.00    +0.000 N 
ATOM     12  N   UNL     1       2.604   3.287  19.553  0.00  0.00    +0.000 NA
ATOM     13  C   UNL     1       3.126   4.347  18.896  0.00  0.00    +0.000 A 
ATOM     14  H   UNL     1       0.339   3.280  22.022  0.00  0.00    +0.000 HD
ATOM     15  H   UNL     1       1.111   1.870  21.260  0.00  0.00    +0.000 HD
ENDROOT
BRANCH   1  17
ATOM     16  C   UNL     1       7.135   4.903  13.784  0.00  0.00    +0.000 C 
ATOM     17  O   UNL     1       6.442   5.710  14.664  0.00  0.00    +0.000 OA
ENDBRANCH   1  17
TORSDOF 1
ENDMDL
MODEL 7
REMARK VINA RESULT:      -6.3      3.888      5.849
REMARK  Name = 
REMARK  2 active torsions:
REMARK  status: ('A' for Active; 'I' for Inactive)
REMARK    1  A    between atoms: C_1  and  O_2
REMARK    2  A    between atoms: O_2  and  C_3
REMARK                            x       y       z     vdW  Elec       q    Type
REMARK                         _______ _______ _______ _____ _____    ______ ____
ROOT
ATOM      1  C   UNL     1       1.962   2.994  19.554  0.00  0.00    +0.000 A 
ATOM      2  C   UNL     1       2.749   2.029  18.867  0.00  0.00    +0.000 A 
ATOM      3  C   UNL     1       3.699   2.426  17.914  0.00  0.00    +0.000 A 
ATOM      4  C   UNL     1       3.847   3.784  17.665  0.00  0.00    +0.000 A 
ATOM      5  C   UNL     1       3.081   4.743  18.313  0.00  0.00    +0.000 A 
ATOM      6  C   UNL     1       2.128   4.363  19.259  0.00  0.00    +0.000 A 
ATOM      7  C   UNL     1       3.443   6.146  17.865  0.00  0.00    +0.000 C 
ATOM      8  C   UNL     1       4.530   5.811  16.894  0.00  0.00    +0.000 A 
ATOM      9  S   UNL     1       5.595   6.642  15.900  0.00  0.00    +0.000 S 
ATOM     10  C   UNL     1       6.293   5.165  15.388  0.00  0.00    +0.000 A 
ATOM     11  N   UNL     1       7.374   5.078  14.485  0.00  0.00    +0.000 N 
ATOM     12  N   UNL     1       5.725   4.070  15.957  0.00  0.00    +0.000 NA
ATOM     13  C   UNL     1       4.744   4.483  16.789  0.00  0.00    +0.000 A 
ATOM     14  H   UNL     1       7.798   5.934  14.099  0.00  0.00    +0.000 HD
ATOM     15  H   UNL     1       7.763   4.159  14.229  0.00  0.00    +0.000 HD
ENDROOT
BRANCH   1  17
ATOM     16  C   UNL     1       1.295   2.546  21.852  0.00  0.00    +0.000 C 
ATOM     17  O   UNL     1       1.049   2.649  20.497  0.00  0.00    +0.000 OA
ENDBRANCH   1  17
TORSDOF 1
ENDMDL
MODEL 8
REMARK VINA RESULT:      -6.1      1.608      2.633
REMARK  Name = 
REMARK  2 active torsions:
REMARK  status: ('A' for Active; 'I' for Inactive)
REMARK    1  A    between atoms: C_1  and  O_2
REMARK    2  A    between atoms: O_2  and  C_3
REMARK                            x       y       z     vdW  Elec       q    Type
REMARK                         _______ _______ _______ _____ _____    ______ ____
ROOT
ATOM      1  C   UNL     1       7.015   4.998  14.979  0.00  0.00    +0.000 A 
ATOM      2  C   UNL     1       5.912   4.390  14.317  0.00  0.00    +0.000 A 
ATOM      3  C   UNL     1       4.826   3.886  15.049  0.00  0.00    +0.000 A 
ATOM      4  C   UNL     1       4.860   4.002  16.432  0.00  0.00    +0.000 A 
ATOM      5  C   UNL     1       5.931   4.580  17.101  0.00  0.00    +0.000 A 
ATOM      6  C   UNL     1       7.021   5.079  16.386  0.00  0.00    +0.000 A 
ATOM      7  C   UNL     1       5.717   4.586  18.602  0.00  0.00    +0.000 C 
ATOM      8  C   UNL     1       4.366   3.946  18.651  0.00  0.00    +0.000 A 
ATOM      9  S   UNL     1       3.237   3.537  19.822  0.00  0.00    +0.000 S 
ATOM     10  C   UNL     1       2.176   2.950  18.614  0.00  0.00    +0.000 A 
ATOM     11  N   UNL     1       0.893   2.426  18.882  0.00  0.00    +0.000 N 
ATOM     12  N   UNL     1       2.672   3.060  17.354  0.00  0.00    +0.000 NA
ATOM     13  C   UNL     1       3.899   3.621  17.428  0.00  0.00    +0.000 A 
ATOM     14  H   UNL     1       0.539   2.387  19.849  0.00  0.00    +0.000 HD
ATOM     15  H   UNL     1       0.292   2.104  18.110  0.00  0.00    +0.000 HD
ENDROOT
BRANCH   1  17
ATOM     16  C   UNL     1       8.216   5.536  12.931  0.00  0.00    +0.000 C 
ATOM     17  O   UNL     1       8.072   5.515  14.304  0.00  0.00    +0.000 OA
ENDBRANCH   1  17
TORSDOF 1
ENDMDL
MODEL 9
REMARK VINA RESULT:      -6.0      4.589      6.155
REMARK  Name = 
REMARK  2 active torsions:
REMARK  status: ('A' for Active; 'I' for Inactive)
REMARK    1  A    between atoms: C_1  and  O_2
REMARK    2  A    between atoms: O_2  and  C_3
REMARK                            x       y       z     vdW  Elec       q    Type
REMARK                         _______ _______ _______ _____ _____    ______ ____
ROOT
ATOM      1  C   UNL     1       2.265   7.030  19.711  0.00  0.00    +0.000 A 
ATOM      2  C   UNL     1       2.366   7.819  18.532  0.00  0.00    +0.000 A 
ATOM      3  C   UNL     1       3.354   7.550  17.573  0.00  0.00    +0.000 A 
ATOM      4  C   UNL     1       4.224   6.494  17.809  0.00  0.00    +0.000 A 
ATOM      5  C   UNL     1       4.154   5.719  18.958  0.00  0.00    +0.000 A 
ATOM      6  C   UNL     1       3.180   5.978  19.924  0.00  0.00    +0.000 A 
ATOM      7  C   UNL     1       5.211   4.632  18.968  0.00  0.00    +0.000 C 
ATOM      8  C   UNL     1       5.855   4.917  17.648  0.00  0.00    +0.000 A 
ATOM      9  S   UNL     1       7.084   4.268  16.709  0.00  0.00    +0.000 S 
ATOM     10  C   UNL     1       6.787   5.432  15.490  0.00  0.00    +0.000 A 
ATOM     11  N   UNL     1       7.492   5.487  14.268  0.00  0.00    +0.000 N 
ATOM     12  N   UNL     1       5.781   6.293  15.793  0.00  0.00    +0.000 NA
ATOM     13  C   UNL     1       5.293   5.965  17.010  0.00  0.00    +0.000 A 
ATOM     14  H   UNL     1       8.228   4.796  14.061  0.00  0.00    +0.000 HD
ATOM     15  H   UNL     1       7.255   6.201  13.564  0.00  0.00    +0.000 HD
ENDROOT
BRANCH   1  17
ATOM     16  C   UNL     1       1.122   8.422  21.349  0.00  0.00    +0.000 C 
ATOM     17  O   UNL     1       1.310   7.246  20.651  0.00  0.00    +0.000 OA
ENDBRANCH   1  17
TORSDOF 1
ENDMDL
