MODEL 1
REMARK VINA RESULT:      -8.2      0.000      0.000
REMARK  Name = 
REMARK  5 active torsions:
REMARK  status: ('A' for Active; 'I' for Inactive)
REMARK    1  A    between atoms: C_1  and  C_2
REMARK    2  A    between atoms: C_4  and  C_5
REMARK    3  A    between atoms: C_10  and  C_11
REMARK    4  A    between atoms: C_23  and  C_24
REMARK    5  A    between atoms: N_25  and  C_26
REMARK                            x       y       z     vdW  Elec       q    Type
REMARK                         _______ _______ _______ _____ _____    ______ ____
ROOT
ATOM      1  C   UNL     1       1.729   9.150  19.601  0.00  0.00    +0.000 C 
ATOM      2  C   UNL     1       0.904   9.877  20.314  0.00  0.00    +0.000 C 
ATOM      3  C   UNL     1       0.949  11.427  19.088  0.00  0.00    +0.000 C 
ATOM      4  N   UNL     1       1.902  11.751  18.219  0.00  0.00    +0.000 NA
ATOM      5  N   UNL     1      -0.290  12.841  19.538  0.00  0.00    +0.000 N 
ATOM      6  C   UNL     1      -0.253  14.284  19.261  0.00  0.00    +0.000 C 
ATOM      7  C   UNL     1       0.859  14.843  18.711  0.00  0.00    +0.000 C 
ATOM      8  S   UNL     1      -0.012  15.101  20.842  0.00  0.00    +0.000 S 
ATOM      9  C   UNL     1      -1.106  13.071  21.207  0.00  0.00    +0.000 C 
ATOM     10  N   UNL     1      -1.145  11.770  22.184  0.00  0.00    +0.000 NA
ATOM     11  C   UNL     1      -0.385  10.101  21.894  0.00  0.00    +0.000 C 
ATOM     12  O   UNL     1      -0.657   9.106  22.564  0.00  0.00    +0.000 OA
ATOM     13  H   UNL     1       2.726  11.155  18.226  0.00  0.00    +0.000 HD
ENDROOT
BRANCH   1  17
ATOM     14  C   UNL     1       2.042   4.656  21.374  0.00  0.00    +0.000 C 
ATOM     15  C   UNL     1       2.043   5.782  20.419  0.00  0.00    +0.000 A 
ATOM     16  C   UNL     1       1.529   7.011  20.726  0.00  0.00    +0.000 A 
ATOM     17  C   UNL     1       1.848   7.789  19.647  0.00  0.00    +0.000 A 
ATOM     18  C   UNL     1       2.569   7.129  18.680  0.00  0.00    +0.000 A 
ATOM     19  C   UNL     1       3.064   7.697  17.373  0.00  0.00    +0.000 C 
ATOM     20  N   UNL     1       2.600   5.816  19.127  0.00  0.00    +0.000 N 
BRANCH  20  21
ATOM     21  C   UNL     1       2.977   4.711  18.336  0.00  0.00    +0.000 A 
ATOM     22  C   UNL     1       2.051   3.735  17.951  0.00  0.00    +0.000 A 
ATOM     23  C   UNL     1       2.491   2.554  17.366  0.00  0.00    +0.000 A 
ATOM     24  C   UNL     1       3.847   2.377  17.114  0.00  0.00    +0.000 A 
ATOM     25  C   UNL     1       4.764   3.371  17.448  0.00  0.00    +0.000 A 
ATOM     26  C   UNL     1       4.334   4.529  18.077  0.00  0.00    +0.000 A 
ENDBRANCH  20  21
ENDBRANCH   1  17
BRANCH   6  27
ATOM     27  C   UNL     1      -0.292  12.792  19.548  0.00  0.00    +0.000 A 
ATOM     28  C   UNL     1       1.093  12.710  20.786  0.00  0.00    +0.000 A 
ATOM     29  C   UNL     1       0.529  11.606  21.083  0.00  0.00    +0.000 A 
ATOM     30  C   UNL     1      -0.973  10.762  20.095  0.00  0.00    +0.000 A 
ATOM     31  C   UNL     1      -1.789  10.871  18.847  0.00  0.00    +0.000 A 
ATOM     32  C   UNL     1      -1.599  12.090  18.440  0.00  0.00    +0.000 A 
ENDBRANCH   6  27
TORSDOF 3
ENDMDL
MODEL 2
REMARK VINA RESULT:      -8.0      3.244      8.778
REMARK  Name = 
REMARK  5 active torsions:
REMARK  status: ('A' for Active; 'I' for Inactive)
REMARK    1  A    between atoms: C_1  and  C_2
REMARK    2  A    between atoms: C_4  and  C_5
REMARK    3  A    between atoms: C_10  and  C_11
REMARK    4  A    between atoms: C_23  and  C_24
REMARK    5  A    between atoms: N_25  and  C_26
REMARK                            x       y       z     vdW  Elec       q    Type
REMARK                         _______ _______ _______ _____ _____    ______ ____
ROOT
ATOM      1  C   UNL     1       1.959   7.646  19.777  0.00  0.00    +0.000 C 
ATOM      2  C   UNL     1       2.716   6.833  19.082  0.00  0.00    +0.000 C 
ATOM      3  C   UNL     1       2.133   5.205  20.039  0.00  0.00    +0.000 C 
ATOM      4  N   UNL     1       1.620   5.121  21.263  0.00  0.00    +0.000 NA
ATOM      5  N   UNL     1       2.809   3.554  19.298  0.00  0.00    +0.000 N 
ATOM      6  C   UNL     1       3.060   2.246  19.920  0.00  0.00    +0.000 C 
ATOM      7  C   UNL     1       2.951   2.101  21.268  0.00  0.00    +0.000 C 
ATOM      8  S   UNL     1       4.841   2.020  19.932  0.00  0.00    +0.000 S 
ATOM      9  C   UNL     1       4.275   3.408  18.143  0.00  0.00    +0.000 C 
ATOM     10  N   UNL     1       4.716   4.761  17.353  0.00  0.00    +0.000 NA
ATOM     11  C   UNL     1       4.011   6.470  17.533  0.00  0.00    +0.000 C 
ATOM     12  O   UNL     1       4.234   7.383  16.738  0.00  0.00    +0.000 OA
ATOM     13  H   UNL     1       1.571   5.994  21.782  0.00  0.00    +0.000 HD
ENDROOT
BRANCH   1  17
ATOM     14  C   UNL     1       2.043  12.062  17.793  0.00  0.00    +0.000 C 
ATOM     15  C   UNL     1       1.587  10.886  18.562  0.00  0.00    +0.000 A 
ATOM     16  C   UNL     1       2.154   9.649  18.423  0.00  0.00    +0.000 A 
ATOM     17  C   UNL     1       1.553   8.894  19.393  0.00  0.00    +0.000 A 
ATOM     18  C   UNL     1       0.656   9.592  20.166  0.00  0.00    +0.000 A 
ATOM     19  C   UNL     1      -0.174   9.052  21.305  0.00  0.00    +0.000 C 
ATOM     20  N   UNL     1       0.600  10.841  19.563  0.00  0.00    +0.000 N 
BRANCH  20  21
ATOM     21  C   UNL     1      -0.392  11.809  19.821  0.00  0.00    +0.000 A 
ATOM     22  C   UNL     1      -0.192  12.833  20.754  0.00  0.00    +0.000 A 
ATOM     23  C   UNL     1      -1.260  13.631  21.147  0.00  0.00    +0.000 A 
ATOM     24  C   UNL     1      -2.508  13.444  20.562  0.00  0.00    +0.000 A 
ATOM     25  C   UNL     1      -2.695  12.460  19.593  0.00  0.00    +0.000 A 
ATOM     26  C   UNL     1      -1.644  11.630  19.237  0.00  0.00    +0.000 A 
ENDBRANCH  20  21
ENDBRANCH   1  17
BRANCH   6  27
ATOM     27  C   UNL     1       2.801   3.598  19.276  0.00  0.00    +0.000 A 
ATOM     28  C   UNL     1       4.163   4.563  20.095  0.00  0.00    +0.000 A 
ATOM     29  C   UNL     1       3.952   5.354  19.119  0.00  0.00    +0.000 A 
ATOM     30  C   UNL     1       2.478   5.207  17.797  0.00  0.00    +0.000 A 
ATOM     31  C   UNL     1       1.219   4.460  17.493  0.00  0.00    +0.000 A 
ATOM     32  C   UNL     1       1.301   3.381  18.212  0.00  0.00    +0.000 A 
ENDBRANCH   6  27
TORSDOF 3
ENDMDL
MODEL 3
REMARK VINA RESULT:      -7.7      1.801      3.011
REMARK  Name = 
REMARK  5 active torsions:
REMARK  status: ('A' for Active; 'I' for Inactive)
REMARK    1  A    between atoms: C_1  and  C_2
REMARK    2  A    between atoms: C_4  and  C_5
REMARK    3  A    between atoms: C_10  and  C_11
REMARK    4  A    between atoms: C_23  and  C_24
REMARK    5  A    between atoms: N_25  and  C_26
REMARK                            x       y       z     vdW  Elec       q    Type
REMARK                         _______ _______ _______ _____ _____    ______ ____
ROOT
ATOM      1  C   UNL     1       1.639   8.332  20.059  0.00  0.00    +0.000 C 
ATOM      2  C   UNL     1       0.786   9.174  19.532  0.00  0.00    +0.000 C 
ATOM      3  C   UNL     1       0.783  10.400  21.083  0.00  0.00    +0.000 C 
ATOM      4  N   UNL     1       1.096  10.118  22.344  0.00  0.00    +0.000 NA
ATOM      5  N   UNL     1      -0.213  12.034  20.811  0.00  0.00    +0.000 N 
ATOM      6  C   UNL     1      -0.883  12.928  21.766  0.00  0.00    +0.000 C 
ATOM      7  C   UNL     1      -0.988  12.571  23.075  0.00  0.00    +0.000 C 
ATOM      8  S   UNL     1      -2.646  12.763  21.468  0.00  0.00    +0.000 S 
ATOM      9  C   UNL     1      -1.506  12.303  19.484  0.00  0.00    +0.000 C 
ATOM     10  N   UNL     1      -1.464  11.291  18.211  0.00  0.00    +0.000 NA
ATOM     11  C   UNL     1      -0.353   9.824  17.954  0.00  0.00    +0.000 C 
ATOM     12  O   UNL     1      -0.220   9.256  16.871  0.00  0.00    +0.000 OA
ATOM     13  H   UNL     1       1.312   9.143  22.537  0.00  0.00    +0.000 HD
ENDROOT
BRANCH   1  17
ATOM     14  C   UNL     1       4.458   6.434  16.611  0.00  0.00    +0.000 C 
ATOM     15  C   UNL     1       3.625   6.550  17.826  0.00  0.00    +0.000 A 
ATOM     16  C   UNL     1       3.283   7.756  18.373  0.00  0.00    +0.000 A 
ATOM     17  C   UNL     1       2.411   7.434  19.377  0.00  0.00    +0.000 A 
ATOM     18  C   UNL     1       2.151   6.088  19.477  0.00  0.00    +0.000 A 
ATOM     19  C   UNL     1       1.246   5.411  20.477  0.00  0.00    +0.000 C 
ATOM     20  N   UNL     1       3.012   5.514  18.552  0.00  0.00    +0.000 N 
BRANCH  20  21
ATOM     21  C   UNL     1       3.318   4.138  18.492  0.00  0.00    +0.000 A 
ATOM     22  C   UNL     1       2.606   3.264  17.663  0.00  0.00    +0.000 A 
ATOM     23  C   UNL     1       2.780   1.892  17.790  0.00  0.00    +0.000 A 
ATOM     24  C   UNL     1       3.708   1.399  18.702  0.00  0.00    +0.000 A 
ATOM     25  C   UNL     1       4.457   2.271  19.489  0.00  0.00    +0.000 A 
ATOM     26  C   UNL     1       4.250   3.638  19.400  0.00  0.00    +0.000 A 
ENDBRANCH  20  21
ENDBRANCH   1  17
BRANCH   6  27
ATOM     27  C   UNL     1      -0.190  12.004  20.778  0.00  0.00    +0.000 A 
ATOM     28  C   UNL     1      -1.326  10.539  20.923  0.00  0.00    +0.000 A 
ATOM     29  C   UNL     1      -0.793  10.235  19.806  0.00  0.00    +0.000 A 
ATOM     30  C   UNL     1       0.732  11.176  18.949  0.00  0.00    +0.000 A 
ATOM     31  C   UNL     1       1.766  12.229  19.184  0.00  0.00    +0.000 A 
ATOM     32  C   UNL     1       1.309  12.916  20.188  0.00  0.00    +0.000 A 
ENDBRANCH   6  27
TORSDOF 3
ENDMDL
MODEL 4
REMARK VINA RESULT:      -7.6      3.099      8.627
REMARK  Name = 
REMARK  5 active torsions:
REMARK  status: ('A' for Active; 'I' for Inactive)
REMARK    1  A    between atoms: C_1  and  C_2
REMARK    2  A    between atoms: C_4  and  C_5
REMARK    3  A    between atoms: C_10  and  C_11
REMARK    4  A    between atoms: C_23  and  C_24
REMARK    5  A    between atoms: N_25  and  C_26
REMARK                            x       y       z     vdW  Elec       q    Type
REMARK                         _______ _______ _______ _____ _____    ______ ____
ROOT
ATOM      1  C   UNL     1       1.513   7.844  20.428  0.00  0.00    +0.000 C 
ATOM      2  C   UNL     1       2.252   7.457  19.418  0.00  0.00    +0.000 C 
ATOM      3  C   UNL     1       2.388   5.580  20.022  0.00  0.00    +0.000 C 
ATOM      4  N   UNL     1       2.250   5.111  21.259  0.00  0.00    +0.000 NA
ATOM      5  N   UNL     1       3.262   4.396  18.770  0.00  0.00    +0.000 N 
ATOM      6  C   UNL     1       4.001   3.143  18.978  0.00  0.00    +0.000 C 
ATOM      7  C   UNL     1       4.286   2.722  20.240  0.00  0.00    +0.000 C 
ATOM      8  S   UNL     1       5.719   3.494  18.592  0.00  0.00    +0.000 S 
ATOM      9  C   UNL     1       4.364   4.939  17.358  0.00  0.00    +0.000 C 
ATOM     10  N   UNL     1       4.212   6.484  16.869  0.00  0.00    +0.000 NA
ATOM     11  C   UNL     1       3.151   7.817  17.609  0.00  0.00    +0.000 C 
ATOM     12  O   UNL     1       2.912   8.884  17.046  0.00  0.00    +0.000 OA
ATOM     13  H   UNL     1       2.107   5.811  21.983  0.00  0.00    +0.000 HD
ENDROOT
BRANCH   1  17
ATOM     14  C   UNL     1      -0.944  11.742  18.942  0.00  0.00    +0.000 C 
ATOM     15  C   UNL     1      -0.354  10.719  19.829  0.00  0.00    +0.000 A 
ATOM     16  C   UNL     1       0.135   9.531  19.362  0.00  0.00    +0.000 A 
ATOM     17  C   UNL     1       0.706   8.948  20.459  0.00  0.00    +0.000 A 
ATOM     18  C   UNL     1       0.638   9.717  21.597  0.00  0.00    +0.000 A 
ATOM     19  C   UNL     1       1.162   9.359  22.966  0.00  0.00    +0.000 C 
ATOM     20  N   UNL     1      -0.136  10.804  21.216  0.00  0.00    +0.000 N 
BRANCH  20  21
ATOM     21  C   UNL     1      -0.722  11.721  22.113  0.00  0.00    +0.000 A 
ATOM     22  C   UNL     1      -1.869  11.398  22.847  0.00  0.00    +0.000 A 
ATOM     23  C   UNL     1      -2.546  12.388  23.547  0.00  0.00    +0.000 A 
ATOM     24  C   UNL     1      -2.041  13.684  23.563  0.00  0.00    +0.000 A 
ATOM     25  C   UNL     1      -0.869  13.995  22.877  0.00  0.00    +0.000 A 
ATOM     26  C   UNL     1      -0.220  13.020  22.137  0.00  0.00    +0.000 A 
ENDBRANCH  20  21
ENDBRANCH   1  17
BRANCH   6  27
ATOM     27  C   UNL     1       3.236   4.438  18.762  0.00  0.00    +0.000 A 
ATOM     28  C   UNL     1       4.455   5.613  19.531  0.00  0.00    +0.000 A 
ATOM     29  C   UNL     1       3.800   6.466  18.847  0.00  0.00    +0.000 A 
ATOM     30  C   UNL     1       2.131   6.109  17.830  0.00  0.00    +0.000 A 
ATOM     31  C   UNL     1       1.083   5.073  17.586  0.00  0.00    +0.000 A 
ATOM     32  C   UNL     1       1.629   3.960  17.977  0.00  0.00    +0.000 A 
ENDBRANCH   6  27
TORSDOF 3
ENDMDL
MODEL 5
REMARK VINA RESULT:      -7.6      1.464      2.106
REMARK  Name = 
REMARK  5 active torsions:
REMARK  status: ('A' for Active; 'I' for Inactive)
REMARK    1  A    between atoms: C_1  and  C_2
REMARK    2  A    between atoms: C_4  and  C_5
REMARK    3  A    between atoms: C_10  and  C_11
REMARK    4  A    between atoms: C_23  and  C_24
REMARK    5  A    between atoms: N_25  and  C_26
REMARK                            x       y       z     vdW  Elec       q    Type
REMARK                         _______ _______ _______ _____ _____    ______ ____
ROOT
ATOM      1  C   UNL     1       2.346   8.971  18.385  0.00  0.00    +0.000 C 
ATOM      2  C   UNL     1       1.487   9.352  19.298  0.00  0.00    +0.000 C 
ATOM      3  C   UNL     1       1.216  11.152  18.528  0.00  0.00    +0.000 C 
ATOM      4  N   UNL     1       2.042  11.833  17.739  0.00  0.00    +0.000 NA
ATOM      5  N   UNL     1      -0.170  12.191  19.386  0.00  0.00    +0.000 N 
ATOM      6  C   UNL     1      -0.359  13.644  19.502  0.00  0.00    +0.000 C 
ATOM      7  C   UNL     1       0.616  14.493  19.076  0.00  0.00    +0.000 C 
ATOM      8  S   UNL     1      -0.111  14.054  21.232  0.00  0.00    +0.000 S 
ATOM      9  C   UNL     1      -0.876  11.854  21.087  0.00  0.00    +0.000 C 
ATOM     10  N   UNL     1      -0.654  10.356  21.683  0.00  0.00    +0.000 NA
ATOM     11  C   UNL     1       0.309   8.958  20.930  0.00  0.00    +0.000 C 
ATOM     12  O   UNL     1       0.233   7.794  21.322  0.00  0.00    +0.000 OA
ATOM     13  H   UNL     1       2.939  11.392  17.555  0.00  0.00    +0.000 HD
ENDROOT
BRANCH   1  17
ATOM     14  C   UNL     1       2.243   4.131  18.326  0.00  0.00    +0.000 C 
ATOM     15  C   UNL     1       2.667   5.521  18.061  0.00  0.00    +0.000 A 
ATOM     16  C   UNL     1       1.858   6.597  18.302  0.00  0.00    +0.000 A 
ATOM     17  C   UNL     1       2.659   7.680  18.063  0.00  0.00    +0.000 A 
ATOM     18  C   UNL     1       3.948   7.352  17.715  0.00  0.00    +0.000 A 
ATOM     19  C   UNL     1       5.068   8.306  17.380  0.00  0.00    +0.000 C 
ATOM     20  N   UNL     1       3.921   5.968  17.609  0.00  0.00    +0.000 N 
BRANCH  20  21
ATOM     21  C   UNL     1       4.929   5.194  16.998  0.00  0.00    +0.000 A 
ATOM     22  C   UNL     1       6.147   4.939  17.638  0.00  0.00    +0.000 A 
ATOM     23  C   UNL     1       7.197   4.368  16.929  0.00  0.00    +0.000 A 
ATOM     24  C   UNL     1       7.007   3.998  15.602  0.00  0.00    +0.000 A 
ATOM     25  C   UNL     1       5.777   4.201  14.979  0.00  0.00    +0.000 A 
ATOM     26  C   UNL     1       4.745   4.816  15.670  0.00  0.00    +0.000 A 
ENDBRANCH  20  21
ENDBRANCH   1  17
BRANCH   6  27
ATOM     27  C   UNL     1      -0.164  12.141  19.383  0.00  0.00    +0.000 A 
ATOM     28  C   UNL     1       1.300  11.959  20.514  0.00  0.00    +0.000 A 
ATOM     29  C   UNL     1       0.920  10.742  20.524  0.00  0.00    +0.000 A 
ATOM     30  C   UNL     1      -0.509   9.959  19.389  0.00  0.00    +0.000 A 
ATOM     31  C   UNL     1      -1.416  10.257  18.240  0.00  0.00    +0.000 A 
ATOM     32  C   UNL     1      -1.431  11.554  18.166  0.00  0.00    +0.000 A 
ENDBRANCH   6  27
TORSDOF 3
ENDMDL
MODEL 6
REMARK VINA RESULT:      -7.6      6.246      8.064
REMARK  Name = 
REMARK  5 active torsions:
REMARK  status: ('A' for Active; 'I' for Inactive)
REMARK    1  A    between atoms: C_1  and  C_2
REMARK    2  A    between atoms: C_4  and  C_5
REMARK    3  A    between atoms: C_10  and  C_11
REMARK    4  A    between atoms: C_23  and  C_24
REMARK    5  A    between atoms: N_25  and  C_26
REMARK                            x       y       z     vdW  Elec       q    Type
REMARK                         _______ _______ _______ _____ _____    ______ ____
ROOT
ATOM      1  C   UNL     1       5.578  15.839  19.512  0.00  0.00    +0.000 C 
ATOM      2  C   UNL     1       4.533  15.452  20.202  0.00  0.00    +0.000 C 
ATOM      3  C   UNL     1       3.218  16.004  18.833  0.00  0.00    +0.000 C 
ATOM      4  N   UNL     1       3.370  16.919  17.881  0.00  0.00    +0.000 NA
ATOM      5  N   UNL     1       1.395  15.494  19.222  0.00  0.00    +0.000 N 
ATOM      6  C   UNL     1       0.115  16.086  18.807  0.00  0.00    +0.000 C 
ATOM      7  C   UNL     1       0.098  17.270  18.138  0.00  0.00    +0.000 C 
ATOM      8  S   UNL     1      -0.627  16.786  20.284  0.00  0.00    +0.000 S 
ATOM      9  C   UNL     1       0.746  15.004  20.909  0.00  0.00    +0.000 C 
ATOM     10  N   UNL     1       1.852  14.534  22.006  0.00  0.00    +0.000 NA
ATOM     11  C   UNL     1       3.701  14.522  21.830  0.00  0.00    +0.000 C 
ATOM     12  O   UNL     1       4.453  13.935  22.608  0.00  0.00    +0.000 OA
ATOM     13  H   UNL     1       4.250  17.427  17.894  0.00  0.00    +0.000 HD
ENDROOT
BRANCH   1  17
ATOM     14  C   UNL     1      10.218  15.734  20.888  0.00  0.00    +0.000 C 
ATOM     15  C   UNL     1       8.947  15.356  20.238  0.00  0.00    +0.000 A 
ATOM     16  C   UNL     1       7.744  15.898  20.600  0.00  0.00    +0.000 A 
ATOM     17  C   UNL     1       6.861  15.401  19.681  0.00  0.00    +0.000 A 
ATOM     18  C   UNL     1       7.443  14.596  18.730  0.00  0.00    +0.000 A 
ATOM     19  C   UNL     1       6.748  13.890  17.592  0.00  0.00    +0.000 C 
ATOM     20  N   UNL     1       8.760  14.482  19.152  0.00  0.00    +0.000 N 
BRANCH  20  21
ATOM     21  C   UNL     1       9.677  13.529  18.662  0.00  0.00    +0.000 A 
ATOM     22  C   UNL     1       9.902  12.319  19.329  0.00  0.00    +0.000 A 
ATOM     23  C   UNL     1      10.962  11.505  18.950  0.00  0.00    +0.000 A 
ATOM     24  C   UNL     1      11.756  11.873  17.868  0.00  0.00    +0.000 A 
ATOM     25  C   UNL     1      11.499  13.050  17.169  0.00  0.00    +0.000 A 
ATOM     26  C   UNL     1      10.473  13.888  17.577  0.00  0.00    +0.000 A 
ENDBRANCH  20  21
ENDBRANCH   1  17
BRANCH   6  27
ATOM     27  C   UNL     1       1.438  15.473  19.237  0.00  0.00    +0.000 A 
ATOM     28  C   UNL     1       2.020  16.830  20.367  0.00  0.00    +0.000 A 
ATOM     29  C   UNL     1       2.771  15.901  20.810  0.00  0.00    +0.000 A 
ATOM     30  C   UNL     1       2.968  14.087  20.025  0.00  0.00    +0.000 A 
ATOM     31  C   UNL     1       2.599  13.256  18.840  0.00  0.00    +0.000 A 
ATOM     32  C   UNL     1       1.593  13.881  18.305  0.00  0.00    +0.000 A 
ENDBRANCH   6  27
TORSDOF 3
ENDMDL
MODEL 7
REMARK VINA RESULT:      -7.5      7.876     11.229
REMARK  Name = 
REMARK  5 active torsions:
REMARK  status: ('A' for Active; 'I' for Inactive)
REMARK    1  A    between atoms: C_1  and  C_2
REMARK    2  A    between atoms: C_4  and  C_5
REMARK    3  A    between atoms: C_10  and  C_11
REMARK    4  A    between atoms: C_23  and  C_24
REMARK    5  A    between atoms: N_25  and  C_26
REMARK                            x       y       z     vdW  Elec       q    Type
REMARK                         _______ _______ _______ _____ _____    ______ ____
ROOT
ATOM      1  C   UNL     1       6.105  15.089  18.899  0.00  0.00    +0.000 C 
ATOM      2  C   UNL     1       7.186  15.043  19.637  0.00  0.00    +0.000 C 
ATOM      3  C   UNL     1       8.282  14.129  18.269  0.00  0.00    +0.000 C 
ATOM      4  N   UNL     1       7.858  13.377  17.257  0.00  0.00    +0.000 NA
ATOM      5  N   UNL     1      10.148  13.936  18.733  0.00  0.00    +0.000 N 
ATOM      6  C   UNL     1      11.152  12.949  18.312  0.00  0.00    +0.000 C 
ATOM      7  C   UNL     1      10.779  11.872  17.570  0.00  0.00    +0.000 C 
ATOM      8  S   UNL     1      11.530  11.957  19.760  0.00  0.00    +0.000 S 
ATOM      9  C   UNL     1      10.851  14.077  20.462  0.00  0.00    +0.000 C 
ATOM     10  N   UNL     1       9.934  14.854  21.560  0.00  0.00    +0.000 NA
ATOM     11  C   UNL     1       8.220  15.533  21.340  0.00  0.00    +0.000 C 
ATOM     12  O   UNL     1       7.690  16.309  22.135  0.00  0.00    +0.000 OA
ATOM     13  H   UNL     1       6.855  13.216  17.216  0.00  0.00    +0.000 HD
ENDROOT
BRANCH   1  17
ATOM     14  C   UNL     1       3.183  18.392  20.896  0.00  0.00    +0.000 C 
ATOM     15  C   UNL     1       3.708  17.379  19.959  0.00  0.00    +0.000 A 
ATOM     16  C   UNL     1       5.014  16.972  19.969  0.00  0.00    +0.000 A 
ATOM     17  C   UNL     1       5.053  15.947  19.064  0.00  0.00    +0.000 A 
ATOM     18  C   UNL     1       3.834  15.655  18.501  0.00  0.00    +0.000 A 
ATOM     19  C   UNL     1       3.542  14.593  17.469  0.00  0.00    +0.000 C 
ATOM     20  N   UNL     1       2.994  16.644  18.996  0.00  0.00    +0.000 N 
BRANCH  20  21
ATOM     21  C   UNL     1       1.714  16.936  18.482  0.00  0.00    +0.000 A 
ATOM     22  C   UNL     1       1.537  17.827  17.417  0.00  0.00    +0.000 A 
ATOM     23  C   UNL     1       0.261  18.262  17.082  0.00  0.00    +0.000 A 
ATOM     24  C   UNL     1      -0.838  17.760  17.771  0.00  0.00    +0.000 A 
ATOM     25  C   UNL     1      -0.667  16.831  18.795  0.00  0.00    +0.000 A 
ATOM     26  C   UNL     1       0.608  16.433  19.164  0.00  0.00    +0.000 A 
ENDBRANCH  20  21
ENDBRANCH   1  17
BRANCH   6  27
ATOM     27  C   UNL     1      10.114  13.970  18.748  0.00  0.00    +0.000 A 
ATOM     28  C   UNL     1       9.058  12.861  19.802  0.00  0.00    +0.000 A 
ATOM     29  C   UNL     1       8.665  13.977  20.276  0.00  0.00    +0.000 A 
ATOM     30  C   UNL     1       9.141  15.773  19.574  0.00  0.00    +0.000 A 
ATOM     31  C   UNL     1       9.816  16.468  18.436  0.00  0.00    +0.000 A 
ATOM     32  C   UNL     1      10.556  15.550  17.890  0.00  0.00    +0.000 A 
ENDBRANCH   6  27
TORSDOF 3
ENDMDL
MODEL 8
REMARK VINA RESULT:      -7.3      3.447      8.643
REMARK  Name = 
REMARK  5 active torsions:
REMARK  status: ('A' for Active; 'I' for Inactive)
REMARK    1  A    between atoms: C_1  and  C_2
REMARK    2  A    between atoms: C_4  and  C_5
REMARK    3  A    between atoms: C_10  and  C_11
REMARK    4  A    between atoms: C_23  and  C_24
REMARK    5  A    between atoms: N_25  and  C_26
REMARK                            x       y       z     vdW  Elec       q    Type
REMARK                         _______ _______ _______ _____ _____    ______ ____
ROOT
ATOM      1  C   UNL     1       2.953   7.678  18.342  0.00  0.00    +0.000 C 
ATOM      2  C   UNL     1       3.159   6.389  18.240  0.00  0.00    +0.000 C 
ATOM      3  C   UNL     1       4.900   6.571  17.321  0.00  0.00    +0.000 C 
ATOM      4  N   UNL     1       5.341   7.604  16.611  0.00  0.00    +0.000 NA
ATOM      5  N   UNL     1       5.842   4.905  17.051  0.00  0.00    +0.000 N 
ATOM      6  C   UNL     1       6.831   4.506  16.040  0.00  0.00    +0.000 C 
ATOM      7  C   UNL     1       7.107   5.332  14.995  0.00  0.00    +0.000 C 
ATOM      8  S   UNL     1       6.031   3.281  14.999  0.00  0.00    +0.000 S 
ATOM      9  C   UNL     1       5.067   3.202  17.124  0.00  0.00    +0.000 C 
ATOM     10  N   UNL     1       3.645   3.082  17.905  0.00  0.00    +0.000 NA
ATOM     11  C   UNL     1       2.632   4.449  18.650  0.00  0.00    +0.000 C 
ATOM     12  O   UNL     1       1.696   4.255  19.424  0.00  0.00    +0.000 OA
ATOM     13  H   UNL     1       4.681   8.368  16.486  0.00  0.00    +0.000 HD
ENDROOT
BRANCH   1  17
ATOM     14  C   UNL     1      -0.259   8.281  21.914  0.00  0.00    +0.000 C 
ATOM     15  C   UNL     1       0.646   8.581  20.786  0.00  0.00    +0.000 A 
ATOM     16  C   UNL     1       1.609   7.708  20.360  0.00  0.00    +0.000 A 
ATOM     17  C   UNL     1       2.117   8.292  19.233  0.00  0.00    +0.000 A 
ATOM     18  C   UNL     1       1.507   9.477  18.897  0.00  0.00    +0.000 A 
ATOM     19  C   UNL     1       1.838  10.368  17.724  0.00  0.00    +0.000 C 
ATOM     20  N   UNL     1       0.638   9.714  19.953  0.00  0.00    +0.000 N 
BRANCH  20  21
ATOM     21  C   UNL     1       0.003  10.948  20.204  0.00  0.00    +0.000 A 
ATOM     22  C   UNL     1       0.515  11.860  21.135  0.00  0.00    +0.000 A 
ATOM     23  C   UNL     1      -0.245  12.957  21.521  0.00  0.00    +0.000 A 
ATOM     24  C   UNL     1      -1.487  13.173  20.931  0.00  0.00    +0.000 A 
ATOM     25  C   UNL     1      -1.973  12.295  19.965  0.00  0.00    +0.000 A 
ATOM     26  C   UNL     1      -1.239  11.173  19.615  0.00  0.00    +0.000 A 
ENDBRANCH  20  21
ENDBRANCH   1  17
BRANCH   6  27
ATOM     27  C   UNL     1       5.808   4.918  17.086  0.00  0.00    +0.000 A 
ATOM     28  C   UNL     1       4.298   4.952  16.001  0.00  0.00    +0.000 A 
ATOM     29  C   UNL     1       3.703   4.876  17.125  0.00  0.00    +0.000 A 
ATOM     30  C   UNL     1       4.565   4.992  18.911  0.00  0.00    +0.000 A 
ATOM     31  C   UNL     1       5.860   5.296  19.591  0.00  0.00    +0.000 A 
ATOM     32  C   UNL     1       6.754   5.172  18.657  0.00  0.00    +0.000 A 
ENDBRANCH   6  27
TORSDOF 3
ENDMDL
MODEL 9
REMARK VINA RESULT:      -7.3      1.546      2.269
REMARK  Name = 
REMARK  5 active torsions:
REMARK  status: ('A' for Active; 'I' for Inactive)
REMARK    1  A    between atoms: C_1  and  C_2
REMARK    2  A    between atoms: C_4  and  C_5
REMARK    3  A    between atoms: C_10  and  C_11
REMARK    4  A    between atoms: C_23  and  C_24
REMARK    5  A    between atoms: N_25  and  C_26
REMARK                            x       y       z     vdW  Elec       q    Type
REMARK                         _______ _______ _______ _____ _____    ______ ____
ROOT
ATOM      1  C   UNL     1       1.063   9.182  20.558  0.00  0.00    +0.000 C 
ATOM      2  C   UNL     1       0.409  10.001  19.774  0.00  0.00    +0.000 C 
ATOM      3  C   UNL     1       1.061  11.641  20.663  0.00  0.00    +0.000 C 
ATOM      4  N   UNL     1       1.513  11.767  21.908  0.00  0.00    +0.000 NA
ATOM      5  N   UNL     1       0.551  13.286  19.786  0.00  0.00    +0.000 N 
ATOM      6  C   UNL     1       0.367  14.646  20.313  0.00  0.00    +0.000 C 
ATOM      7  C   UNL     1       0.416  14.869  21.654  0.00  0.00    +0.000 C 
ATOM      8  S   UNL     1      -1.390  15.000  20.208  0.00  0.00    +0.000 S 
ATOM      9  C   UNL     1      -0.836  13.462  18.542  0.00  0.00    +0.000 C 
ATOM     10  N   UNL     1      -1.336  12.096  17.811  0.00  0.00    +0.000 NA
ATOM     11  C   UNL     1      -0.772  10.357  18.134  0.00  0.00    +0.000 C 
ATOM     12  O   UNL     1      -1.020   9.413  17.384  0.00  0.00    +0.000 OA
ATOM     13  H   UNL     1       1.469  10.928  22.480  0.00  0.00    +0.000 HD
ENDROOT
BRANCH   1  17
ATOM     14  C   UNL     1       2.085   4.492  21.190  0.00  0.00    +0.000 C 
ATOM     15  C   UNL     1       1.905   5.805  20.539  0.00  0.00    +0.000 A 
ATOM     16  C   UNL     1       1.206   6.827  21.120  0.00  0.00    +0.000 A 
ATOM     17  C   UNL     1       1.395   7.886  20.275  0.00  0.00    +0.000 A 
ATOM     18  C   UNL     1       2.205   7.604  19.201  0.00  0.00    +0.000 A 
ATOM     19  C   UNL     1       2.599   8.545  18.089  0.00  0.00    +0.000 C 
ATOM     20  N   UNL     1       2.444   6.241  19.315  0.00  0.00    +0.000 N 
BRANCH  20  21
ATOM     21  C   UNL     1       2.985   5.437  18.291  0.00  0.00    +0.000 A 
ATOM     22  C   UNL     1       2.254   4.391  17.716  0.00  0.00    +0.000 A 
ATOM     23  C   UNL     1       2.886   3.483  16.876  0.00  0.00    +0.000 A 
ATOM     24  C   UNL     1       4.230   3.658  16.564  0.00  0.00    +0.000 A 
ATOM     25  C   UNL     1       4.946   4.730  17.093  0.00  0.00    +0.000 A 
ATOM     26  C   UNL     1       4.330   5.608  17.971  0.00  0.00    +0.000 A 
ENDBRANCH  20  21
ENDBRANCH   1  17
BRANCH   6  27
ATOM     27  C   UNL     1       0.558  13.240  19.768  0.00  0.00    +0.000 A 
ATOM     28  C   UNL     1      -0.921  12.433  20.555  0.00  0.00    +0.000 A 
ATOM     29  C   UNL     1      -0.716  11.568  19.642  0.00  0.00    +0.000 A 
ATOM     30  C   UNL     1       0.840  11.521  18.409  0.00  0.00    +0.000 A 
ATOM     31  C   UNL     1       2.168  12.151  18.142  0.00  0.00    +0.000 A 
ATOM     32  C   UNL     1       2.129  13.277  18.789  0.00  0.00    +0.000 A 
ENDBRANCH   6  27
TORSDOF 3
ENDMDL
