MODEL 1
REMARK VINA RESULT:      -7.3      0.000      0.000
REMARK  Name = 
REMARK  4 active torsions:
REMARK  status: ('A' for Active; 'I' for Inactive)
REMARK    1  A    between atoms: N_3  and  C_4
REMARK    2  A    between atoms: C_4  and  C_5
REMARK    3  A    between atoms: N_14  and  C_15
REMARK    4  A    between atoms: C_15  and  C_16
REMARK                            x       y       z     vdW  Elec       q    Type
REMARK                         _______ _______ _______ _____ _____    ______ ____
ROOT
ATOM      1  O   UNL     1       7.888   6.526  15.436  0.00  0.00    +0.000 OA
ATOM      2  C   UNL     1       7.099   5.636  15.709  0.00  0.00    +0.000 C 
ATOM      3  N   UNL     1       6.591   4.663  14.838  0.00  0.00    +0.000 N 
ATOM      4  C   UNL     1       5.841   3.657  15.579  0.00  0.00    +0.000 C 
ATOM      5  C   UNL     1       5.503   4.392  16.873  0.00  0.00    +0.000 C 
ATOM      6  C   UNL     1       5.425   3.555  18.165  0.00  0.00    +0.000 C 
ATOM      7  N   UNL     1       5.343   4.391  19.405  0.00  0.00    +0.000 NA
ATOM      8  C   UNL     1       6.521   5.306  19.427  0.00  0.00    +0.000 C 
ATOM      9  C   UNL     1       6.737   6.165  18.161  0.00  0.00    +0.000 C 
ATOM     10  N   UNL     1       6.565   5.372  16.960  0.00  0.00    +0.000 N 
ENDROOT
BRANCH   3  11
ATOM     11  C   UNL     1       7.184   4.408  13.544  0.00  0.00    +0.000 C 
BRANCH  11  12
ATOM     12  C   UNL     1       6.290   3.665  12.581  0.00  0.00    +0.000 A 
ATOM     13  C   UNL     1       6.701   2.455  12.003  0.00  0.00    +0.000 A 
ATOM     14  C   UNL     1       5.819   1.701  11.225  0.00  0.00    +0.000 A 
ATOM     15  C   UNL     1       4.516   2.148  11.015  0.00  0.00    +0.000 A 
ATOM     16  C   UNL     1       4.097   3.354  11.572  0.00  0.00    +0.000 A 
ATOM     17  C   UNL     1       4.978   4.108  12.349  0.00  0.00    +0.000 A 
ENDBRANCH  11  12
ENDBRANCH   3  11
BRANCH   7  18
ATOM     18  C   UNL     1       4.053   5.115  19.442  0.00  0.00    +0.000 C 
BRANCH  18  19
ATOM     19  C   UNL     1       2.857   4.317  19.918  0.00  0.00    +0.000 A 
ATOM     20  C   UNL     1       2.828   3.848  21.244  0.00  0.00    +0.000 A 
ATOM     21  C   UNL     1       1.771   3.059  21.704  0.00  0.00    +0.000 A 
ATOM     22  C   UNL     1       0.723   2.728  20.851  0.00  0.00    +0.000 A 
ATOM     23  C   UNL     1       0.730   3.185  19.535  0.00  0.00    +0.000 A 
ATOM     24  C   UNL     1       1.792   3.965  19.067  0.00  0.00    +0.000 A 
ATOM     25 CL   UNL     1       1.729   4.435  17.404  0.00  0.00    +0.000 Cl
ENDBRANCH  18  19
ENDBRANCH   7  18
TORSDOF 4
ENDMDL
MODEL 2
REMARK VINA RESULT:      -7.3      7.308      9.061
REMARK  Name = 
REMARK  4 active torsions:
REMARK  status: ('A' for Active; 'I' for Inactive)
REMARK    1  A    between atoms: N_3  and  C_4
REMARK    2  A    between atoms: C_4  and  C_5
REMARK    3  A    between atoms: N_14  and  C_15
REMARK    4  A    between atoms: C_15  and  C_16
REMARK                            x       y       z     vdW  Elec       q    Type
REMARK                         _______ _______ _______ _____ _____    ______ ____
ROOT
ATOM      1  O   UNL     1       2.417   8.708  17.566  0.00  0.00    +0.000 OA
ATOM      2  C   UNL     1       1.927   8.744  18.683  0.00  0.00    +0.000 C 
ATOM      3  N   UNL     1       1.923   7.716  19.636  0.00  0.00    +0.000 N 
ATOM      4  C   UNL     1       1.425   8.208  20.914  0.00  0.00    +0.000 C 
ATOM      5  C   UNL     1       0.648   9.454  20.502  0.00  0.00    +0.000 C 
ATOM      6  C   UNL     1       0.624  10.636  21.491  0.00  0.00    +0.000 C 
ATOM      7  N   UNL     1       0.060  11.891  20.898  0.00  0.00    +0.000 NA
ATOM      8  C   UNL     1       0.853  12.225  19.679  0.00  0.00    +0.000 C 
ATOM      9  C   UNL     1       0.993  11.099  18.631  0.00  0.00    +0.000 C 
ATOM     10  N   UNL     1       1.300   9.833  19.266  0.00  0.00    +0.000 N 
ENDROOT
BRANCH   3  11
ATOM     11  C   UNL     1       2.781   6.558  19.518  0.00  0.00    +0.000 C 
BRANCH  11  12
ATOM     12  C   UNL     1       2.048   5.249  19.357  0.00  0.00    +0.000 A 
ATOM     13  C   UNL     1       1.895   4.660  18.093  0.00  0.00    +0.000 A 
ATOM     14  C   UNL     1       1.341   3.383  17.965  0.00  0.00    +0.000 A 
ATOM     15  C   UNL     1       0.933   2.681  19.098  0.00  0.00    +0.000 A 
ATOM     16  C   UNL     1       1.067   3.258  20.358  0.00  0.00    +0.000 A 
ATOM     17  C   UNL     1       1.620   4.534  20.487  0.00  0.00    +0.000 A 
ENDBRANCH  11  12
ENDBRANCH   3  11
BRANCH   7  18
ATOM     18  C   UNL     1      -1.381  11.712  20.614  0.00  0.00    +0.000 C 
BRANCH  18  19
ATOM     19  C   UNL     1      -2.333  12.499  21.493  0.00  0.00    +0.000 A 
ATOM     20  C   UNL     1      -1.914  12.897  22.774  0.00  0.00    +0.000 A 
ATOM     21  C   UNL     1      -2.782  13.572  23.636  0.00  0.00    +0.000 A 
ATOM     22  C   UNL     1      -4.080  13.865  23.232  0.00  0.00    +0.000 A 
ATOM     23  C   UNL     1      -4.515  13.482  21.965  0.00  0.00    +0.000 A 
ATOM     24  C   UNL     1      -3.653  12.796  21.104  0.00  0.00    +0.000 A 
ATOM     25 CL   UNL     1      -4.308  12.321  19.575  0.00  0.00    +0.000 Cl
ENDBRANCH  18  19
ENDBRANCH   7  18
TORSDOF 4
ENDMDL
MODEL 3
REMARK VINA RESULT:      -7.2      7.336      9.101
REMARK  Name = 
REMARK  4 active torsions:
REMARK  status: ('A' for Active; 'I' for Inactive)
REMARK    1  A    between atoms: N_3  and  C_4
REMARK    2  A    between atoms: C_4  and  C_5
REMARK    3  A    between atoms: N_14  and  C_15
REMARK    4  A    between atoms: C_15  and  C_16
REMARK                            x       y       z     vdW  Elec       q    Type
REMARK                         _______ _______ _______ _____ _____    ______ ____
ROOT
ATOM      1  O   UNL     1       2.172   8.891  17.316  0.00  0.00    +0.000 OA
ATOM      2  C   UNL     1       1.846   8.842  18.491  0.00  0.00    +0.000 C 
ATOM      3  N   UNL     1       2.006   7.759  19.366  0.00  0.00    +0.000 N 
ATOM      4  C   UNL     1       1.684   8.155  20.731  0.00  0.00    +0.000 C 
ATOM      5  C   UNL     1       0.823   9.395  20.515  0.00  0.00    +0.000 C 
ATOM      6  C   UNL     1       0.910  10.513  21.573  0.00  0.00    +0.000 C 
ATOM      7  N   UNL     1       0.234  11.781  21.148  0.00  0.00    +0.000 NA
ATOM      8  C   UNL     1       0.835  12.216  19.854  0.00  0.00    +0.000 C 
ATOM      9  C   UNL     1       0.852  11.162  18.725  0.00  0.00    +0.000 C 
ATOM     10  N   UNL     1       1.280   9.871  19.227  0.00  0.00    +0.000 N 
ENDROOT
BRANCH   3  11
ATOM     11  C   UNL     1       2.869   6.641  19.053  0.00  0.00    +0.000 C 
BRANCH  11  12
ATOM     12  C   UNL     1       2.232   5.286  19.245  0.00  0.00    +0.000 A 
ATOM     13  C   UNL     1       1.894   4.824  20.525  0.00  0.00    +0.000 A 
ATOM     14  C   UNL     1       1.179   3.634  20.688  0.00  0.00    +0.000 A 
ATOM     15  C   UNL     1       0.795   2.892  19.572  0.00  0.00    +0.000 A 
ATOM     16  C   UNL     1       1.135   3.332  18.295  0.00  0.00    +0.000 A 
ATOM     17  C   UNL     1       1.849   4.520  18.132  0.00  0.00    +0.000 A 
ENDBRANCH  11  12
ENDBRANCH   3  11
BRANCH   7  18
ATOM     18  C   UNL     1      -1.228  11.569  21.060  0.00  0.00    +0.000 C 
BRANCH  18  19
ATOM     19  C   UNL     1      -2.075  12.384  22.015  0.00  0.00    +0.000 A 
ATOM     20  C   UNL     1      -2.626  11.759  23.148  0.00  0.00    +0.000 A 
ATOM     21  C   UNL     1      -3.461  12.462  24.021  0.00  0.00    +0.000 A 
ATOM     22  C   UNL     1      -3.756  13.800  23.781  0.00  0.00    +0.000 A 
ATOM     23  C   UNL     1      -3.217  14.439  22.666  0.00  0.00    +0.000 A 
ATOM     24  C   UNL     1      -2.392  13.736  21.784  0.00  0.00    +0.000 A 
ATOM     25 CL   UNL     1      -1.818  14.608  20.404  0.00  0.00    +0.000 Cl
ENDBRANCH  18  19
ENDBRANCH   7  18
TORSDOF 4
ENDMDL
MODEL 4
REMARK VINA RESULT:      -7.2      7.075      8.942
REMARK  Name = 
REMARK  4 active torsions:
REMARK  status: ('A' for Active; 'I' for Inactive)
REMARK    1  A    between atoms: N_3  and  C_4
REMARK    2  A    between atoms: C_4  and  C_5
REMARK    3  A    between atoms: N_14  and  C_15
REMARK    4  A    between atoms: C_15  and  C_16
REMARK                            x       y       z     vdW  Elec       q    Type
REMARK                         _______ _______ _______ _____ _____    ______ ____
ROOT
ATOM      1  O   UNL     1       2.526   8.348  17.318  0.00  0.00    +0.000 OA
ATOM      2  C   UNL     1       2.085   8.472  18.449  0.00  0.00    +0.000 C 
ATOM      3  N   UNL     1       2.147   7.533  19.487  0.00  0.00    +0.000 N 
ATOM      4  C   UNL     1       1.694   8.125  20.739  0.00  0.00    +0.000 C 
ATOM      5  C   UNL     1       0.869   9.314  20.255  0.00  0.00    +0.000 C 
ATOM      6  C   UNL     1       0.861  10.578  21.139  0.00  0.00    +0.000 C 
ATOM      7  N   UNL     1       0.241  11.764  20.465  0.00  0.00    +0.000 NA
ATOM      8  C   UNL     1       0.971  12.006  19.186  0.00  0.00    +0.000 C 
ATOM      9  C   UNL     1       1.092  10.795  18.235  0.00  0.00    +0.000 C 
ATOM     10  N   UNL     1       1.457   9.596  18.963  0.00  0.00    +0.000 N 
ENDROOT
BRANCH   3  11
ATOM     11  C   UNL     1       3.027   6.387  19.431  0.00  0.00    +0.000 C 
BRANCH  11  12
ATOM     12  C   UNL     1       2.320   5.053  19.440  0.00  0.00    +0.000 A 
ATOM     13  C   UNL     1       1.824   4.510  20.634  0.00  0.00    +0.000 A 
ATOM     14  C   UNL     1       1.049   3.347  20.619  0.00  0.00    +0.000 A 
ATOM     15  C   UNL     1       0.761   2.714  19.411  0.00  0.00    +0.000 A 
ATOM     16  C   UNL     1       1.258   3.235  18.219  0.00  0.00    +0.000 A 
ATOM     17  C   UNL     1       2.033   4.397  18.233  0.00  0.00    +0.000 A 
ENDBRANCH  11  12
ENDBRANCH   3  11
BRANCH   7  18
ATOM     18  C   UNL     1      -1.206  11.532  20.264  0.00  0.00    +0.000 C 
BRANCH  18  19
ATOM     19  C   UNL     1      -2.137  12.359  21.128  0.00  0.00    +0.000 A 
ATOM     20  C   UNL     1      -2.813  13.451  20.557  0.00  0.00    +0.000 A 
ATOM     21  C   UNL     1      -3.634  14.273  21.333  0.00  0.00    +0.000 A 
ATOM     22  C   UNL     1      -3.798  14.016  22.690  0.00  0.00    +0.000 A 
ATOM     23  C   UNL     1      -3.140  12.936  23.275  0.00  0.00    +0.000 A 
ATOM     24  C   UNL     1      -2.308  12.119  22.504  0.00  0.00    +0.000 A 
ATOM     25 CL   UNL     1      -1.498  10.838  23.338  0.00  0.00    +0.000 Cl
ENDBRANCH  18  19
ENDBRANCH   7  18
TORSDOF 4
ENDMDL
MODEL 5
REMARK VINA RESULT:      -7.1      6.986      8.877
REMARK  Name = 
REMARK  4 active torsions:
REMARK  status: ('A' for Active; 'I' for Inactive)
REMARK    1  A    between atoms: N_3  and  C_4
REMARK    2  A    between atoms: C_4  and  C_5
REMARK    3  A    between atoms: N_14  and  C_15
REMARK    4  A    between atoms: C_15  and  C_16
REMARK                            x       y       z     vdW  Elec       q    Type
REMARK                         _______ _______ _______ _____ _____    ______ ____
ROOT
ATOM      1  O   UNL     1       2.816   8.078  17.564  0.00  0.00    +0.000 OA
ATOM      2  C   UNL     1       2.227   8.254  18.618  0.00  0.00    +0.000 C 
ATOM      3  N   UNL     1       2.129   7.357  19.689  0.00  0.00    +0.000 N 
ATOM      4  C   UNL     1       1.521   8.006  20.843  0.00  0.00    +0.000 C 
ATOM      5  C   UNL     1       0.794   9.186  20.207  0.00  0.00    +0.000 C 
ATOM      6  C   UNL     1       0.690  10.484  21.032  0.00  0.00    +0.000 C 
ATOM      7  N   UNL     1       0.192  11.651  20.235  0.00  0.00    +0.000 NA
ATOM      8  C   UNL     1       1.094  11.830  19.060  0.00  0.00    +0.000 C 
ATOM      9  C   UNL     1       1.320  10.580  18.181  0.00  0.00    +0.000 C 
ATOM     10  N   UNL     1       1.558   9.407  18.998  0.00  0.00    +0.000 N 
ENDROOT
BRANCH   3  11
ATOM     11  C   UNL     1       2.985   6.196  19.798  0.00  0.00    +0.000 C 
BRANCH  11  12
ATOM     12  C   UNL     1       2.274   4.875  19.636  0.00  0.00    +0.000 A 
ATOM     13  C   UNL     1       1.739   4.204  20.745  0.00  0.00    +0.000 A 
ATOM     14  C   UNL     1       0.961   3.055  20.576  0.00  0.00    +0.000 A 
ATOM     15  C   UNL     1       0.708   2.565  19.296  0.00  0.00    +0.000 A 
ATOM     16  C   UNL     1       1.243   3.214  18.186  0.00  0.00    +0.000 A 
ATOM     17  C   UNL     1       2.021   4.361  18.354  0.00  0.00    +0.000 A 
ENDBRANCH  11  12
ENDBRANCH   3  11
BRANCH   7  18
ATOM     18  C   UNL     1      -1.219  11.432  19.846  0.00  0.00    +0.000 C 
BRANCH  18  19
ATOM     19  C   UNL     1      -2.235  12.355  20.487  0.00  0.00    +0.000 A 
ATOM     20  C   UNL     1      -1.887  13.051  21.659  0.00  0.00    +0.000 A 
ATOM     21  C   UNL     1      -2.815  13.865  22.312  0.00  0.00    +0.000 A 
ATOM     22  C   UNL     1      -4.103  14.004  21.805  0.00  0.00    +0.000 A 
ATOM     23  C   UNL     1      -4.467  13.327  20.643  0.00  0.00    +0.000 A 
ATOM     24  C   UNL     1      -3.545  12.501  19.993  0.00  0.00    +0.000 A 
ATOM     25 CL   UNL     1      -4.114  11.666  18.589  0.00  0.00    +0.000 Cl
ENDBRANCH  18  19
ENDBRANCH   7  18
TORSDOF 4
ENDMDL
MODEL 6
REMARK VINA RESULT:      -7.0      6.836      8.512
REMARK  Name = 
REMARK  4 active torsions:
REMARK  status: ('A' for Active; 'I' for Inactive)
REMARK    1  A    between atoms: N_3  and  C_4
REMARK    2  A    between atoms: C_4  and  C_5
REMARK    3  A    between atoms: N_14  and  C_15
REMARK    4  A    between atoms: C_15  and  C_16
REMARK                            x       y       z     vdW  Elec       q    Type
REMARK                         _______ _______ _______ _____ _____    ______ ____
ROOT
ATOM      1  O   UNL     1       2.282   8.897  17.249  0.00  0.00    +0.000 OA
ATOM      2  C   UNL     1       2.013   8.593  18.399  0.00  0.00    +0.000 C 
ATOM      3  N   UNL     1       2.190   7.342  19.005  0.00  0.00    +0.000 N 
ATOM      4  C   UNL     1       1.943   7.431  20.438  0.00  0.00    +0.000 C 
ATOM      5  C   UNL     1       1.101   8.698  20.545  0.00  0.00    +0.000 C 
ATOM      6  C   UNL     1       1.264   9.553  21.817  0.00  0.00    +0.000 C 
ATOM      7  N   UNL     1       0.597  10.891  21.718  0.00  0.00    +0.000 NA
ATOM      8  C   UNL     1       1.143  11.595  20.521  0.00  0.00    +0.000 C 
ATOM      9  C   UNL     1       1.083  10.815  19.189  0.00  0.00    +0.000 C 
ATOM     10  N   UNL     1       1.506   9.441  19.371  0.00  0.00    +0.000 N 
ENDROOT
BRANCH   3  11
ATOM     11  C   UNL     1       3.012   6.312  18.409  0.00  0.00    +0.000 C 
BRANCH  11  12
ATOM     12  C   UNL     1       2.620   4.904  18.785  0.00  0.00    +0.000 A 
ATOM     13  C   UNL     1       1.513   4.281  18.190  0.00  0.00    +0.000 A 
ATOM     14  C   UNL     1       1.236   2.933  18.434  0.00  0.00    +0.000 A 
ATOM     15  C   UNL     1       2.064   2.192  19.276  0.00  0.00    +0.000 A 
ATOM     16  C   UNL     1       3.160   2.799  19.883  0.00  0.00    +0.000 A 
ATOM     17  C   UNL     1       3.436   4.147  19.640  0.00  0.00    +0.000 A 
ENDBRANCH  11  12
ENDBRANCH   3  11
BRANCH   7  18
ATOM     18  C   UNL     1      -0.872  10.720  21.661  0.00  0.00    +0.000 C 
BRANCH  18  19
ATOM     19  C   UNL     1      -1.695  11.975  21.867  0.00  0.00    +0.000 A 
ATOM     20  C   UNL     1      -1.772  12.543  23.151  0.00  0.00    +0.000 A 
ATOM     21  C   UNL     1      -2.567  13.665  23.394  0.00  0.00    +0.000 A 
ATOM     22  C   UNL     1      -3.294  14.244  22.359  0.00  0.00    +0.000 A 
ATOM     23  C   UNL     1      -3.229  13.700  21.078  0.00  0.00    +0.000 A 
ATOM     24  C   UNL     1      -2.445  12.569  20.834  0.00  0.00    +0.000 A 
ATOM     25 CL   UNL     1      -2.475  11.942  19.221  0.00  0.00    +0.000 Cl
ENDBRANCH  18  19
ENDBRANCH   7  18
TORSDOF 4
ENDMDL
MODEL 7
REMARK VINA RESULT:      -6.9      3.745      4.494
REMARK  Name = 
REMARK  4 active torsions:
REMARK  status: ('A' for Active; 'I' for Inactive)
REMARK    1  A    between atoms: N_3  and  C_4
REMARK    2  A    between atoms: C_4  and  C_5
REMARK    3  A    between atoms: N_14  and  C_15
REMARK    4  A    between atoms: C_15  and  C_16
REMARK                            x       y       z     vdW  Elec       q    Type
REMARK                         _______ _______ _______ _____ _____    ______ ____
ROOT
ATOM      1  O   UNL     1       6.741   4.320  18.519  0.00  0.00    +0.000 OA
ATOM      2  C   UNL     1       6.053   5.144  17.939  0.00  0.00    +0.000 C 
ATOM      3  N   UNL     1       6.352   5.795  16.735  0.00  0.00    +0.000 N 
ATOM      4  C   UNL     1       5.198   6.549  16.263  0.00  0.00    +0.000 C 
ATOM      5  C   UNL     1       4.378   6.720  17.538  0.00  0.00    +0.000 C 
ATOM      6  C   UNL     1       2.843   6.746  17.396  0.00  0.00    +0.000 C 
ATOM      7  N   UNL     1       2.128   6.660  18.710  0.00  0.00    +0.000 NA
ATOM      8  C   UNL     1       2.583   5.421  19.406  0.00  0.00    +0.000 C 
ATOM      9  C   UNL     1       4.111   5.254  19.564  0.00  0.00    +0.000 C 
ATOM     10  N   UNL     1       4.800   5.586  18.333  0.00  0.00    +0.000 N 
ENDROOT
BRANCH   3  11
ATOM     11  C   UNL     1       7.406   5.337  15.857  0.00  0.00    +0.000 C 
BRANCH  11  12
ATOM     12  C   UNL     1       6.929   4.835  14.516  0.00  0.00    +0.000 A 
ATOM     13  C   UNL     1       7.665   5.088  13.349  0.00  0.00    +0.000 A 
ATOM     14  C   UNL     1       7.297   4.505  12.133  0.00  0.00    +0.000 A 
ATOM     15  C   UNL     1       6.189   3.661  12.070  0.00  0.00    +0.000 A 
ATOM     16  C   UNL     1       5.442   3.410  13.218  0.00  0.00    +0.000 A 
ATOM     17  C   UNL     1       5.808   3.993  14.433  0.00  0.00    +0.000 A 
ENDBRANCH  11  12
ENDBRANCH   3  11
BRANCH   7  18
ATOM     18  C   UNL     1       2.374   7.886  19.501  0.00  0.00    +0.000 C 
BRANCH  18  19
ATOM     19  C   UNL     1       1.248   8.899  19.523  0.00  0.00    +0.000 A 
ATOM     20  C   UNL     1       0.735   9.382  18.307  0.00  0.00    +0.000 A 
ATOM     21  C   UNL     1      -0.262  10.360  18.286  0.00  0.00    +0.000 A 
ATOM     22  C   UNL     1      -0.769  10.868  19.478  0.00  0.00    +0.000 A 
ATOM     23  C   UNL     1      -0.277  10.400  20.695  0.00  0.00    +0.000 A 
ATOM     24  C   UNL     1       0.730   9.430  20.720  0.00  0.00    +0.000 A 
ATOM     25 CL   UNL     1       1.306   8.957  22.281  0.00  0.00    +0.000 Cl
ENDBRANCH  18  19
ENDBRANCH   7  18
TORSDOF 4
ENDMDL
MODEL 8
REMARK VINA RESULT:      -6.9      6.578      8.426
REMARK  Name = 
REMARK  4 active torsions:
REMARK  status: ('A' for Active; 'I' for Inactive)
REMARK    1  A    between atoms: N_3  and  C_4
REMARK    2  A    between atoms: C_4  and  C_5
REMARK    3  A    between atoms: N_14  and  C_15
REMARK    4  A    between atoms: C_15  and  C_16
REMARK                            x       y       z     vdW  Elec       q    Type
REMARK                         _______ _______ _______ _____ _____    ______ ____
ROOT
ATOM      1  O   UNL     1       2.473   6.188  20.475  0.00  0.00    +0.000 OA
ATOM      2  C   UNL     1       2.298   7.132  19.722  0.00  0.00    +0.000 C 
ATOM      3  N   UNL     1       2.846   7.306  18.445  0.00  0.00    +0.000 N 
ATOM      4  C   UNL     1       2.241   8.455  17.783  0.00  0.00    +0.000 C 
ATOM      5  C   UNL     1       1.683   9.251  18.958  0.00  0.00    +0.000 C 
ATOM      6  C   UNL     1       0.386  10.050  18.723  0.00  0.00    +0.000 C 
ATOM      7  N   UNL     1      -0.215  10.584  19.987  0.00  0.00    +0.000 NA
ATOM      8  C   UNL     1      -0.450   9.436  20.910  0.00  0.00    +0.000 C 
ATOM      9  C   UNL     1       0.767   8.526  21.185  0.00  0.00    +0.000 C 
ATOM     10  N   UNL     1       1.479   8.226  19.959  0.00  0.00    +0.000 N 
ENDROOT
BRANCH   3  11
ATOM     11  C   UNL     1       3.467   6.218  17.723  0.00  0.00    +0.000 C 
BRANCH  11  12
ATOM     12  C   UNL     1       4.962   6.119  17.903  0.00  0.00    +0.000 A 
ATOM     13  C   UNL     1       5.835   6.879  17.109  0.00  0.00    +0.000 A 
ATOM     14  C   UNL     1       7.207   6.892  17.371  0.00  0.00    +0.000 A 
ATOM     15  C   UNL     1       7.724   6.146  18.430  0.00  0.00    +0.000 A 
ATOM     16  C   UNL     1       6.871   5.378  19.219  0.00  0.00    +0.000 A 
ATOM     17  C   UNL     1       5.500   5.364  18.957  0.00  0.00    +0.000 A 
ENDBRANCH  11  12
ENDBRANCH   3  11
BRANCH   7  18
ATOM     18  C   UNL     1       0.668  11.617  20.570  0.00  0.00    +0.000 C 
BRANCH  18  19
ATOM     19  C   UNL     1       0.393  13.044  20.142  0.00  0.00    +0.000 A 
ATOM     20  C   UNL     1      -0.728  13.713  20.663  0.00  0.00    +0.000 A 
ATOM     21  C   UNL     1      -1.049  15.008  20.249  0.00  0.00    +0.000 A 
ATOM     22  C   UNL     1      -0.254  15.659  19.311  0.00  0.00    +0.000 A 
ATOM     23  C   UNL     1       0.864  15.016  18.785  0.00  0.00    +0.000 A 
ATOM     24  C   UNL     1       1.182  13.715  19.187  0.00  0.00    +0.000 A 
ATOM     25 CL   UNL     1       2.559  12.989  18.434  0.00  0.00    +0.000 Cl
ENDBRANCH  18  19
ENDBRANCH   7  18
TORSDOF 4
ENDMDL
MODEL 9
REMARK VINA RESULT:      -6.8      6.630      8.544
REMARK  Name = 
REMARK  4 active torsions:
REMARK  status: ('A' for Active; 'I' for Inactive)
REMARK    1  A    between atoms: N_3  and  C_4
REMARK    2  A    between atoms: C_4  and  C_5
REMARK    3  A    between atoms: N_14  and  C_15
REMARK    4  A    between atoms: C_15  and  C_16
REMARK                            x       y       z     vdW  Elec       q    Type
REMARK                         _______ _______ _______ _____ _____    ______ ____
ROOT
ATOM      1  O   UNL     1       2.242   6.224  20.545  0.00  0.00    +0.000 OA
ATOM      2  C   UNL     1       2.160   7.163  19.770  0.00  0.00    +0.000 C 
ATOM      3  N   UNL     1       2.774   7.278  18.516  0.00  0.00    +0.000 N 
ATOM      4  C   UNL     1       2.273   8.449  17.809  0.00  0.00    +0.000 C 
ATOM      5  C   UNL     1       1.715   9.301  18.945  0.00  0.00    +0.000 C 
ATOM      6  C   UNL     1       0.483  10.174  18.638  0.00  0.00    +0.000 C 
ATOM      7  N   UNL     1      -0.139  10.769  19.865  0.00  0.00    +0.000 NA
ATOM      8  C   UNL     1      -0.486   9.656  20.796  0.00  0.00    +0.000 C 
ATOM      9  C   UNL     1       0.658   8.677  21.140  0.00  0.00    +0.000 C 
ATOM     10  N   UNL     1       1.403   8.309  19.953  0.00  0.00    +0.000 N 
ENDROOT
BRANCH   3  11
ATOM     11  C   UNL     1       3.356   6.139  17.841  0.00  0.00    +0.000 C 
BRANCH  11  12
ATOM     12  C   UNL     1       4.854   6.026  17.981  0.00  0.00    +0.000 A 
ATOM     13  C   UNL     1       5.713   6.682  17.087  0.00  0.00    +0.000 A 
ATOM     14  C   UNL     1       7.094   6.691  17.302  0.00  0.00    +0.000 A 
ATOM     15  C   UNL     1       7.633   6.045  18.414  0.00  0.00    +0.000 A 
ATOM     16  C   UNL     1       6.793   5.380  19.304  0.00  0.00    +0.000 A 
ATOM     17  C   UNL     1       5.413   5.369  19.089  0.00  0.00    +0.000 A 
ENDBRANCH  11  12
ENDBRANCH   3  11
BRANCH   7  18
ATOM     18  C   UNL     1       0.782  11.756  20.471  0.00  0.00    +0.000 C 
BRANCH  18  19
ATOM     19  C   UNL     1       0.782  13.136  19.844  0.00  0.00    +0.000 A 
ATOM     20  C   UNL     1       1.952  13.609  19.225  0.00  0.00    +0.000 A 
ATOM     21  C   UNL     1       2.010  14.897  18.688  0.00  0.00    +0.000 A 
ATOM     22  C   UNL     1       0.900  15.733  18.756  0.00  0.00    +0.000 A 
ATOM     23  C   UNL     1      -0.271  15.283  19.362  0.00  0.00    +0.000 A 
ATOM     24  C   UNL     1      -0.329  13.999  19.911  0.00  0.00    +0.000 A 
ATOM     25 CL   UNL     1      -1.811  13.558  20.687  0.00  0.00    +0.000 Cl
ENDBRANCH  18  19
ENDBRANCH   7  18
TORSDOF 4
ENDMDL
