MODEL 1
REMARK VINA RESULT:      -8.5      0.000      0.000
REMARK  Name = 
REMARK  13 active torsions:
REMARK  status: ('A' for Active; 'I' for Inactive)
REMARK    1  A    between atoms: C_2  and  C_3
REMARK    2  A    between atoms: C_3  and  C_4
REMARK    3  A    between atoms: C_3  and  C_5
REMARK    4  A    between atoms: C_3  and  C_6
REMARK    5  A    between atoms: C_8  and  C_9
REMARK    6  A    between atoms: C_14  and  O_15
REMARK    7  A    between atoms: C_17  and  O_18
REMARK    8  A    between atoms: C_19  and  C_20
REMARK    9  A    between atoms: C_20  and  C_21
REMARK   10  A    between atoms: C_22  and  C_23
REMARK   11  A    between atoms: C_22  and  C_24
REMARK   12  A    between atoms: C_27  and  O_28
REMARK   13  A    between atoms: C_30  and  O_31
REMARK                            x       y       z     vdW  Elec       q    Type
REMARK                         _______ _______ _______ _____ _____    ______ ____
ROOT
ATOM      1  C   UNL     1       2.198   7.374  17.955  0.00  0.00    +0.000 C 
ATOM      2  C   UNL     1       1.651   6.135  18.646  0.00  0.00    +0.000 C 
ATOM      3  C   UNL     1       2.150   5.001  17.870  0.00  0.00    +0.000 C 
ATOM      4  O   UNL     1       1.475   4.211  17.233  0.00  0.00    +0.000 OA
ATOM      5  C   UNL     1       3.580   4.910  17.988  0.00  0.00    +0.000 A 
ATOM      6  C   UNL     1       4.146   4.021  18.904  0.00  0.00    +0.000 A 
ATOM      7  C   UNL     1       5.500   4.038  19.136  0.00  0.00    +0.000 A 
ATOM      8  C   UNL     1       6.300   4.869  18.355  0.00  0.00    +0.000 A 
ATOM      9  C   UNL     1       5.735   5.807  17.441  0.00  0.00    +0.000 A 
ATOM     10  C   UNL     1       4.308   5.991  17.513  0.00  0.00    +0.000 A 
ATOM     11  O   UNL     1       3.704   7.288  17.713  0.00  0.00    +0.000 OA
ENDROOT
BRANCH   1  14
ATOM     12  C   UNL     1      -0.094  10.417  19.067  0.00  0.00    +0.000 A 
ATOM     13  C   UNL     1       0.775   9.573  18.300  0.00  0.00    +0.000 A 
ATOM     14  C   UNL     1       1.606   8.506  18.876  0.00  0.00    +0.000 A 
ATOM     15  C   UNL     1       1.586   8.404  20.262  0.00  0.00    +0.000 A 
ATOM     16  C   UNL     1       0.794   9.245  21.041  0.00  0.00    +0.000 A 
ATOM     17  C   UNL     1      -0.050  10.212  20.453  0.00  0.00    +0.000 A 
BRANCH  12  18
ATOM     18  C   UNL     1      -1.107  11.474  18.470  0.00  0.00    +0.000 C 
ATOM     19  C   UNL     1      -0.477  12.840  18.070  0.00  0.00    +0.000 C 
ATOM     20  C   UNL     1      -2.203  11.843  19.500  0.00  0.00    +0.000 C 
BRANCH  18  22
ATOM     21  C   UNL     1      -2.700   9.906  17.141  0.00  0.00    +0.000 C 
ATOM     22  C   UNL     1      -1.821  10.923  17.214  0.00  0.00    +0.000 C 
ENDBRANCH  18  22
ENDBRANCH  12  18
BRANCH  15  23
ATOM     23  O   UNL     1       2.299   7.470  20.947  0.00  0.00    +0.000 OA
ATOM     24  H   UNL     1       1.716   6.722  21.173  0.00  0.00    +0.000 HD
ENDBRANCH  15  23
BRANCH  17  25
ATOM     25  O   UNL     1      -0.862  10.949  21.274  0.00  0.00    +0.000 OA
ATOM     26  H   UNL     1      -0.392  11.747  21.558  0.00  0.00    +0.000 HD
ENDBRANCH  17  25
ENDBRANCH   1  14
BRANCH   6  27
ATOM     27  O   UNL     1       3.398   3.196  19.701  0.00  0.00    +0.000 OA
ATOM     28  H   UNL     1       3.482   3.453  20.637  0.00  0.00    +0.000 HD
ENDBRANCH   6  27
BRANCH   8  29
ATOM     29  O   UNL     1       7.649   4.638  18.365  0.00  0.00    +0.000 OA
ATOM     30  H   UNL     1       7.971   4.592  17.447  0.00  0.00    +0.000 HD
ENDBRANCH   8  29
BRANCH   9  31
ATOM     31  C   UNL     1       6.453   5.710  16.044  0.00  0.00    +0.000 C 
BRANCH  31  32
ATOM     32  C   UNL     1       6.008   4.660  15.035  0.00  0.00    +0.000 C 
ATOM     33  C   UNL     1       6.498   4.443  13.795  0.00  0.00    +0.000 C 
ATOM     34  C   UNL     1       7.698   5.142  13.235  0.00  0.00    +0.000 C 
ATOM     35  C   UNL     1       5.854   3.472  12.824  0.00  0.00    +0.000 C 
ENDBRANCH  31  32
ENDBRANCH   9  31
TORSDOF 9
ENDMDL
MODEL 2
REMARK VINA RESULT:      -8.4      0.356      1.230
REMARK  Name = 
REMARK  13 active torsions:
REMARK  status: ('A' for Active; 'I' for Inactive)
REMARK    1  A    between atoms: C_2  and  C_3
REMARK    2  A    between atoms: C_3  and  C_4
REMARK    3  A    between atoms: C_3  and  C_5
REMARK    4  A    between atoms: C_3  and  C_6
REMARK    5  A    between atoms: C_8  and  C_9
REMARK    6  A    between atoms: C_14  and  O_15
REMARK    7  A    between atoms: C_17  and  O_18
REMARK    8  A    between atoms: C_19  and  C_20
REMARK    9  A    between atoms: C_20  and  C_21
REMARK   10  A    between atoms: C_22  and  C_23
REMARK   11  A    between atoms: C_22  and  C_24
REMARK   12  A    between atoms: C_27  and  O_28
REMARK   13  A    between atoms: C_30  and  O_31
REMARK                            x       y       z     vdW  Elec       q    Type
REMARK                         _______ _______ _______ _____ _____    ______ ____
ROOT
ATOM      1  C   UNL     1       2.189   7.321  17.983  0.00  0.00    +0.000 C 
ATOM      2  C   UNL     1       1.610   6.076  18.638  0.00  0.00    +0.000 C 
ATOM      3  C   UNL     1       2.062   4.956  17.815  0.00  0.00    +0.000 C 
ATOM      4  O   UNL     1       1.353   4.212  17.159  0.00  0.00    +0.000 OA
ATOM      5  C   UNL     1       3.490   4.814  17.910  0.00  0.00    +0.000 A 
ATOM      6  C   UNL     1       4.037   3.875  18.786  0.00  0.00    +0.000 A 
ATOM      7  C   UNL     1       5.394   3.839  19.000  0.00  0.00    +0.000 A 
ATOM      8  C   UNL     1       6.210   4.671  18.239  0.00  0.00    +0.000 A 
ATOM      9  C   UNL     1       5.665   5.659  17.366  0.00  0.00    +0.000 A 
ATOM     10  C   UNL     1       4.246   5.888  17.464  0.00  0.00    +0.000 A 
ATOM     11  O   UNL     1       3.688   7.195  17.718  0.00  0.00    +0.000 OA
ENDROOT
BRANCH   1  14
ATOM     12  C   UNL     1       0.019  10.401  19.231  0.00  0.00    +0.000 A 
ATOM     13  C   UNL     1       0.850   9.556  18.425  0.00  0.00    +0.000 A 
ATOM     14  C   UNL     1       1.646   8.438  18.952  0.00  0.00    +0.000 A 
ATOM     15  C   UNL     1       1.633   8.284  20.333  0.00  0.00    +0.000 A 
ATOM     16  C   UNL     1       0.878   9.123  21.152  0.00  0.00    +0.000 A 
ATOM     17  C   UNL     1       0.066  10.142  20.608  0.00  0.00    +0.000 A 
BRANCH  12  18
ATOM     18  C   UNL     1      -0.959  11.516  18.683  0.00  0.00    +0.000 C 
ATOM     19  C   UNL     1      -2.073  11.962  19.675  0.00  0.00    +0.000 C 
ATOM     20  C   UNL     1      -1.732  11.020  17.436  0.00  0.00    +0.000 C 
BRANCH  18  22
ATOM     21  C   UNL     1       0.866  13.357  18.890  0.00  0.00    +0.000 C 
ATOM     22  C   UNL     1      -0.187  12.790  18.271  0.00  0.00    +0.000 C 
ENDBRANCH  18  22
ENDBRANCH  12  18
BRANCH  15  23
ATOM     23  O   UNL     1       2.316   7.299  20.976  0.00  0.00    +0.000 OA
ATOM     24  H   UNL     1       2.189   6.456  20.503  0.00  0.00    +0.000 HD
ENDBRANCH  15  23
BRANCH  17  25
ATOM     25  O   UNL     1      -0.712  10.876  21.463  0.00  0.00    +0.000 OA
ATOM     26  H   UNL     1      -0.373  11.783  21.506  0.00  0.00    +0.000 HD
ENDBRANCH  17  25
ENDBRANCH   1  14
BRANCH   6  27
ATOM     27  O   UNL     1       3.272   3.046  19.563  0.00  0.00    +0.000 OA
ATOM     28  H   UNL     1       2.792   2.404  19.010  0.00  0.00    +0.000 HD
ENDBRANCH   6  27
BRANCH   8  29
ATOM     29  O   UNL     1       7.551   4.396  18.222  0.00  0.00    +0.000 OA
ATOM     30  H   UNL     1       7.896   4.429  19.132  0.00  0.00    +0.000 HD
ENDBRANCH   8  29
BRANCH   9  31
ATOM     31  C   UNL     1       6.363   5.589  15.957  0.00  0.00    +0.000 C 
BRANCH  31  32
ATOM     32  C   UNL     1       5.903   4.558  14.935  0.00  0.00    +0.000 C 
ATOM     33  C   UNL     1       6.403   4.338  13.699  0.00  0.00    +0.000 C 
ATOM     34  C   UNL     1       7.625   5.011  13.158  0.00  0.00    +0.000 C 
ATOM     35  C   UNL     1       5.745   3.390  12.714  0.00  0.00    +0.000 C 
ENDBRANCH  31  32
ENDBRANCH   9  31
TORSDOF 9
ENDMDL
MODEL 3
REMARK VINA RESULT:      -8.4      1.532      2.755
REMARK  Name = 
REMARK  13 active torsions:
REMARK  status: ('A' for Active; 'I' for Inactive)
REMARK    1  A    between atoms: C_2  and  C_3
REMARK    2  A    between atoms: C_3  and  C_4
REMARK    3  A    between atoms: C_3  and  C_5
REMARK    4  A    between atoms: C_3  and  C_6
REMARK    5  A    between atoms: C_8  and  C_9
REMARK    6  A    between atoms: C_14  and  O_15
REMARK    7  A    between atoms: C_17  and  O_18
REMARK    8  A    between atoms: C_19  and  C_20
REMARK    9  A    between atoms: C_20  and  C_21
REMARK   10  A    between atoms: C_22  and  C_23
REMARK   11  A    between atoms: C_22  and  C_24
REMARK   12  A    between atoms: C_27  and  O_28
REMARK   13  A    between atoms: C_30  and  O_31
REMARK                            x       y       z     vdW  Elec       q    Type
REMARK                         _______ _______ _______ _____ _____    ______ ____
ROOT
ATOM      1  C   UNL     1       3.185   5.419  18.732  0.00  0.00    +0.000 C 
ATOM      2  C   UNL     1       4.344   5.054  19.646  0.00  0.00    +0.000 C 
ATOM      3  C   UNL     1       5.023   3.939  18.990  0.00  0.00    +0.000 C 
ATOM      4  O   UNL     1       5.112   2.800  19.416  0.00  0.00    +0.000 OA
ATOM      5  C   UNL     1       5.625   4.377  17.761  0.00  0.00    +0.000 A 
ATOM      6  C   UNL     1       6.982   4.703  17.730  0.00  0.00    +0.000 A 
ATOM      7  C   UNL     1       7.530   5.270  16.604  0.00  0.00    +0.000 A 
ATOM      8  C   UNL     1       6.736   5.398  15.468  0.00  0.00    +0.000 A 
ATOM      9  C   UNL     1       5.340   5.102  15.494  0.00  0.00    +0.000 A 
ATOM     10  C   UNL     1       4.761   4.864  16.791  0.00  0.00    +0.000 A 
ATOM     11  O   UNL     1       3.627   5.611  17.282  0.00  0.00    +0.000 OA
ENDROOT
BRANCH   1  14
ATOM     12  C   UNL     1       1.448   8.929  19.377  0.00  0.00    +0.000 A 
ATOM     13  C   UNL     1       2.328   7.915  18.876  0.00  0.00    +0.000 A 
ATOM     14  C   UNL     1       2.550   6.618  19.532  0.00  0.00    +0.000 A 
ATOM     15  C   UNL     1       1.917   6.443  20.757  0.00  0.00    +0.000 A 
ATOM     16  C   UNL     1       1.097   7.431  21.300  0.00  0.00    +0.000 A 
ATOM     17  C   UNL     1       0.845   8.637  20.609  0.00  0.00    +0.000 A 
BRANCH  12  18
ATOM     18  C   UNL     1       1.074  10.270  18.629  0.00  0.00    +0.000 C 
ATOM     19  C   UNL     1       2.178  10.828  17.683  0.00  0.00    +0.000 C 
ATOM     20  C   UNL     1       0.815  11.419  19.635  0.00  0.00    +0.000 C 
BRANCH  18  22
ATOM     21  C   UNL     1      -1.472  10.409  18.121  0.00  0.00    +0.000 C 
ATOM     22  C   UNL     1      -0.206  10.104  17.779  0.00  0.00    +0.000 C 
ENDBRANCH  18  22
ENDBRANCH  12  18
BRANCH  15  23
ATOM     23  O   UNL     1       2.020   5.302  21.489  0.00  0.00    +0.000 OA
ATOM     24  H   UNL     1       1.233   5.210  22.057  0.00  0.00    +0.000 HD
ENDBRANCH  15  23
BRANCH  17  25
ATOM     25  O   UNL     1      -0.034   9.529  21.162  0.00  0.00    +0.000 OA
ATOM     26  H   UNL     1      -0.825   9.587  20.606  0.00  0.00    +0.000 HD
ENDBRANCH  17  25
ENDBRANCH   1  14
BRANCH   6  27
ATOM     27  O   UNL     1       7.798   4.606  18.826  0.00  0.00    +0.000 OA
ATOM     28  H   UNL     1       7.489   3.899  19.421  0.00  0.00    +0.000 HD
ENDBRANCH   6  27
BRANCH   8  29
ATOM     29  O   UNL     1       7.368   5.649  14.281  0.00  0.00    +0.000 OA
ATOM     30  H   UNL     1       6.738   6.062  13.664  0.00  0.00    +0.000 HD
ENDBRANCH   8  29
BRANCH   9  31
ATOM     31  C   UNL     1       4.951   4.193  14.270  0.00  0.00    +0.000 C 
BRANCH  31  32
ATOM     32  C   UNL     1       6.039   3.648  13.355  0.00  0.00    +0.000 C 
ATOM     33  C   UNL     1       5.894   3.116  12.122  0.00  0.00    +0.000 C 
ATOM     34  C   UNL     1       4.602   3.093  11.367  0.00  0.00    +0.000 C 
ATOM     35  C   UNL     1       7.042   2.455  11.381  0.00  0.00    +0.000 C 
ENDBRANCH  31  32
ENDBRANCH   9  31
TORSDOF 9
ENDMDL
MODEL 4
REMARK VINA RESULT:      -8.3      2.079      8.594
REMARK  Name = 
REMARK  13 active torsions:
REMARK  status: ('A' for Active; 'I' for Inactive)
REMARK    1  A    between atoms: C_2  and  C_3
REMARK    2  A    between atoms: C_3  and  C_4
REMARK    3  A    between atoms: C_3  and  C_5
REMARK    4  A    between atoms: C_3  and  C_6
REMARK    5  A    between atoms: C_8  and  C_9
REMARK    6  A    between atoms: C_14  and  O_15
REMARK    7  A    between atoms: C_17  and  O_18
REMARK    8  A    between atoms: C_19  and  C_20
REMARK    9  A    between atoms: C_20  and  C_21
REMARK   10  A    between atoms: C_22  and  C_23
REMARK   11  A    between atoms: C_22  and  C_24
REMARK   12  A    between atoms: C_27  and  O_28
REMARK   13  A    between atoms: C_30  and  O_31
REMARK                            x       y       z     vdW  Elec       q    Type
REMARK                         _______ _______ _______ _____ _____    ______ ____
ROOT
ATOM      1  C   UNL     1       1.443   9.408  18.171  0.00  0.00    +0.000 C 
ATOM      2  C   UNL     1       2.528  10.340  18.686  0.00  0.00    +0.000 C 
ATOM      3  C   UNL     1       2.003  11.691  18.503  0.00  0.00    +0.000 C 
ATOM      4  O   UNL     1       2.457  12.547  17.762  0.00  0.00    +0.000 OA
ATOM      5  C   UNL     1       0.871  11.905  19.363  0.00  0.00    +0.000 A 
ATOM      6  C   UNL     1       1.040  12.563  20.583  0.00  0.00    +0.000 A 
ATOM      7  C   UNL     1       0.001  12.633  21.479  0.00  0.00    +0.000 A 
ATOM      8  C   UNL     1      -1.245  12.144  21.095  0.00  0.00    +0.000 A 
ATOM      9  C   UNL     1      -1.425  11.438  19.869  0.00  0.00    +0.000 A 
ATOM     10  C   UNL     1      -0.227  11.083  19.152  0.00  0.00    +0.000 A 
ATOM     11  O   UNL     1       0.073   9.724  18.770  0.00  0.00    +0.000 OA
ENDROOT
BRANCH   1  14
ATOM     12  C   UNL     1       4.025   6.419  17.781  0.00  0.00    +0.000 A 
ATOM     13  C   UNL     1       3.103   7.473  17.475  0.00  0.00    +0.000 A 
ATOM     14  C   UNL     1       2.117   8.008  18.426  0.00  0.00    +0.000 A 
ATOM     15  C   UNL     1       2.047   7.360  19.654  0.00  0.00    +0.000 A 
ATOM     16  C   UNL     1       2.892   6.295  19.963  0.00  0.00    +0.000 A 
ATOM     17  C   UNL     1       3.879   5.854  19.056  0.00  0.00    +0.000 A 
BRANCH  12  18
ATOM     18  C   UNL     1       5.191   5.919  16.838  0.00  0.00    +0.000 C 
ATOM     19  C   UNL     1       5.252   6.606  15.443  0.00  0.00    +0.000 C 
ATOM     20  C   UNL     1       5.044   4.411  16.518  0.00  0.00    +0.000 C 
BRANCH  18  22
ATOM     21  C   UNL     1       7.403   7.172  17.383  0.00  0.00    +0.000 C 
ATOM     22  C   UNL     1       6.574   6.117  17.499  0.00  0.00    +0.000 C 
ENDBRANCH  18  22
ENDBRANCH  12  18
BRANCH  15  23
ATOM     23  O   UNL     1       1.189   7.733  20.640  0.00  0.00    +0.000 OA
ATOM     24  H   UNL     1       0.579   6.996  20.833  0.00  0.00    +0.000 HD
ENDBRANCH  15  23
BRANCH  17  25
ATOM     25  O   UNL     1       4.728   4.857  19.457  0.00  0.00    +0.000 OA
ATOM     26  H   UNL     1       5.062   5.057  20.344  0.00  0.00    +0.000 HD
ENDBRANCH  17  25
ENDBRANCH   1  14
BRANCH   6  27
ATOM     27  O   UNL     1       2.248  13.049  21.006  0.00  0.00    +0.000 OA
ATOM     28  H   UNL     1       2.190  14.005  21.186  0.00  0.00    +0.000 HD
ENDBRANCH   6  27
BRANCH   8  29
ATOM     29  O   UNL     1      -2.327  12.511  21.848  0.00  0.00    +0.000 OA
ATOM     30  H   UNL     1      -3.142  12.238  21.391  0.00  0.00    +0.000 HD
ENDBRANCH   8  29
BRANCH   9  31
ATOM     31  C   UNL     1      -2.678  11.995  19.096  0.00  0.00    +0.000 C 
BRANCH  31  32
ATOM     32  C   UNL     1      -2.790  11.794  17.591  0.00  0.00    +0.000 C 
ATOM     33  C   UNL     1      -3.085  10.654  16.928  0.00  0.00    +0.000 C 
ATOM     34  C   UNL     1      -3.496   9.380  17.596  0.00  0.00    +0.000 C 
ATOM     35  C   UNL     1      -3.001  10.548  15.417  0.00  0.00    +0.000 C 
ENDBRANCH  31  32
ENDBRANCH   9  31
TORSDOF 9
ENDMDL
MODEL 5
REMARK VINA RESULT:      -8.3      0.886      1.005
REMARK  Name = 
REMARK  13 active torsions:
REMARK  status: ('A' for Active; 'I' for Inactive)
REMARK    1  A    between atoms: C_2  and  C_3
REMARK    2  A    between atoms: C_3  and  C_4
REMARK    3  A    between atoms: C_3  and  C_5
REMARK    4  A    between atoms: C_3  and  C_6
REMARK    5  A    between atoms: C_8  and  C_9
REMARK    6  A    between atoms: C_14  and  O_15
REMARK    7  A    between atoms: C_17  and  O_18
REMARK    8  A    between atoms: C_19  and  C_20
REMARK    9  A    between atoms: C_20  and  C_21
REMARK   10  A    between atoms: C_22  and  C_23
REMARK   11  A    between atoms: C_22  and  C_24
REMARK   12  A    between atoms: C_27  and  O_28
REMARK   13  A    between atoms: C_30  and  O_31
REMARK                            x       y       z     vdW  Elec       q    Type
REMARK                         _______ _______ _______ _____ _____    ______ ____
ROOT
ATOM      1  C   UNL     1       2.278   7.108  18.176  0.00  0.00    +0.000 C 
ATOM      2  C   UNL     1       1.837   5.790  18.795  0.00  0.00    +0.000 C 
ATOM      3  C   UNL     1       2.177   4.764  17.812  0.00  0.00    +0.000 C 
ATOM      4  O   UNL     1       1.389   4.055  17.209  0.00  0.00    +0.000 OA
ATOM      5  C   UNL     1       3.604   4.665  17.671  0.00  0.00    +0.000 A 
ATOM      6  C   UNL     1       4.303   3.673  18.361  0.00  0.00    +0.000 A 
ATOM      7  C   UNL     1       5.677   3.667  18.357  0.00  0.00    +0.000 A 
ATOM      8  C   UNL     1       6.345   4.591  17.558  0.00  0.00    +0.000 A 
ATOM      9  C   UNL     1       5.648   5.631  16.875  0.00  0.00    +0.000 A 
ATOM     10  C   UNL     1       4.257   5.800  17.213  0.00  0.00    +0.000 A 
ATOM     11  O   UNL     1       3.719   7.059  17.670  0.00  0.00    +0.000 OA
ENDROOT
BRANCH   1  14
ATOM     12  C   UNL     1       0.656  10.301  19.885  0.00  0.00    +0.000 A 
ATOM     13  C   UNL     1       1.381   9.460  18.979  0.00  0.00    +0.000 A 
ATOM     14  C   UNL     1       1.871   8.115  19.316  0.00  0.00    +0.000 A 
ATOM     15  C   UNL     1       1.677   7.712  20.632  0.00  0.00    +0.000 A 
ATOM     16  C   UNL     1       1.024   8.529  21.554  0.00  0.00    +0.000 A 
ATOM     17  C   UNL     1       0.499   9.786  21.179  0.00  0.00    +0.000 A 
BRANCH  12  18
ATOM     18  C   UNL     1      -0.010  11.687  19.516  0.00  0.00    +0.000 C 
ATOM     19  C   UNL     1       0.694  12.473  18.371  0.00  0.00    +0.000 C 
ATOM     20  C   UNL     1       0.016  12.660  20.721  0.00  0.00    +0.000 C 
BRANCH  18  22
ATOM     21  C   UNL     1      -2.011  10.570  18.289  0.00  0.00    +0.000 C 
ATOM     22  C   UNL     1      -1.487  11.510  19.098  0.00  0.00    +0.000 C 
ENDBRANCH  18  22
ENDBRANCH  12  18
BRANCH  15  23
ATOM     23  O   UNL     1       2.071   6.499  21.101  0.00  0.00    +0.000 OA
ATOM     24  H   UNL     1       1.866   5.814  20.439  0.00  0.00    +0.000 HD
ENDBRANCH  15  23
BRANCH  17  25
ATOM     25  O   UNL     1      -0.202  10.500  22.114  0.00  0.00    +0.000 OA
ATOM     26  H   UNL     1      -0.847  11.067  21.666  0.00  0.00    +0.000 HD
ENDBRANCH  17  25
ENDBRANCH   1  14
BRANCH   6  27
ATOM     27  O   UNL     1       3.689   2.752  19.168  0.00  0.00    +0.000 OA
ATOM     28  H   UNL     1       4.325   2.369  19.798  0.00  0.00    +0.000 HD
ENDBRANCH   6  27
BRANCH   8  29
ATOM     29  O   UNL     1       7.671   4.366  17.307  0.00  0.00    +0.000 OA
ATOM     30  H   UNL     1       7.894   3.452  17.557  0.00  0.00    +0.000 HD
ENDBRANCH   8  29
BRANCH   9  31
ATOM     31  C   UNL     1       6.115   5.710  15.374  0.00  0.00    +0.000 C 
BRANCH  31  32
ATOM     32  C   UNL     1       5.802   4.563  14.423  0.00  0.00    +0.000 C 
ATOM     33  C   UNL     1       6.413   4.267  13.255  0.00  0.00    +0.000 C 
ATOM     34  C   UNL     1       7.634   4.968  12.747  0.00  0.00    +0.000 C 
ATOM     35  C   UNL     1       5.895   3.192  12.317  0.00  0.00    +0.000 C 
ENDBRANCH  31  32
ENDBRANCH   9  31
TORSDOF 9
ENDMDL
MODEL 6
REMARK VINA RESULT:      -8.3      2.835      9.370
REMARK  Name = 
REMARK  13 active torsions:
REMARK  status: ('A' for Active; 'I' for Inactive)
REMARK    1  A    between atoms: C_2  and  C_3
REMARK    2  A    between atoms: C_3  and  C_4
REMARK    3  A    between atoms: C_3  and  C_5
REMARK    4  A    between atoms: C_3  and  C_6
REMARK    5  A    between atoms: C_8  and  C_9
REMARK    6  A    between atoms: C_14  and  O_15
REMARK    7  A    between atoms: C_17  and  O_18
REMARK    8  A    between atoms: C_19  and  C_20
REMARK    9  A    between atoms: C_20  and  C_21
REMARK   10  A    between atoms: C_22  and  C_23
REMARK   11  A    between atoms: C_22  and  C_24
REMARK   12  A    between atoms: C_27  and  O_28
REMARK   13  A    between atoms: C_30  and  O_31
REMARK                            x       y       z     vdW  Elec       q    Type
REMARK                         _______ _______ _______ _____ _____    ______ ____
ROOT
ATOM      1  C   UNL     1       0.664   9.496  19.765  0.00  0.00    +0.000 C 
ATOM      2  C   UNL     1      -0.138   9.736  18.496  0.00  0.00    +0.000 C 
ATOM      3  C   UNL     1      -1.228  10.628  18.884  0.00  0.00    +0.000 C 
ATOM      4  O   UNL     1      -2.418  10.361  18.870  0.00  0.00    +0.000 OA
ATOM      5  C   UNL     1      -0.707  11.914  19.260  0.00  0.00    +0.000 A 
ATOM      6  C   UNL     1      -0.709  12.961  18.337  0.00  0.00    +0.000 A 
ATOM      7  C   UNL     1      -0.074  14.143  18.632  0.00  0.00    +0.000 A 
ATOM      8  C   UNL     1       0.460  14.312  19.907  0.00  0.00    +0.000 A 
ATOM      9  C   UNL     1       0.502  13.241  20.848  0.00  0.00    +0.000 A 
ATOM     10  C   UNL     1       0.152  11.936  20.349  0.00  0.00    +0.000 A 
ATOM     11  O   UNL     1       1.031  10.798  20.475  0.00  0.00    +0.000 OA
ENDROOT
BRANCH   1  14
ATOM     12  C   UNL     1       2.662   6.133  19.095  0.00  0.00    +0.000 A 
ATOM     13  C   UNL     1       1.935   7.179  19.752  0.00  0.00    +0.000 A 
ATOM     14  C   UNL     1       1.793   8.543  19.220  0.00  0.00    +0.000 A 
ATOM     15  C   UNL     1       2.498   8.815  18.054  0.00  0.00    +0.000 A 
ATOM     16  C   UNL     1       3.259   7.834  17.419  0.00  0.00    +0.000 A 
ATOM     17  C   UNL     1       3.316   6.513  17.915  0.00  0.00    +0.000 A 
BRANCH  12  18
ATOM     18  C   UNL     1       2.716   4.623  19.560  0.00  0.00    +0.000 C 
ATOM     19  C   UNL     1       4.136   3.984  19.566  0.00  0.00    +0.000 C 
ATOM     20  C   UNL     1       1.891   3.716  18.614  0.00  0.00    +0.000 C 
BRANCH  18  22
ATOM     21  C   UNL     1       2.034   3.317  21.702  0.00  0.00    +0.000 C 
ATOM     22  C   UNL     1       2.139   4.450  20.983  0.00  0.00    +0.000 C 
ENDBRANCH  18  22
ENDBRANCH  12  18
BRANCH  15  23
ATOM     23  O   UNL     1       2.471  10.026  17.436  0.00  0.00    +0.000 OA
ATOM     24  H   UNL     1       2.742  10.717  18.069  0.00  0.00    +0.000 HD
ENDBRANCH  15  23
BRANCH  17  25
ATOM     25  O   UNL     1       4.017   5.581  17.196  0.00  0.00    +0.000 OA
ATOM     26  H   UNL     1       3.658   4.700  17.379  0.00  0.00    +0.000 HD
ENDBRANCH  17  25
ENDBRANCH   1  14
BRANCH   6  27
ATOM     27  O   UNL     1      -1.212  12.836  17.069  0.00  0.00    +0.000 OA
ATOM     28  H   UNL     1      -0.551  12.437  16.475  0.00  0.00    +0.000 HD
ENDBRANCH   6  27
BRANCH   8  29
ATOM     29  O   UNL     1       0.788  15.584  20.291  0.00  0.00    +0.000 OA
ATOM     30  H   UNL     1      -0.013  16.038  20.609  0.00  0.00    +0.000 HD
ENDBRANCH   8  29
BRANCH   9  31
ATOM     31  C   UNL     1      -0.028  13.724  22.250  0.00  0.00    +0.000 C 
BRANCH  31  32
ATOM     32  C   UNL     1      -1.137  12.948  22.948  0.00  0.00    +0.000 C 
ATOM     33  C   UNL     1      -2.465  13.004  22.706  0.00  0.00    +0.000 C 
ATOM     34  C   UNL     1      -3.078  13.771  21.576  0.00  0.00    +0.000 C 
ATOM     35  C   UNL     1      -3.482  12.303  23.586  0.00  0.00    +0.000 C 
ENDBRANCH  31  32
ENDBRANCH   9  31
TORSDOF 9
ENDMDL
MODEL 7
REMARK VINA RESULT:      -8.2      1.939      8.556
REMARK  Name = 
REMARK  13 active torsions:
REMARK  status: ('A' for Active; 'I' for Inactive)
REMARK    1  A    between atoms: C_2  and  C_3
REMARK    2  A    between atoms: C_3  and  C_4
REMARK    3  A    between atoms: C_3  and  C_5
REMARK    4  A    between atoms: C_3  and  C_6
REMARK    5  A    between atoms: C_8  and  C_9
REMARK    6  A    between atoms: C_14  and  O_15
REMARK    7  A    between atoms: C_17  and  O_18
REMARK    8  A    between atoms: C_19  and  C_20
REMARK    9  A    between atoms: C_20  and  C_21
REMARK   10  A    between atoms: C_22  and  C_23
REMARK   11  A    between atoms: C_22  and  C_24
REMARK   12  A    between atoms: C_27  and  O_28
REMARK   13  A    between atoms: C_30  and  O_31
REMARK                            x       y       z     vdW  Elec       q    Type
REMARK                         _______ _______ _______ _____ _____    ______ ____
ROOT
ATOM      1  C   UNL     1       1.516   9.341  18.122  0.00  0.00    +0.000 C 
ATOM      2  C   UNL     1       2.576  10.275  18.685  0.00  0.00    +0.000 C 
ATOM      3  C   UNL     1       2.033  11.622  18.528  0.00  0.00    +0.000 C 
ATOM      4  O   UNL     1       2.489  12.504  17.819  0.00  0.00    +0.000 OA
ATOM      5  C   UNL     1       0.881  11.795  19.369  0.00  0.00    +0.000 A 
ATOM      6  C   UNL     1       1.014  12.422  20.609  0.00  0.00    +0.000 A 
ATOM      7  C   UNL     1      -0.044  12.452  21.485  0.00  0.00    +0.000 A 
ATOM      8  C   UNL     1      -1.274  11.955  21.062  0.00  0.00    +0.000 A 
ATOM      9  C   UNL     1      -1.418  11.280  19.813  0.00  0.00    +0.000 A 
ATOM     10  C   UNL     1      -0.200  10.963  19.112  0.00  0.00    +0.000 A 
ATOM     11  O   UNL     1       0.130   9.619  18.700  0.00  0.00    +0.000 OA
ENDROOT
BRANCH   1  14
ATOM     12  C   UNL     1       4.151   6.402  17.705  0.00  0.00    +0.000 A 
ATOM     13  C   UNL     1       3.219   7.450  17.409  0.00  0.00    +0.000 A 
ATOM     14  C   UNL     1       2.207   7.944  18.354  0.00  0.00    +0.000 A 
ATOM     15  C   UNL     1       2.123   7.263  19.562  0.00  0.00    +0.000 A 
ATOM     16  C   UNL     1       2.979   6.203  19.860  0.00  0.00    +0.000 A 
ATOM     17  C   UNL     1       3.990   5.801  18.961  0.00  0.00    +0.000 A 
BRANCH  12  18
ATOM     18  C   UNL     1       5.343   5.944  16.772  0.00  0.00    +0.000 C 
ATOM     19  C   UNL     1       6.762   6.340  17.273  0.00  0.00    +0.000 C 
ATOM     20  C   UNL     1       5.236   6.591  15.369  0.00  0.00    +0.000 C 
BRANCH  18  22
ATOM     21  C   UNL     1       5.861   3.711  15.545  0.00  0.00    +0.000 C 
ATOM     22  C   UNL     1       5.347   4.412  16.574  0.00  0.00    +0.000 C 
ENDBRANCH  18  22
ENDBRANCH  12  18
BRANCH  15  23
ATOM     23  O   UNL     1       1.241   7.596  20.541  0.00  0.00    +0.000 OA
ATOM     24  H   UNL     1       1.309   8.551  20.727  0.00  0.00    +0.000 HD
ENDBRANCH  15  23
BRANCH  17  25
ATOM     25  O   UNL     1       4.846   4.806  19.352  0.00  0.00    +0.000 OA
ATOM     26  H   UNL     1       5.364   5.110  20.113  0.00  0.00    +0.000 HD
ENDBRANCH  17  25
ENDBRANCH   1  14
BRANCH   6  27
ATOM     27  O   UNL     1       2.206  12.915  21.071  0.00  0.00    +0.000 OA
ATOM     28  H   UNL     1       2.560  12.347  21.779  0.00  0.00    +0.000 HD
ENDBRANCH   6  27
BRANCH   8  29
ATOM     29  O   UNL     1      -2.377  12.285  21.801  0.00  0.00    +0.000 OA
ATOM     30  H   UNL     1      -2.796  13.074  21.415  0.00  0.00    +0.000 HD
ENDBRANCH   8  29
BRANCH   9  31
ATOM     31  C   UNL     1      -2.663  11.838  19.030  0.00  0.00    +0.000 C 
BRANCH  31  32
ATOM     32  C   UNL     1      -2.748  11.663  17.519  0.00  0.00    +0.000 C 
ATOM     33  C   UNL     1      -3.041  10.538  16.832  0.00  0.00    +0.000 C 
ATOM     34  C   UNL     1      -3.478   9.257  17.471  0.00  0.00    +0.000 C 
ATOM     35  C   UNL     1      -2.929  10.456  15.321  0.00  0.00    +0.000 C 
ENDBRANCH  31  32
ENDBRANCH   9  31
TORSDOF 9
ENDMDL
MODEL 8
REMARK VINA RESULT:      -8.2      1.603      2.949
REMARK  Name = 
REMARK  13 active torsions:
REMARK  status: ('A' for Active; 'I' for Inactive)
REMARK    1  A    between atoms: C_2  and  C_3
REMARK    2  A    between atoms: C_3  and  C_4
REMARK    3  A    between atoms: C_3  and  C_5
REMARK    4  A    between atoms: C_3  and  C_6
REMARK    5  A    between atoms: C_8  and  C_9
REMARK    6  A    between atoms: C_14  and  O_15
REMARK    7  A    between atoms: C_17  and  O_18
REMARK    8  A    between atoms: C_19  and  C_20
REMARK    9  A    between atoms: C_20  and  C_21
REMARK   10  A    between atoms: C_22  and  C_23
REMARK   11  A    between atoms: C_22  and  C_24
REMARK   12  A    between atoms: C_27  and  O_28
REMARK   13  A    between atoms: C_30  and  O_31
REMARK                            x       y       z     vdW  Elec       q    Type
REMARK                         _______ _______ _______ _____ _____    ______ ____
ROOT
ATOM      1  C   UNL     1       3.155   5.437  18.743  0.00  0.00    +0.000 C 
ATOM      2  C   UNL     1       4.307   5.053  19.658  0.00  0.00    +0.000 C 
ATOM      3  C   UNL     1       4.987   3.946  18.988  0.00  0.00    +0.000 C 
ATOM      4  O   UNL     1       5.069   2.800  19.395  0.00  0.00    +0.000 OA
ATOM      5  C   UNL     1       5.598   4.403  17.770  0.00  0.00    +0.000 A 
ATOM      6  C   UNL     1       6.956   4.725  17.752  0.00  0.00    +0.000 A 
ATOM      7  C   UNL     1       7.513   5.309  16.640  0.00  0.00    +0.000 A 
ATOM      8  C   UNL     1       6.726   5.458  15.501  0.00  0.00    +0.000 A 
ATOM      9  C   UNL     1       5.330   5.167  15.514  0.00  0.00    +0.000 A 
ATOM     10  C   UNL     1       4.741   4.908  16.803  0.00  0.00    +0.000 A 
ATOM     11  O   UNL     1       3.607   5.651  17.299  0.00  0.00    +0.000 OA
ENDROOT
BRANCH   1  14
ATOM     12  C   UNL     1       1.371   8.914  19.432  0.00  0.00    +0.000 A 
ATOM     13  C   UNL     1       2.256   7.916  18.908  0.00  0.00    +0.000 A 
ATOM     14  C   UNL     1       2.518   6.624  19.559  0.00  0.00    +0.000 A 
ATOM     15  C   UNL     1       1.921   6.438  20.800  0.00  0.00    +0.000 A 
ATOM     16  C   UNL     1       1.097   7.412  21.363  0.00  0.00    +0.000 A 
ATOM     17  C   UNL     1       0.806   8.612  20.679  0.00  0.00    +0.000 A 
BRANCH  12  18
ATOM     18  C   UNL     1       0.953  10.248  18.693  0.00  0.00    +0.000 C 
ATOM     19  C   UNL     1       0.479  11.399  19.627  0.00  0.00    +0.000 C 
ATOM     20  C   UNL     1      -0.243  10.009  17.740  0.00  0.00    +0.000 C 
BRANCH  18  22
ATOM     21  C   UNL     1       2.625  12.055  17.856  0.00  0.00    +0.000 C 
ATOM     22  C   UNL     1       2.116  10.809  17.843  0.00  0.00    +0.000 C 
ENDBRANCH  18  22
ENDBRANCH  12  18
BRANCH  15  23
ATOM     23  O   UNL     1       2.064   5.300  21.529  0.00  0.00    +0.000 OA
ATOM     24  H   UNL     1       2.100   4.533  20.927  0.00  0.00    +0.000 HD
ENDBRANCH  15  23
BRANCH  17  25
ATOM     25  O   UNL     1      -0.076   9.489  21.255  0.00  0.00    +0.000 OA
ATOM     26  H   UNL     1      -0.157   9.288  22.199  0.00  0.00    +0.000 HD
ENDBRANCH  17  25
ENDBRANCH   1  14
BRANCH   6  27
ATOM     27  O   UNL     1       7.764   4.606  18.852  0.00  0.00    +0.000 OA
ATOM     28  H   UNL     1       7.632   5.357  19.458  0.00  0.00    +0.000 HD
ENDBRANCH   6  27
BRANCH   8  29
ATOM     29  O   UNL     1       7.367   5.726  14.322  0.00  0.00    +0.000 OA
ATOM     30  H   UNL     1       7.260   4.968  13.720  0.00  0.00    +0.000 HD
ENDBRANCH   8  29
BRANCH   9  31
ATOM     31  C   UNL     1       4.945   4.279  14.272  0.00  0.00    +0.000 C 
BRANCH  31  32
ATOM     32  C   UNL     1       6.039   3.725  13.369  0.00  0.00    +0.000 C 
ATOM     33  C   UNL     1       5.898   3.152  12.154  0.00  0.00    +0.000 C 
ATOM     34  C   UNL     1       4.603   3.084  11.406  0.00  0.00    +0.000 C 
ATOM     35  C   UNL     1       7.054   2.490  11.429  0.00  0.00    +0.000 C 
ENDBRANCH  31  32
ENDBRANCH   9  31
TORSDOF 9
ENDMDL
MODEL 9
REMARK VINA RESULT:      -8.1      4.181      7.794
REMARK  Name = 
REMARK  13 active torsions:
REMARK  status: ('A' for Active; 'I' for Inactive)
REMARK    1  A    between atoms: C_2  and  C_3
REMARK    2  A    between atoms: C_3  and  C_4
REMARK    3  A    between atoms: C_3  and  C_5
REMARK    4  A    between atoms: C_3  and  C_6
REMARK    5  A    between atoms: C_8  and  C_9
REMARK    6  A    between atoms: C_14  and  O_15
REMARK    7  A    between atoms: C_17  and  O_18
REMARK    8  A    between atoms: C_19  and  C_20
REMARK    9  A    between atoms: C_20  and  C_21
REMARK   10  A    between atoms: C_22  and  C_23
REMARK   11  A    between atoms: C_22  and  C_24
REMARK   12  A    between atoms: C_27  and  O_28
REMARK   13  A    between atoms: C_30  and  O_31
REMARK                            x       y       z     vdW  Elec       q    Type
REMARK                         _______ _______ _______ _____ _____    ______ ____
ROOT
ATOM      1  C   UNL     1       0.487  12.419  18.662  0.00  0.00    +0.000 C 
ATOM      2  C   UNL     1      -0.858  12.992  19.082  0.00  0.00    +0.000 C 
ATOM      3  C   UNL     1      -1.680  11.838  19.438  0.00  0.00    +0.000 C 
ATOM      4  O   UNL     1      -2.691  11.470  18.864  0.00  0.00    +0.000 OA
ATOM      5  C   UNL     1      -1.152  11.193  20.609  0.00  0.00    +0.000 A 
ATOM      6  C   UNL     1      -1.703  11.470  21.862  0.00  0.00    +0.000 A 
ATOM      7  C   UNL     1      -1.107  10.983  23.000  0.00  0.00    +0.000 A 
ATOM      8  C   UNL     1      -0.026  10.117  22.868  0.00  0.00    +0.000 A 
ATOM      9  C   UNL     1       0.570   9.852  21.599  0.00  0.00    +0.000 A 
ATOM     10  C   UNL     1       0.130  10.674  20.501  0.00  0.00    +0.000 A 
ATOM     11  O   UNL     1       1.048  11.438  19.690  0.00  0.00    +0.000 OA
ENDROOT
BRANCH   1  14
ATOM     12  C   UNL     1       1.393  16.283  18.638  0.00  0.00    +0.000 A 
ATOM     13  C   UNL     1       0.658  15.055  18.567  0.00  0.00    +0.000 A 
ATOM     14  C   UNL     1       1.271  13.742  18.317  0.00  0.00    +0.000 A 
ATOM     15  C   UNL     1       2.635  13.751  18.049  0.00  0.00    +0.000 A 
ATOM     16  C   UNL     1       3.369  14.935  18.056  0.00  0.00    +0.000 A 
ATOM     17  C   UNL     1       2.765  16.172  18.373  0.00  0.00    +0.000 A 
BRANCH  12  18
ATOM     18  C   UNL     1       0.793  17.688  19.045  0.00  0.00    +0.000 C 
ATOM     19  C   UNL     1       1.592  18.456  20.138  0.00  0.00    +0.000 C 
ATOM     20  C   UNL     1      -0.628  17.537  19.644  0.00  0.00    +0.000 C 
BRANCH  18  22
ATOM     21  C   UNL     1       0.477  18.293  16.537  0.00  0.00    +0.000 C 
ATOM     22  C   UNL     1       0.681  18.629  17.825  0.00  0.00    +0.000 C 
ENDBRANCH  18  22
ENDBRANCH  12  18
BRANCH  15  23
ATOM     23  O   UNL     1       3.348  12.621  17.799  0.00  0.00    +0.000 OA
ATOM     24  H   UNL     1       2.737  11.897  17.570  0.00  0.00    +0.000 HD
ENDBRANCH  15  23
BRANCH  17  25
ATOM     25  O   UNL     1       3.562  17.284  18.441  0.00  0.00    +0.000 OA
ATOM     26  H   UNL     1       4.461  17.019  18.684  0.00  0.00    +0.000 HD
ENDBRANCH  17  25
ENDBRANCH   1  14
BRANCH   6  27
ATOM     27  O   UNL     1      -2.758  12.325  22.040  0.00  0.00    +0.000 OA
ATOM     28  H   UNL     1      -2.985  12.398  22.984  0.00  0.00    +0.000 HD
ENDBRANCH   6  27
BRANCH   8  29
ATOM     29  O   UNL     1       0.340   9.391  23.969  0.00  0.00    +0.000 OA
ATOM     30  H   UNL     1       0.241   9.945  24.764  0.00  0.00    +0.000 HD
ENDBRANCH   8  29
BRANCH   9  31
ATOM     31  C   UNL     1       0.770   8.303  21.401  0.00  0.00    +0.000 C 
BRANCH  31  32
ATOM     32  C   UNL     1       1.745   7.794  20.348  0.00  0.00    +0.000 C 
ATOM     33  C   UNL     1       2.105   6.516  20.103  0.00  0.00    +0.000 C 
ATOM     34  C   UNL     1       1.481   5.328  20.766  0.00  0.00    +0.000 C 
ATOM     35  C   UNL     1       3.215   6.156  19.133  0.00  0.00    +0.000 C 
ENDBRANCH  31  32
ENDBRANCH   9  31
TORSDOF 9
ENDMDL
