MODEL 1
REMARK VINA RESULT:      -7.6      0.000      0.000
REMARK  Name = 
REMARK  7 active torsions:
REMARK  status: ('A' for Active; 'I' for Inactive)
REMARK    1  A    between atoms: C_1  and  C_2
REMARK    2  A    between atoms: C_2  and  O_3
REMARK    3  A    between atoms: O_3  and  C_4
REMARK    4  A    between atoms: C_7  and  C_8
REMARK    5  A    between atoms: C_8  and  C_10
REMARK    6  A    between atoms: C_11  and  C_12
REMARK    7  A    between atoms: C_15  and  C_16
REMARK                            x       y       z     vdW  Elec       q    Type
REMARK                         _______ _______ _______ _____ _____    ______ ____
ROOT
ATOM      1  C   UNL     1       7.258   6.776  17.288  0.00  0.00    +0.000 C 
ATOM      2  O   UNL     1       7.709   6.256  16.274  0.00  0.00    +0.000 OA
ENDROOT
BRANCH   1   6
ATOM      3  C   UNL     1       3.443   5.516  18.822  0.00  0.00    +0.000 A 
ATOM      4  C   UNL     1       3.533   6.457  17.795  0.00  0.00    +0.000 A 
ATOM      5  C   UNL     1       4.781   6.853  17.306  0.00  0.00    +0.000 A 
ATOM      6  C   UNL     1       5.955   6.315  17.847  0.00  0.00    +0.000 A 
ATOM      7  C   UNL     1       5.863   5.401  18.905  0.00  0.00    +0.000 A 
ATOM      8  C   UNL     1       4.610   5.008  19.392  0.00  0.00    +0.000 A 
BRANCH   3   9
ATOM      9  O   UNL     1       2.170   5.187  19.197  0.00  0.00    +0.000 OA
BRANCH   9  11
ATOM     10  C   UNL     1       1.208   3.626  20.719  0.00  0.00    +0.000 C 
ATOM     11  C   UNL     1       1.966   4.935  20.589  0.00  0.00    +0.000 C 
ENDBRANCH   9  11
ENDBRANCH   3   9
ENDBRANCH   1   6
BRANCH   1  12
ATOM     12  C   UNL     1       8.006   7.832  18.025  0.00  0.00    +0.000 C 
ATOM     13  C   UNL     1       7.891   9.116  17.659  0.00  0.00    +0.000 C 
BRANCH  13  14
ATOM     14  C   UNL     1       8.669  10.162  18.325  0.00  0.00    +0.000 A 
ATOM     15  C   UNL     1       9.236   9.916  19.579  0.00  0.00    +0.000 A 
ATOM     16  C   UNL     1       9.966  10.912  20.233  0.00  0.00    +0.000 A 
ATOM     17  C   UNL     1      10.141  12.166  19.641  0.00  0.00    +0.000 A 
ATOM     18  C   UNL     1      10.943  13.238  20.322  0.00  0.00    +0.000 C 
ATOM     19  C   UNL     1       9.568  12.412  18.386  0.00  0.00    +0.000 A 
ATOM     20  C   UNL     1       8.836  11.416  17.732  0.00  0.00    +0.000 A 
ENDBRANCH  13  14
ENDBRANCH   1  12
TORSDOF 5
ENDMDL
MODEL 2
REMARK VINA RESULT:      -7.4      0.685      1.677
REMARK  Name = 
REMARK  7 active torsions:
REMARK  status: ('A' for Active; 'I' for Inactive)
REMARK    1  A    between atoms: C_1  and  C_2
REMARK    2  A    between atoms: C_2  and  O_3
REMARK    3  A    between atoms: O_3  and  C_4
REMARK    4  A    between atoms: C_7  and  C_8
REMARK    5  A    between atoms: C_8  and  C_10
REMARK    6  A    between atoms: C_11  and  C_12
REMARK    7  A    between atoms: C_15  and  C_16
REMARK                            x       y       z     vdW  Elec       q    Type
REMARK                         _______ _______ _______ _____ _____    ______ ____
ROOT
ATOM      1  C   UNL     1       7.252   6.863  17.269  0.00  0.00    +0.000 C 
ATOM      2  O   UNL     1       7.717   6.321  16.272  0.00  0.00    +0.000 OA
ENDROOT
BRANCH   1   6
ATOM      3  C   UNL     1       3.489   5.556  18.888  0.00  0.00    +0.000 A 
ATOM      4  C   UNL     1       4.696   5.046  19.366  0.00  0.00    +0.000 A 
ATOM      5  C   UNL     1       5.911   5.483  18.830  0.00  0.00    +0.000 A 
ATOM      6  C   UNL     1       5.929   6.435  17.803  0.00  0.00    +0.000 A 
ATOM      7  C   UNL     1       4.714   6.916  17.297  0.00  0.00    +0.000 A 
ATOM      8  C   UNL     1       3.499   6.472  17.836  0.00  0.00    +0.000 A 
BRANCH   3   9
ATOM      9  O   UNL     1       2.370   5.073  19.507  0.00  0.00    +0.000 OA
BRANCH   9  11
ATOM     10  C   UNL     1       1.520   3.269  18.203  0.00  0.00    +0.000 C 
ATOM     11  C   UNL     1       2.207   3.654  19.502  0.00  0.00    +0.000 C 
ENDBRANCH   9  11
ENDBRANCH   3   9
ENDBRANCH   1   6
BRANCH   1  12
ATOM     12  C   UNL     1       8.004   7.915  18.009  0.00  0.00    +0.000 C 
ATOM     13  C   UNL     1       7.893   9.201  17.647  0.00  0.00    +0.000 C 
BRANCH  13  14
ATOM     14  C   UNL     1       8.674  10.242  18.316  0.00  0.00    +0.000 A 
ATOM     15  C   UNL     1       8.785  11.510  17.736  0.00  0.00    +0.000 A 
ATOM     16  C   UNL     1       9.541  12.508  18.356  0.00  0.00    +0.000 A 
ATOM     17  C   UNL     1      10.195  12.253  19.565  0.00  0.00    +0.000 A 
ATOM     18  C   UNL     1      10.992  13.322  20.255  0.00  0.00    +0.000 C 
ATOM     19  C   UNL     1      10.086  10.980  20.143  0.00  0.00    +0.000 A 
ATOM     20  C   UNL     1       9.329   9.981  19.522  0.00  0.00    +0.000 A 
ENDBRANCH  13  14
ENDBRANCH   1  12
TORSDOF 5
ENDMDL
MODEL 3
REMARK VINA RESULT:      -7.3      0.689      1.287
REMARK  Name = 
REMARK  7 active torsions:
REMARK  status: ('A' for Active; 'I' for Inactive)
REMARK    1  A    between atoms: C_1  and  C_2
REMARK    2  A    between atoms: C_2  and  O_3
REMARK    3  A    between atoms: O_3  and  C_4
REMARK    4  A    between atoms: C_7  and  C_8
REMARK    5  A    between atoms: C_8  and  C_10
REMARK    6  A    between atoms: C_11  and  C_12
REMARK    7  A    between atoms: C_15  and  C_16
REMARK                            x       y       z     vdW  Elec       q    Type
REMARK                         _______ _______ _______ _____ _____    ______ ____
ROOT
ATOM      1  C   UNL     1       7.182   6.765  17.240  0.00  0.00    +0.000 C 
ATOM      2  O   UNL     1       7.588   6.226  16.216  0.00  0.00    +0.000 OA
ENDROOT
BRANCH   1   6
ATOM      3  C   UNL     1       3.411   5.606  18.953  0.00  0.00    +0.000 A 
ATOM      4  C   UNL     1       4.614   5.088  19.438  0.00  0.00    +0.000 A 
ATOM      5  C   UNL     1       5.831   5.478  18.871  0.00  0.00    +0.000 A 
ATOM      6  C   UNL     1       5.856   6.387  17.806  0.00  0.00    +0.000 A 
ATOM      7  C   UNL     1       4.645   6.874  17.296  0.00  0.00    +0.000 A 
ATOM      8  C   UNL     1       3.428   6.479  17.866  0.00  0.00    +0.000 A 
BRANCH   3   9
ATOM      9  O   UNL     1       2.290   5.173  19.604  0.00  0.00    +0.000 OA
BRANCH   9  11
ATOM     10  C   UNL     1       1.384   3.400  18.295  0.00  0.00    +0.000 C 
ATOM     11  C   UNL     1       2.064   3.762  19.603  0.00  0.00    +0.000 C 
ENDBRANCH   9  11
ENDBRANCH   3   9
ENDBRANCH   1   6
BRANCH   1  12
ATOM     12  C   UNL     1       8.006   7.762  17.980  0.00  0.00    +0.000 C 
ATOM     13  C   UNL     1       7.947   9.059  17.651  0.00  0.00    +0.000 C 
BRANCH  13  14
ATOM     14  C   UNL     1       8.798  10.045  18.318  0.00  0.00    +0.000 A 
ATOM     15  C   UNL     1       9.062   9.924  19.686  0.00  0.00    +0.000 A 
ATOM     16  C   UNL     1       9.859  10.868  20.340  0.00  0.00    +0.000 A 
ATOM     17  C   UNL     1      10.403  11.945  19.634  0.00  0.00    +0.000 A 
ATOM     18  C   UNL     1      11.280  12.955  20.317  0.00  0.00    +0.000 C 
ATOM     19  C   UNL     1      10.133  12.067  18.263  0.00  0.00    +0.000 A 
ATOM     20  C   UNL     1       9.335  11.123  17.610  0.00  0.00    +0.000 A 
ENDBRANCH  13  14
ENDBRANCH   1  12
TORSDOF 5
ENDMDL
MODEL 4
REMARK VINA RESULT:      -7.3      0.550      1.223
REMARK  Name = 
REMARK  7 active torsions:
REMARK  status: ('A' for Active; 'I' for Inactive)
REMARK    1  A    between atoms: C_1  and  C_2
REMARK    2  A    between atoms: C_2  and  O_3
REMARK    3  A    between atoms: O_3  and  C_4
REMARK    4  A    between atoms: C_7  and  C_8
REMARK    5  A    between atoms: C_8  and  C_10
REMARK    6  A    between atoms: C_11  and  C_12
REMARK    7  A    between atoms: C_15  and  C_16
REMARK                            x       y       z     vdW  Elec       q    Type
REMARK                         _______ _______ _______ _____ _____    ______ ____
ROOT
ATOM      1  C   UNL     1       7.332   6.864  17.235  0.00  0.00    +0.000 C 
ATOM      2  O   UNL     1       7.818   6.519  16.163  0.00  0.00    +0.000 OA
ENDROOT
BRANCH   1   6
ATOM      3  C   UNL     1       3.799   4.898  18.701  0.00  0.00    +0.000 A 
ATOM      4  C   UNL     1       3.724   5.860  17.693  0.00  0.00    +0.000 A 
ATOM      5  C   UNL     1       4.883   6.487  17.225  0.00  0.00    +0.000 A 
ATOM      6  C   UNL     1       6.131   6.162  17.770  0.00  0.00    +0.000 A 
ATOM      7  C   UNL     1       6.199   5.226  18.810  0.00  0.00    +0.000 A 
ATOM      8  C   UNL     1       5.035   4.601  19.276  0.00  0.00    +0.000 A 
BRANCH   3   9
ATOM      9  O   UNL     1       2.605   4.335  19.056  0.00  0.00    +0.000 OA
BRANCH   9  11
ATOM     10  C   UNL     1       1.615   3.697  21.128  0.00  0.00    +0.000 C 
ATOM     11  C   UNL     1       2.655   3.340  20.080  0.00  0.00    +0.000 C 
ENDBRANCH   9  11
ENDBRANCH   3   9
ENDBRANCH   1   6
BRANCH   1  12
ATOM     12  C   UNL     1       7.944   7.942  18.061  0.00  0.00    +0.000 C 
ATOM     13  C   UNL     1       8.042   9.187  17.575  0.00  0.00    +0.000 C 
BRANCH  13  14
ATOM     14  C   UNL     1       8.700  10.246  18.342  0.00  0.00    +0.000 A 
ATOM     15  C   UNL     1       8.724  11.553  17.845  0.00  0.00    +0.000 A 
ATOM     16  C   UNL     1       9.364  12.570  18.559  0.00  0.00    +0.000 A 
ATOM     17  C   UNL     1       9.987  12.293  19.780  0.00  0.00    +0.000 A 
ATOM     18  C   UNL     1      10.659  13.380  20.570  0.00  0.00    +0.000 C 
ATOM     19  C   UNL     1       9.965  10.981  20.273  0.00  0.00    +0.000 A 
ATOM     20  C   UNL     1       9.326   9.964  19.558  0.00  0.00    +0.000 A 
ENDBRANCH  13  14
ENDBRANCH   1  12
TORSDOF 5
ENDMDL
MODEL 5
REMARK VINA RESULT:      -7.2      0.680      1.628
REMARK  Name = 
REMARK  7 active torsions:
REMARK  status: ('A' for Active; 'I' for Inactive)
REMARK    1  A    between atoms: C_1  and  C_2
REMARK    2  A    between atoms: C_2  and  O_3
REMARK    3  A    between atoms: O_3  and  C_4
REMARK    4  A    between atoms: C_7  and  C_8
REMARK    5  A    between atoms: C_8  and  C_10
REMARK    6  A    between atoms: C_11  and  C_12
REMARK    7  A    between atoms: C_15  and  C_16
REMARK                            x       y       z     vdW  Elec       q    Type
REMARK                         _______ _______ _______ _____ _____    ______ ____
ROOT
ATOM      1  C   UNL     1       7.207   6.708  17.187  0.00  0.00    +0.000 C 
ATOM      2  O   UNL     1       7.687   6.384  16.106  0.00  0.00    +0.000 OA
ENDROOT
BRANCH   1   6
ATOM      3  C   UNL     1       3.831   4.610  18.829  0.00  0.00    +0.000 A 
ATOM      4  C   UNL     1       5.014   4.753  19.554  0.00  0.00    +0.000 A 
ATOM      5  C   UNL     1       6.101   5.441  19.007  0.00  0.00    +0.000 A 
ATOM      6  C   UNL     1       6.017   5.988  17.721  0.00  0.00    +0.000 A 
ATOM      7  C   UNL     1       4.842   5.808  16.978  0.00  0.00    +0.000 A 
ATOM      8  C   UNL     1       3.756   5.116  17.531  0.00  0.00    +0.000 A 
BRANCH   3   9
ATOM      9  O   UNL     1       2.830   3.943  19.478  0.00  0.00    +0.000 OA
BRANCH   9  11
ATOM     10  C   UNL     1       2.061   3.379  21.662  0.00  0.00    +0.000 C 
ATOM     11  C   UNL     1       2.383   4.516  20.708  0.00  0.00    +0.000 C 
ENDBRANCH   9  11
ENDBRANCH   3   9
ENDBRANCH   1   6
BRANCH   1  12
ATOM     12  C   UNL     1       7.817   7.779  18.025  0.00  0.00    +0.000 C 
ATOM     13  C   UNL     1       7.955   9.018  17.535  0.00  0.00    +0.000 C 
BRANCH  13  14
ATOM     14  C   UNL     1       8.612  10.068  18.315  0.00  0.00    +0.000 A 
ATOM     15  C   UNL     1       8.674  11.372  17.814  0.00  0.00    +0.000 A 
ATOM     16  C   UNL     1       9.314  12.380  18.541  0.00  0.00    +0.000 A 
ATOM     17  C   UNL     1       9.898  12.098  19.779  0.00  0.00    +0.000 A 
ATOM     18  C   UNL     1      10.569  13.175  20.582  0.00  0.00    +0.000 C 
ATOM     19  C   UNL     1       9.839  10.788  20.277  0.00  0.00    +0.000 A 
ATOM     20  C   UNL     1       9.199   9.780  19.549  0.00  0.00    +0.000 A 
ENDBRANCH  13  14
ENDBRANCH   1  12
TORSDOF 5
ENDMDL
MODEL 6
REMARK VINA RESULT:      -7.1      4.807      6.992
REMARK  Name = 
REMARK  7 active torsions:
REMARK  status: ('A' for Active; 'I' for Inactive)
REMARK    1  A    between atoms: C_1  and  C_2
REMARK    2  A    between atoms: C_2  and  O_3
REMARK    3  A    between atoms: O_3  and  C_4
REMARK    4  A    between atoms: C_7  and  C_8
REMARK    5  A    between atoms: C_8  and  C_10
REMARK    6  A    between atoms: C_11  and  C_12
REMARK    7  A    between atoms: C_15  and  C_16
REMARK                            x       y       z     vdW  Elec       q    Type
REMARK                         _______ _______ _______ _____ _____    ______ ____
ROOT
ATOM      1  C   UNL     1       3.712   4.211  19.013  0.00  0.00    +0.000 C 
ATOM      2  O   UNL     1       3.558   3.146  19.603  0.00  0.00    +0.000 OA
ENDROOT
BRANCH   1   6
ATOM      3  C   UNL     1       6.796   4.612  16.043  0.00  0.00    +0.000 A 
ATOM      4  C   UNL     1       5.495   4.251  15.688  0.00  0.00    +0.000 A 
ATOM      5  C   UNL     1       4.504   4.128  16.666  0.00  0.00    +0.000 A 
ATOM      6  C   UNL     1       4.807   4.359  18.014  0.00  0.00    +0.000 A 
ATOM      7  C   UNL     1       6.123   4.681  18.371  0.00  0.00    +0.000 A 
ATOM      8  C   UNL     1       7.114   4.801  17.387  0.00  0.00    +0.000 A 
BRANCH   3   9
ATOM      9  O   UNL     1       7.670   4.727  14.998  0.00  0.00    +0.000 OA
BRANCH   9  11
ATOM     10  C   UNL     1       8.110   5.471  12.777  0.00  0.00    +0.000 C 
ATOM     11  C   UNL     1       7.090   4.822  13.696  0.00  0.00    +0.000 C 
ENDBRANCH   9  11
ENDBRANCH   3   9
ENDBRANCH   1   6
BRANCH   1  12
ATOM     12  C   UNL     1       2.792   5.363  19.225  0.00  0.00    +0.000 C 
ATOM     13  C   UNL     1       3.081   6.560  18.696  0.00  0.00    +0.000 C 
BRANCH  13  14
ATOM     14  C   UNL     1       2.227   7.721  18.948  0.00  0.00    +0.000 A 
ATOM     15  C   UNL     1       1.732   7.955  20.236  0.00  0.00    +0.000 A 
ATOM     16  C   UNL     1       0.902   9.051  20.486  0.00  0.00    +0.000 A 
ATOM     17  C   UNL     1       0.557   9.929  19.454  0.00  0.00    +0.000 A 
ATOM     18  C   UNL     1      -0.316  11.123  19.713  0.00  0.00    +0.000 C 
ATOM     19  C   UNL     1       1.050   9.689  18.164  0.00  0.00    +0.000 A 
ATOM     20  C   UNL     1       1.880   8.592  17.913  0.00  0.00    +0.000 A 
ENDBRANCH  13  14
ENDBRANCH   1  12
TORSDOF 5
ENDMDL
MODEL 7
REMARK VINA RESULT:      -7.0      5.008      6.879
REMARK  Name = 
REMARK  7 active torsions:
REMARK  status: ('A' for Active; 'I' for Inactive)
REMARK    1  A    between atoms: C_1  and  C_2
REMARK    2  A    between atoms: C_2  and  O_3
REMARK    3  A    between atoms: O_3  and  C_4
REMARK    4  A    between atoms: C_7  and  C_8
REMARK    5  A    between atoms: C_8  and  C_10
REMARK    6  A    between atoms: C_11  and  C_12
REMARK    7  A    between atoms: C_15  and  C_16
REMARK                            x       y       z     vdW  Elec       q    Type
REMARK                         _______ _______ _______ _____ _____    ______ ____
ROOT
ATOM      1  C   UNL     1       4.921   4.419  18.804  0.00  0.00    +0.000 C 
ATOM      2  O   UNL     1       5.258   3.549  19.601  0.00  0.00    +0.000 OA
ENDROOT
BRANCH   1   6
ATOM      3  C   UNL     1       6.417   4.378  14.773  0.00  0.00    +0.000 A 
ATOM      4  C   UNL     1       5.127   3.935  15.068  0.00  0.00    +0.000 A 
ATOM      5  C   UNL     1       4.655   3.957  16.384  0.00  0.00    +0.000 A 
ATOM      6  C   UNL     1       5.475   4.419  17.421  0.00  0.00    +0.000 A 
ATOM      7  C   UNL     1       6.784   4.826  17.127  0.00  0.00    +0.000 A 
ATOM      8  C   UNL     1       7.252   4.799  15.807  0.00  0.00    +0.000 A 
BRANCH   3   9
ATOM      9  O   UNL     1       6.755   4.334  13.449  0.00  0.00    +0.000 OA
BRANCH   9  11
ATOM     10  C   UNL     1       6.791   2.718  11.698  0.00  0.00    +0.000 C 
ATOM     11  C   UNL     1       5.906   3.554  12.605  0.00  0.00    +0.000 C 
ENDBRANCH   9  11
ENDBRANCH   3   9
ENDBRANCH   1   6
BRANCH   1  12
ATOM     12  C   UNL     1       3.918   5.461  19.162  0.00  0.00    +0.000 C 
ATOM     13  C   UNL     1       3.612   6.427  18.284  0.00  0.00    +0.000 C 
BRANCH  13  14
ATOM     14  C   UNL     1       2.681   7.500  18.639  0.00  0.00    +0.000 A 
ATOM     15  C   UNL     1       2.127   7.544  19.923  0.00  0.00    +0.000 A 
ATOM     16  C   UNL     1       1.224   8.553  20.269  0.00  0.00    +0.000 A 
ATOM     17  C   UNL     1       0.864   9.532  19.337  0.00  0.00    +0.000 A 
ATOM     18  C   UNL     1      -0.087  10.635  19.702  0.00  0.00    +0.000 C 
ATOM     19  C   UNL     1       1.417   9.482  18.050  0.00  0.00    +0.000 A 
ATOM     20  C   UNL     1       2.320   8.472  17.704  0.00  0.00    +0.000 A 
ENDBRANCH  13  14
ENDBRANCH   1  12
TORSDOF 5
ENDMDL
MODEL 8
REMARK VINA RESULT:      -6.9      5.020      6.885
REMARK  Name = 
REMARK  7 active torsions:
REMARK  status: ('A' for Active; 'I' for Inactive)
REMARK    1  A    between atoms: C_1  and  C_2
REMARK    2  A    between atoms: C_2  and  O_3
REMARK    3  A    between atoms: O_3  and  C_4
REMARK    4  A    between atoms: C_7  and  C_8
REMARK    5  A    between atoms: C_8  and  C_10
REMARK    6  A    between atoms: C_11  and  C_12
REMARK    7  A    between atoms: C_15  and  C_16
REMARK                            x       y       z     vdW  Elec       q    Type
REMARK                         _______ _______ _______ _____ _____    ______ ____
ROOT
ATOM      1  C   UNL     1       5.055   4.479  18.793  0.00  0.00    +0.000 C 
ATOM      2  O   UNL     1       5.453   3.626  19.579  0.00  0.00    +0.000 OA
ENDROOT
BRANCH   1   6
ATOM      3  C   UNL     1       6.327   4.425  14.685  0.00  0.00    +0.000 A 
ATOM      4  C   UNL     1       5.042   4.020  15.048  0.00  0.00    +0.000 A 
ATOM      5  C   UNL     1       4.644   4.046  16.388  0.00  0.00    +0.000 A 
ATOM      6  C   UNL     1       5.533   4.473  17.382  0.00  0.00    +0.000 A 
ATOM      7  C   UNL     1       6.836   4.841  17.019  0.00  0.00    +0.000 A 
ATOM      8  C   UNL     1       7.231   4.811  15.675  0.00  0.00    +0.000 A 
BRANCH   3   9
ATOM      9  O   UNL     1       6.592   4.381  13.345  0.00  0.00    +0.000 OA
BRANCH   9  11
ATOM     10  C   UNL     1       5.092   3.399  11.775  0.00  0.00    +0.000 C 
ATOM     11  C   UNL     1       6.286   3.154  12.680  0.00  0.00    +0.000 C 
ENDBRANCH   9  11
ENDBRANCH   3   9
ENDBRANCH   1   6
BRANCH   1  12
ATOM     12  C   UNL     1       4.052   5.505  19.193  0.00  0.00    +0.000 C 
ATOM     13  C   UNL     1       3.605   6.393  18.295  0.00  0.00    +0.000 C 
BRANCH  13  14
ATOM     14  C   UNL     1       2.671   7.451  18.682  0.00  0.00    +0.000 A 
ATOM     15  C   UNL     1       2.350   8.464  17.772  0.00  0.00    +0.000 A 
ATOM     16  C   UNL     1       1.473   9.490  18.135  0.00  0.00    +0.000 A 
ATOM     17  C   UNL     1       0.904   9.516  19.412  0.00  0.00    +0.000 A 
ATOM     18  C   UNL     1      -0.058  10.599  19.808  0.00  0.00    +0.000 C 
ATOM     19  C   UNL     1       1.231   8.502  20.323  0.00  0.00    +0.000 A 
ATOM     20  C   UNL     1       2.109   7.477  19.960  0.00  0.00    +0.000 A 
ENDBRANCH  13  14
ENDBRANCH   1  12
TORSDOF 5
ENDMDL
MODEL 9
REMARK VINA RESULT:      -6.8      0.999      1.376
REMARK  Name = 
REMARK  7 active torsions:
REMARK  status: ('A' for Active; 'I' for Inactive)
REMARK    1  A    between atoms: C_1  and  C_2
REMARK    2  A    between atoms: C_2  and  O_3
REMARK    3  A    between atoms: O_3  and  C_4
REMARK    4  A    between atoms: C_7  and  C_8
REMARK    5  A    between atoms: C_8  and  C_10
REMARK    6  A    between atoms: C_11  and  C_12
REMARK    7  A    between atoms: C_15  and  C_16
REMARK                            x       y       z     vdW  Elec       q    Type
REMARK                         _______ _______ _______ _____ _____    ______ ____
ROOT
ATOM      1  C   UNL     1       6.645   6.776  17.027  0.00  0.00    +0.000 C 
ATOM      2  O   UNL     1       7.447   6.056  16.442  0.00  0.00    +0.000 OA
ENDROOT
BRANCH   1   6
ATOM      3  C   UNL     1       2.742   5.204  17.914  0.00  0.00    +0.000 A 
ATOM      4  C   UNL     1       3.795   4.361  17.559  0.00  0.00    +0.000 A 
ATOM      5  C   UNL     1       5.059   4.888  17.276  0.00  0.00    +0.000 A 
ATOM      6  C   UNL     1       5.279   6.270  17.341  0.00  0.00    +0.000 A 
ATOM      7  C   UNL     1       4.210   7.117  17.658  0.00  0.00    +0.000 A 
ATOM      8  C   UNL     1       2.944   6.584  17.938  0.00  0.00    +0.000 A 
BRANCH   3   9
ATOM      9  O   UNL     1       1.563   4.572  18.194  0.00  0.00    +0.000 OA
BRANCH   9  11
ATOM     10  C   UNL     1       1.451   4.442  20.571  0.00  0.00    +0.000 C 
ATOM     11  C   UNL     1       1.584   3.648  19.283  0.00  0.00    +0.000 C 
ENDBRANCH   9  11
ENDBRANCH   3   9
ENDBRANCH   1   6
BRANCH   1  12
ATOM     12  C   UNL     1       7.014   8.142  17.494  0.00  0.00    +0.000 C 
ATOM     13  C   UNL     1       8.283   8.418  17.826  0.00  0.00    +0.000 C 
BRANCH  13  14
ATOM     14  C   UNL     1       8.655   9.733  18.350  0.00  0.00    +0.000 A 
ATOM     15  C   UNL     1       9.215   9.840  19.627  0.00  0.00    +0.000 A 
ATOM     16  C   UNL     1       9.560  11.091  20.147  0.00  0.00    +0.000 A 
ATOM     17  C   UNL     1       9.349  12.251  19.396  0.00  0.00    +0.000 A 
ATOM     18  C   UNL     1       9.735  13.600  19.932  0.00  0.00    +0.000 C 
ATOM     19  C   UNL     1       8.783  12.142  18.118  0.00  0.00    +0.000 A 
ATOM     20  C   UNL     1       8.438  10.890  17.599  0.00  0.00    +0.000 A 
ENDBRANCH  13  14
ENDBRANCH   1  12
TORSDOF 5
ENDMDL
