MODEL 1
REMARK VINA RESULT:      -8.6      0.000      0.000
REMARK  Name = 
REMARK  7 active torsions:
REMARK  status: ('A' for Active; 'I' for Inactive)
REMARK    1  A    between atoms: C_2  and  C_15
REMARK    2  A    between atoms: N_3  and  C_4
REMARK    3  A    between atoms: C_4  and  C_5
REMARK    4  A    between atoms: C_5  and  C_6
REMARK    5  A    between atoms: C_15  and  N_22
REMARK    6  A    between atoms: C_16  and  C_17
REMARK    7  A    between atoms: C_23  and  C_25
REMARK                            x       y       z     vdW  Elec       q    Type
REMARK                         _______ _______ _______ _____ _____    ______ ____
ROOT
ATOM      1  C   UNL     1       6.726   5.180  17.027  0.00  0.00    +0.000 C 
ATOM      2  C   UNL     1       7.245   5.082  15.790  0.00  0.00    +0.000 C 
ENDROOT
BRANCH   2   3
ATOM      3  C   UNL     1       6.604   4.484  14.669  0.00  0.00    +0.000 A 
ATOM      4  C   UNL     1       7.158   4.199  13.423  0.00  0.00    +0.000 A 
ATOM      5  C   UNL     1       6.118   3.753  12.572  0.00  0.00    +0.000 A 
ATOM      6  C   UNL     1       4.987   3.739  13.347  0.00  0.00    +0.000 A 
ATOM      7  O   UNL     1       5.267   4.163  14.603  0.00  0.00    +0.000 OA
ENDBRANCH   2   3
BRANCH   1   9
ATOM      8  O   UNL     1       7.788   5.753  19.091  0.00  0.00    +0.000 OA
ATOM      9  C   UNL     1       7.458   6.106  17.957  0.00  0.00    +0.000 C 
ATOM     10  N   UNL     1       7.741   7.349  17.459  0.00  0.00    +0.000 N 
ATOM     11  H   UNL     1       7.416   7.607  16.532  0.00  0.00    +0.000 HD
BRANCH  10  12
ATOM     12  C   UNL     1       8.412   8.367  18.248  0.00  0.00    +0.000 C 
BRANCH  12  13
ATOM     13  C   UNL     1       7.964   9.789  17.906  0.00  0.00    +0.000 C 
BRANCH  13  14
ATOM     14  C   UNL     1       9.000  10.804  18.257  0.00  0.00    +0.000 A 
ATOM     15  N   UNL     1       9.949  10.676  19.163  0.00  0.00    +0.000 NA
ATOM     16  C   UNL     1      10.658  11.851  19.124  0.00  0.00    +0.000 A 
ATOM     17  C   UNL     1      11.775  12.251  19.873  0.00  0.00    +0.000 A 
ATOM     18  C   UNL     1      12.333  13.512  19.623  0.00  0.00    +0.000 A 
ATOM     19  C   UNL     1      11.788  14.357  18.652  0.00  0.00    +0.000 A 
ATOM     20  C   UNL     1      10.669  13.978  17.902  0.00  0.00    +0.000 A 
ATOM     21  C   UNL     1      10.135  12.716  18.170  0.00  0.00    +0.000 A 
ATOM     22  N   UNL     1       9.072  12.031  17.641  0.00  0.00    +0.000 N 
ATOM     23  H   UNL     1       8.454  12.369  16.918  0.00  0.00    +0.000 HD
ENDBRANCH  13  14
ENDBRANCH  12  13
ENDBRANCH  10  12
ENDBRANCH   1   9
BRANCH   1  24
ATOM     24  N   UNL     1       5.527   4.627  17.428  0.00  0.00    +0.000 N 
ATOM     25  C   UNL     1       4.347   5.338  17.542  0.00  0.00    +0.000 C 
ATOM     26  O   UNL     1       4.245   6.523  17.234  0.00  0.00    +0.000 OA
ATOM     27  H   UNL     1       5.486   3.623  17.569  0.00  0.00    +0.000 HD
BRANCH  25  28
ATOM     28  C   UNL     1       3.225   4.548  18.014  0.00  0.00    +0.000 A 
ATOM     29  C   UNL     1       2.136   4.017  17.345  0.00  0.00    +0.000 A 
ATOM     30  C   UNL     1       1.340   3.357  18.311  0.00  0.00    +0.000 A 
ATOM     31  C   UNL     1       1.991   3.513  19.513  0.00  0.00    +0.000 A 
ATOM     32 BR   UNL     1       1.398   2.847  21.151  0.00  0.00    +0.000 Br
ATOM     33  O   UNL     1       3.137   4.226  19.345  0.00  0.00    +0.000 OA
ENDBRANCH  25  28
ENDBRANCH   1  24
TORSDOF 7
ENDMDL
MODEL 2
REMARK VINA RESULT:      -8.6      2.367      4.234
REMARK  Name = 
REMARK  7 active torsions:
REMARK  status: ('A' for Active; 'I' for Inactive)
REMARK    1  A    between atoms: C_2  and  C_15
REMARK    2  A    between atoms: N_3  and  C_4
REMARK    3  A    between atoms: C_4  and  C_5
REMARK    4  A    between atoms: C_5  and  C_6
REMARK    5  A    between atoms: C_15  and  N_22
REMARK    6  A    between atoms: C_16  and  C_17
REMARK    7  A    between atoms: C_23  and  C_25
REMARK                            x       y       z     vdW  Elec       q    Type
REMARK                         _______ _______ _______ _____ _____    ______ ____
ROOT
ATOM      1  C   UNL     1       6.119   4.761  17.933  0.00  0.00    +0.000 C 
ATOM      2  C   UNL     1       5.226   4.348  18.850  0.00  0.00    +0.000 C 
ENDROOT
BRANCH   2   3
ATOM      3  C   UNL     1       4.242   3.340  18.651  0.00  0.00    +0.000 A 
ATOM      4  C   UNL     1       4.248   2.036  19.142  0.00  0.00    +0.000 A 
ATOM      5  C   UNL     1       3.153   1.347  18.568  0.00  0.00    +0.000 A 
ATOM      6  C   UNL     1       2.500   2.270  17.793  0.00  0.00    +0.000 A 
ATOM      7  O   UNL     1       3.135   3.466  17.843  0.00  0.00    +0.000 OA
ENDBRANCH   2   3
BRANCH   1   9
ATOM      8  O   UNL     1       8.053   5.175  19.277  0.00  0.00    +0.000 OA
ATOM      9  C   UNL     1       7.235   5.615  18.465  0.00  0.00    +0.000 C 
ATOM     10  N   UNL     1       7.289   6.895  17.984  0.00  0.00    +0.000 N 
ATOM     11  H   UNL     1       6.570   7.224  17.345  0.00  0.00    +0.000 HD
BRANCH  10  12
ATOM     12  C   UNL     1       8.287   7.851  18.429  0.00  0.00    +0.000 C 
BRANCH  12  13
ATOM     13  C   UNL     1       8.298   9.140  17.607  0.00  0.00    +0.000 C 
BRANCH  13  14
ATOM     14  C   UNL     1       8.814  10.302  18.389  0.00  0.00    +0.000 A 
ATOM     15  N   UNL     1       9.224  10.284  19.642  0.00  0.00    +0.000 NA
ATOM     16  C   UNL     1       9.613  11.571  19.921  0.00  0.00    +0.000 A 
ATOM     17  C   UNL     1      10.135  12.114  21.105  0.00  0.00    +0.000 A 
ATOM     18  C   UNL     1      10.476  13.473  21.125  0.00  0.00    +0.000 A 
ATOM     19  C   UNL     1      10.298  14.273  19.994  0.00  0.00    +0.000 A 
ATOM     20  C   UNL     1       9.770  13.751  18.808  0.00  0.00    +0.000 A 
ATOM     21  C   UNL     1       9.441  12.394  18.815  0.00  0.00    +0.000 A 
ATOM     22  N   UNL     1       8.918  11.564  17.856  0.00  0.00    +0.000 N 
ATOM     23  H   UNL     1       8.663  11.836  16.918  0.00  0.00    +0.000 HD
ENDBRANCH  13  14
ENDBRANCH  12  13
ENDBRANCH  10  12
ENDBRANCH   1   9
BRANCH   1  24
ATOM     24  N   UNL     1       6.156   4.340  16.619  0.00  0.00    +0.000 N 
ATOM     25  C   UNL     1       5.784   5.127  15.544  0.00  0.00    +0.000 C 
ATOM     26  O   UNL     1       5.443   6.301  15.659  0.00  0.00    +0.000 OA
ATOM     27  H   UNL     1       6.558   3.431  16.420  0.00  0.00    +0.000 HD
BRANCH  25  28
ATOM     28  C   UNL     1       5.878   4.455  14.261  0.00  0.00    +0.000 A 
ATOM     29  C   UNL     1       6.970   3.986  13.553  0.00  0.00    +0.000 A 
ATOM     30  C   UNL     1       6.475   3.439  12.345  0.00  0.00    +0.000 A 
ATOM     31  C   UNL     1       5.109   3.595  12.388  0.00  0.00    +0.000 A 
ATOM     32 BR   UNL     1       3.925   3.055  11.052  0.00  0.00    +0.000 Br
ATOM     33  O   UNL     1       4.735   4.202  13.546  0.00  0.00    +0.000 OA
ENDBRANCH  25  28
ENDBRANCH   1  24
TORSDOF 7
ENDMDL
MODEL 3
REMARK VINA RESULT:      -8.3      5.653      9.172
REMARK  Name = 
REMARK  7 active torsions:
REMARK  status: ('A' for Active; 'I' for Inactive)
REMARK    1  A    between atoms: C_2  and  C_15
REMARK    2  A    between atoms: N_3  and  C_4
REMARK    3  A    between atoms: C_4  and  C_5
REMARK    4  A    between atoms: C_5  and  C_6
REMARK    5  A    between atoms: C_15  and  N_22
REMARK    6  A    between atoms: C_16  and  C_17
REMARK    7  A    between atoms: C_23  and  C_25
REMARK                            x       y       z     vdW  Elec       q    Type
REMARK                         _______ _______ _______ _____ _____    ______ ____
ROOT
ATOM      1  C   UNL     1       2.473   6.537  18.516  0.00  0.00    +0.000 C 
ATOM      2  C   UNL     1       1.782   5.903  19.480  0.00  0.00    +0.000 C 
ENDROOT
BRANCH   2   3
ATOM      3  C   UNL     1       2.020   4.575  19.931  0.00  0.00    +0.000 A 
ATOM      4  C   UNL     1       2.189   4.137  21.243  0.00  0.00    +0.000 A 
ATOM      5  C   UNL     1       2.554   2.771  21.206  0.00  0.00    +0.000 A 
ATOM      6  C   UNL     1       2.544   2.421  19.881  0.00  0.00    +0.000 A 
ATOM      7  O   UNL     1       2.217   3.486  19.111  0.00  0.00    +0.000 OA
ENDBRANCH   2   3
BRANCH   1   9
ATOM      8  O   UNL     1       2.522   8.657  17.411  0.00  0.00    +0.000 OA
ATOM      9  C   UNL     1       2.234   8.018  18.426  0.00  0.00    +0.000 C 
ATOM     10  N   UNL     1       1.670   8.599  19.529  0.00  0.00    +0.000 N 
ATOM     11  H   UNL     1       1.485   8.038  20.355  0.00  0.00    +0.000 HD
BRANCH  10  12
ATOM     12  C   UNL     1       1.411  10.026  19.608  0.00  0.00    +0.000 C 
BRANCH  12  13
ATOM     13  C   UNL     1       0.016  10.357  20.140  0.00  0.00    +0.000 C 
BRANCH  13  14
ATOM     14  C   UNL     1      -0.988  10.488  19.043  0.00  0.00    +0.000 A 
ATOM     15  N   UNL     1      -0.914   9.947  17.844  0.00  0.00    +0.000 NA
ATOM     16  C   UNL     1      -2.061  10.333  17.194  0.00  0.00    +0.000 A 
ATOM     17  C   UNL     1      -2.498  10.038  15.894  0.00  0.00    +0.000 A 
ATOM     18  C   UNL     1      -3.734  10.545  15.472  0.00  0.00    +0.000 A 
ATOM     19  C   UNL     1      -4.515  11.332  16.323  0.00  0.00    +0.000 A 
ATOM     20  C   UNL     1      -4.089  11.645  17.619  0.00  0.00    +0.000 A 
ATOM     21  C   UNL     1      -2.856  11.124  18.015  0.00  0.00    +0.000 A 
ATOM     22  N   UNL     1      -2.144  11.219  19.183  0.00  0.00    +0.000 N 
ATOM     23  H   UNL     1      -2.427  11.732  20.005  0.00  0.00    +0.000 HD
ENDBRANCH  13  14
ENDBRANCH  12  13
ENDBRANCH  10  12
ENDBRANCH   1   9
BRANCH   1  24
ATOM     24  N   UNL     1       3.460   5.962  17.741  0.00  0.00    +0.000 N 
ATOM     25  C   UNL     1       4.726   5.655  18.204  0.00  0.00    +0.000 C 
ATOM     26  O   UNL     1       5.069   5.811  19.373  0.00  0.00    +0.000 OA
ATOM     27  H   UNL     1       3.220   5.670  16.800  0.00  0.00    +0.000 HD
BRANCH  25  28
ATOM     28  C   UNL     1       5.601   5.087  17.196  0.00  0.00    +0.000 A 
ATOM     29  C   UNL     1       6.944   4.755  17.233  0.00  0.00    +0.000 A 
ATOM     30  C   UNL     1       7.283   4.261  15.951  0.00  0.00    +0.000 A 
ATOM     31  C   UNL     1       6.128   4.310  15.206  0.00  0.00    +0.000 A 
ATOM     32 BR   UNL     1       5.976   3.781  13.424  0.00  0.00    +0.000 Br
ATOM     33  O   UNL     1       5.101   4.802  15.950  0.00  0.00    +0.000 OA
ENDBRANCH  25  28
ENDBRANCH   1  24
TORSDOF 7
ENDMDL
MODEL 4
REMARK VINA RESULT:      -8.2      2.987      4.463
REMARK  Name = 
REMARK  7 active torsions:
REMARK  status: ('A' for Active; 'I' for Inactive)
REMARK    1  A    between atoms: C_2  and  C_15
REMARK    2  A    between atoms: N_3  and  C_4
REMARK    3  A    between atoms: C_4  and  C_5
REMARK    4  A    between atoms: C_5  and  C_6
REMARK    5  A    between atoms: C_15  and  N_22
REMARK    6  A    between atoms: C_16  and  C_17
REMARK    7  A    between atoms: C_23  and  C_25
REMARK                            x       y       z     vdW  Elec       q    Type
REMARK                         _______ _______ _______ _____ _____    ______ ____
ROOT
ATOM      1  C   UNL     1       4.673   4.730  19.093  0.00  0.00    +0.000 C 
ATOM      2  C   UNL     1       4.344   3.437  18.923  0.00  0.00    +0.000 C 
ENDROOT
BRANCH   2   3
ATOM      3  C   UNL     1       3.057   2.874  19.151  0.00  0.00    +0.000 A 
ATOM      4  C   UNL     1       2.192   2.317  18.211  0.00  0.00    +0.000 A 
ATOM      5  C   UNL     1       0.968   2.028  18.860  0.00  0.00    +0.000 A 
ATOM      6  C   UNL     1       1.155   2.373  20.173  0.00  0.00    +0.000 A 
ATOM      7  O   UNL     1       2.401   2.869  20.361  0.00  0.00    +0.000 OA
ENDBRANCH   2   3
BRANCH   1   9
ATOM      8  O   UNL     1       6.485   4.543  17.543  0.00  0.00    +0.000 OA
ATOM      9  C   UNL     1       5.997   5.136  18.508  0.00  0.00    +0.000 C 
ATOM     10  N   UNL     1       6.611   6.203  19.107  0.00  0.00    +0.000 N 
ATOM     11  H   UNL     1       6.188   6.635  19.924  0.00  0.00    +0.000 HD
BRANCH  10  12
ATOM     12  C   UNL     1       7.910   6.691  18.679  0.00  0.00    +0.000 C 
BRANCH  12  13
ATOM     13  C   UNL     1       7.823   7.790  17.620  0.00  0.00    +0.000 C 
BRANCH  13  14
ATOM     14  C   UNL     1       8.366   9.090  18.113  0.00  0.00    +0.000 A 
ATOM     15  N   UNL     1       8.285  10.256  17.504  0.00  0.00    +0.000 NA
ATOM     16  C   UNL     1       8.912  11.151  18.335  0.00  0.00    +0.000 A 
ATOM     17  C   UNL     1       9.112  12.531  18.181  0.00  0.00    +0.000 A 
ATOM     18  C   UNL     1       9.773  13.231  19.199  0.00  0.00    +0.000 A 
ATOM     19  C   UNL     1      10.231  12.570  20.342  0.00  0.00    +0.000 A 
ATOM     20  C   UNL     1      10.049  11.192  20.508  0.00  0.00    +0.000 A 
ATOM     21  C   UNL     1       9.383  10.521  19.480  0.00  0.00    +0.000 A 
ATOM     22  N   UNL     1       9.035   9.206  19.308  0.00  0.00    +0.000 N 
ATOM     23  H   UNL     1       9.230   8.455  19.955  0.00  0.00    +0.000 HD
ENDBRANCH  13  14
ENDBRANCH  12  13
ENDBRANCH  10  12
ENDBRANCH   1   9
BRANCH   1  24
ATOM     24  N   UNL     1       3.838   5.698  19.613  0.00  0.00    +0.000 N 
ATOM     25  C   UNL     1       2.984   6.473  18.850  0.00  0.00    +0.000 C 
ATOM     26  O   UNL     1       2.847   6.326  17.638  0.00  0.00    +0.000 OA
ATOM     27  H   UNL     1       3.783   5.791  20.621  0.00  0.00    +0.000 HD
BRANCH  25  28
ATOM     28  C   UNL     1       2.228   7.446  19.616  0.00  0.00    +0.000 A 
ATOM     29  C   UNL     1       1.810   7.445  20.936  0.00  0.00    +0.000 A 
ATOM     30  C   UNL     1       1.083   8.642  21.139  0.00  0.00    +0.000 A 
ATOM     31  C   UNL     1       1.105   9.311  19.936  0.00  0.00    +0.000 A 
ATOM     32 BR   UNL     1       0.296  10.959  19.609  0.00  0.00    +0.000 Br
ATOM     33  O   UNL     1       1.800   8.600  19.009  0.00  0.00    +0.000 OA
ENDBRANCH  25  28
ENDBRANCH   1  24
TORSDOF 7
ENDMDL
MODEL 5
REMARK VINA RESULT:      -8.1      2.837      4.410
REMARK  Name = 
REMARK  7 active torsions:
REMARK  status: ('A' for Active; 'I' for Inactive)
REMARK    1  A    between atoms: C_2  and  C_15
REMARK    2  A    between atoms: N_3  and  C_4
REMARK    3  A    between atoms: C_4  and  C_5
REMARK    4  A    between atoms: C_5  and  C_6
REMARK    5  A    between atoms: C_15  and  N_22
REMARK    6  A    between atoms: C_16  and  C_17
REMARK    7  A    between atoms: C_23  and  C_25
REMARK                            x       y       z     vdW  Elec       q    Type
REMARK                         _______ _______ _______ _____ _____    ______ ____
ROOT
ATOM      1  C   UNL     1       4.523   5.150  19.368  0.00  0.00    +0.000 C 
ATOM      2  C   UNL     1       4.219   3.846  19.233  0.00  0.00    +0.000 C 
ENDROOT
BRANCH   2   3
ATOM      3  C   UNL     1       2.910   3.291  19.300  0.00  0.00    +0.000 A 
ATOM      4  C   UNL     1       2.387   2.248  18.539  0.00  0.00    +0.000 A 
ATOM      5  C   UNL     1       1.008   2.137  18.837  0.00  0.00    +0.000 A 
ATOM      6  C   UNL     1       0.760   3.080  19.800  0.00  0.00    +0.000 A 
ATOM      7  O   UNL     1       1.890   3.768  20.092  0.00  0.00    +0.000 OA
ENDBRANCH   2   3
BRANCH   1   9
ATOM      8  O   UNL     1       6.907   5.010  19.497  0.00  0.00    +0.000 OA
ATOM      9  C   UNL     1       5.921   5.526  18.965  0.00  0.00    +0.000 C 
ATOM     10  N   UNL     1       6.023   6.460  17.970  0.00  0.00    +0.000 N 
ATOM     11  H   UNL     1       5.182   6.885  17.588  0.00  0.00    +0.000 HD
BRANCH  10  12
ATOM     12  C   UNL     1       7.304   6.952  17.496  0.00  0.00    +0.000 C 
BRANCH  12  13
ATOM     13  C   UNL     1       8.245   7.371  18.626  0.00  0.00    +0.000 C 
BRANCH  13  14
ATOM     14  C   UNL     1       8.549   8.832  18.593  0.00  0.00    +0.000 A 
ATOM     15  N   UNL     1       8.144   9.697  17.684  0.00  0.00    +0.000 NA
ATOM     16  C   UNL     1       8.657  10.909  18.074  0.00  0.00    +0.000 A 
ATOM     17  C   UNL     1       8.534  12.171  17.474  0.00  0.00    +0.000 A 
ATOM     18  C   UNL     1       9.145  13.270  18.091  0.00  0.00    +0.000 A 
ATOM     19  C   UNL     1       9.869  13.115  19.277  0.00  0.00    +0.000 A 
ATOM     20  C   UNL     1      10.011  11.862  19.884  0.00  0.00    +0.000 A 
ATOM     21  C   UNL     1       9.389  10.785  19.249  0.00  0.00    +0.000 A 
ATOM     22  N   UNL     1       9.315   9.450  19.552  0.00  0.00    +0.000 N 
ATOM     23  H   UNL     1       9.745   9.002  20.348  0.00  0.00    +0.000 HD
ENDBRANCH  13  14
ENDBRANCH  12  13
ENDBRANCH  10  12
ENDBRANCH   1   9
BRANCH   1  24
ATOM     24  N   UNL     1       3.622   6.143  19.695  0.00  0.00    +0.000 N 
ATOM     25  C   UNL     1       2.941   6.906  18.763  0.00  0.00    +0.000 C 
ATOM     26  O   UNL     1       3.032   6.724  17.552  0.00  0.00    +0.000 OA
ATOM     27  H   UNL     1       3.380   6.267  20.671  0.00  0.00    +0.000 HD
BRANCH  25  28
ATOM     28  C   UNL     1       2.072   7.911  19.346  0.00  0.00    +0.000 A 
ATOM     29  C   UNL     1       1.478   9.034  18.798  0.00  0.00    +0.000 A 
ATOM     30  C   UNL     1       0.754   9.666  19.836  0.00  0.00    +0.000 A 
ATOM     31  C   UNL     1       0.938   8.890  20.957  0.00  0.00    +0.000 A 
ATOM     32 BR   UNL     1       0.214   9.243  22.639  0.00  0.00    +0.000 Br
ATOM     33  O   UNL     1       1.729   7.821  20.672  0.00  0.00    +0.000 OA
ENDBRANCH  25  28
ENDBRANCH   1  24
TORSDOF 7
ENDMDL
MODEL 6
REMARK VINA RESULT:      -8.1      6.623     10.527
REMARK  Name = 
REMARK  7 active torsions:
REMARK  status: ('A' for Active; 'I' for Inactive)
REMARK    1  A    between atoms: C_2  and  C_15
REMARK    2  A    between atoms: N_3  and  C_4
REMARK    3  A    between atoms: C_4  and  C_5
REMARK    4  A    between atoms: C_5  and  C_6
REMARK    5  A    between atoms: C_15  and  N_22
REMARK    6  A    between atoms: C_16  and  C_17
REMARK    7  A    between atoms: C_23  and  C_25
REMARK                            x       y       z     vdW  Elec       q    Type
REMARK                         _______ _______ _______ _____ _____    ______ ____
ROOT
ATOM      1  C   UNL     1       0.723  10.302  19.007  0.00  0.00    +0.000 C 
ATOM      2  C   UNL     1       1.049  10.436  20.305  0.00  0.00    +0.000 C 
ENDROOT
BRANCH   2   3
ATOM      3  C   UNL     1       0.126  10.550  21.382  0.00  0.00    +0.000 A 
ATOM      4  C   UNL     1      -0.598  11.676  21.768  0.00  0.00    +0.000 A 
ATOM      5  C   UNL     1      -1.269  11.373  22.977  0.00  0.00    +0.000 A 
ATOM      6  C   UNL     1      -0.966  10.064  23.250  0.00  0.00    +0.000 A 
ATOM      7  O   UNL     1      -0.143   9.559  22.299  0.00  0.00    +0.000 OA
ENDBRANCH   2   3
BRANCH   1   9
ATOM      8  O   UNL     1       2.465  10.739  17.428  0.00  0.00    +0.000 OA
ATOM      9  C   UNL     1       1.854   9.905  18.101  0.00  0.00    +0.000 C 
ATOM     10  N   UNL     1       2.164   8.572  18.083  0.00  0.00    +0.000 N 
ATOM     11  H   UNL     1       1.608   7.917  18.626  0.00  0.00    +0.000 HD
BRANCH  10  12
ATOM     12  C   UNL     1       3.208   8.029  17.232  0.00  0.00    +0.000 C 
BRANCH  12  13
ATOM     13  C   UNL     1       4.107   7.020  17.948  0.00  0.00    +0.000 C 
BRANCH  13  14
ATOM     14  C   UNL     1       3.322   5.928  18.596  0.00  0.00    +0.000 A 
ATOM     15  N   UNL     1       2.512   5.080  17.993  0.00  0.00    +0.000 NA
ATOM     16  C   UNL     1       2.029   4.262  18.985  0.00  0.00    +0.000 A 
ATOM     17  C   UNL     1       1.135   3.184  18.904  0.00  0.00    +0.000 A 
ATOM     18  C   UNL     1       0.815   2.489  20.078  0.00  0.00    +0.000 A 
ATOM     19  C   UNL     1       1.368   2.863  21.306  0.00  0.00    +0.000 A 
ATOM     20  C   UNL     1       2.254   3.941  21.407  0.00  0.00    +0.000 A 
ATOM     21  C   UNL     1       2.559   4.614  20.222  0.00  0.00    +0.000 A 
ATOM     22  N   UNL     1       3.368   5.686  19.948  0.00  0.00    +0.000 N 
ATOM     23  H   UNL     1       3.911   6.202  20.626  0.00  0.00    +0.000 HD
ENDBRANCH  13  14
ENDBRANCH  12  13
ENDBRANCH  10  12
ENDBRANCH   1   9
BRANCH   1  24
ATOM     24  N   UNL     1      -0.561  10.353  18.504  0.00  0.00    +0.000 N 
ATOM     25  C   UNL     1      -1.201  11.522  18.135  0.00  0.00    +0.000 C 
ATOM     26  O   UNL     1      -0.656  12.623  18.165  0.00  0.00    +0.000 OA
ATOM     27  H   UNL     1      -1.036   9.477  18.314  0.00  0.00    +0.000 HD
BRANCH  25  28
ATOM     28  C   UNL     1      -2.560  11.328  17.664  0.00  0.00    +0.000 A 
ATOM     29  C   UNL     1      -3.059  11.044  16.405  0.00  0.00    +0.000 A 
ATOM     30  C   UNL     1      -4.468  10.989  16.523  0.00  0.00    +0.000 A 
ATOM     31  C   UNL     1      -4.750  11.233  17.847  0.00  0.00    +0.000 A 
ATOM     32 BR   UNL     1      -6.461  11.286  18.589  0.00  0.00    +0.000 Br
ATOM     33  O   UNL     1      -3.603  11.433  18.550  0.00  0.00    +0.000 OA
ENDBRANCH  25  28
ENDBRANCH   1  24
TORSDOF 7
ENDMDL
MODEL 7
REMARK VINA RESULT:      -8.1      3.024      4.279
REMARK  Name = 
REMARK  7 active torsions:
REMARK  status: ('A' for Active; 'I' for Inactive)
REMARK    1  A    between atoms: C_2  and  C_15
REMARK    2  A    between atoms: N_3  and  C_4
REMARK    3  A    between atoms: C_4  and  C_5
REMARK    4  A    between atoms: C_5  and  C_6
REMARK    5  A    between atoms: C_15  and  N_22
REMARK    6  A    between atoms: C_16  and  C_17
REMARK    7  A    between atoms: C_23  and  C_25
REMARK                            x       y       z     vdW  Elec       q    Type
REMARK                         _______ _______ _______ _____ _____    ______ ____
ROOT
ATOM      1  C   UNL     1       4.745   5.195  19.480  0.00  0.00    +0.000 C 
ATOM      2  C   UNL     1       4.463   3.880  19.444  0.00  0.00    +0.000 C 
ENDROOT
BRANCH   2   3
ATOM      3  C   UNL     1       3.163   3.316  19.313  0.00  0.00    +0.000 A 
ATOM      4  C   UNL     1       2.318   2.880  20.332  0.00  0.00    +0.000 A 
ATOM      5  C   UNL     1       1.198   2.253  19.734  0.00  0.00    +0.000 A 
ATOM      6  C   UNL     1       1.384   2.377  18.382  0.00  0.00    +0.000 A 
ATOM      7  O   UNL     1       2.547   3.019  18.118  0.00  0.00    +0.000 OA
ENDBRANCH   2   3
BRANCH   1   9
ATOM      8  O   UNL     1       7.077   4.935  19.939  0.00  0.00    +0.000 OA
ATOM      9  C   UNL     1       6.198   5.542  19.323  0.00  0.00    +0.000 C 
ATOM     10  N   UNL     1       6.477   6.559  18.450  0.00  0.00    +0.000 N 
ATOM     11  H   UNL     1       5.717   7.055  17.994  0.00  0.00    +0.000 HD
BRANCH  10  12
ATOM     12  C   UNL     1       7.830   7.034  18.218  0.00  0.00    +0.000 C 
BRANCH  12  13
ATOM     13  C   UNL     1       7.889   8.273  17.324  0.00  0.00    +0.000 C 
BRANCH  13  14
ATOM     14  C   UNL     1       8.434   9.461  18.046  0.00  0.00    +0.000 A 
ATOM     15  N   UNL     1       8.459  10.703  17.605  0.00  0.00    +0.000 NA
ATOM     16  C   UNL     1       9.038  11.439  18.609  0.00  0.00    +0.000 A 
ATOM     17  C   UNL     1       9.307  12.814  18.674  0.00  0.00    +0.000 A 
ATOM     18  C   UNL     1       9.895  13.329  19.837  0.00  0.00    +0.000 A 
ATOM     19  C   UNL     1      10.212  12.492  20.910  0.00  0.00    +0.000 A 
ATOM     20  C   UNL     1       9.959  11.116  20.860  0.00  0.00    +0.000 A 
ATOM     21  C   UNL     1       9.370  10.631  19.690  0.00  0.00    +0.000 A 
ATOM     22  N   UNL     1       8.987   9.374  19.301  0.00  0.00    +0.000 N 
ATOM     23  H   UNL     1       9.089   8.531  19.848  0.00  0.00    +0.000 HD
ENDBRANCH  13  14
ENDBRANCH  12  13
ENDBRANCH  10  12
ENDBRANCH   1   9
BRANCH   1  24
ATOM     24  N   UNL     1       3.805   6.205  19.497  0.00  0.00    +0.000 N 
ATOM     25  C   UNL     1       3.294   6.805  18.361  0.00  0.00    +0.000 C 
ATOM     26  O   UNL     1       3.587   6.446  17.223  0.00  0.00    +0.000 OA
ATOM     27  H   UNL     1       3.402   6.468  20.390  0.00  0.00    +0.000 HD
BRANCH  25  28
ATOM     28  C   UNL     1       2.342   7.866  18.631  0.00  0.00    +0.000 A 
ATOM     29  C   UNL     1       1.788   8.829  17.806  0.00  0.00    +0.000 A 
ATOM     30  C   UNL     1       0.937   9.623  18.611  0.00  0.00    +0.000 A 
ATOM     31  C   UNL     1       1.012   9.096  19.880  0.00  0.00    +0.000 A 
ATOM     32 BR   UNL     1       0.096   9.746  21.369  0.00  0.00    +0.000 Br
ATOM     33  O   UNL     1       1.854   8.028  19.904  0.00  0.00    +0.000 OA
ENDBRANCH  25  28
ENDBRANCH   1  24
TORSDOF 7
ENDMDL
MODEL 8
REMARK VINA RESULT:      -8.0      4.488      7.496
REMARK  Name = 
REMARK  7 active torsions:
REMARK  status: ('A' for Active; 'I' for Inactive)
REMARK    1  A    between atoms: C_2  and  C_15
REMARK    2  A    between atoms: N_3  and  C_4
REMARK    3  A    between atoms: C_4  and  C_5
REMARK    4  A    between atoms: C_5  and  C_6
REMARK    5  A    between atoms: C_15  and  N_22
REMARK    6  A    between atoms: C_16  and  C_17
REMARK    7  A    between atoms: C_23  and  C_25
REMARK                            x       y       z     vdW  Elec       q    Type
REMARK                         _______ _______ _______ _____ _____    ______ ____
ROOT
ATOM      1  C   UNL     1       4.104   5.355  19.566  0.00  0.00    +0.000 C 
ATOM      2  C   UNL     1       3.764   4.063  19.405  0.00  0.00    +0.000 C 
ENDROOT
BRANCH   2   3
ATOM      3  C   UNL     1       2.446   3.536  19.508  0.00  0.00    +0.000 A 
ATOM      4  C   UNL     1       1.725   3.267  20.670  0.00  0.00    +0.000 A 
ATOM      5  C   UNL     1       0.527   2.610  20.300  0.00  0.00    +0.000 A 
ATOM      6  C   UNL     1       0.545   2.551  18.931  0.00  0.00    +0.000 A 
ATOM      7  O   UNL     1       1.680   3.110  18.446  0.00  0.00    +0.000 OA
ENDBRANCH   2   3
BRANCH   1   9
ATOM      8  O   UNL     1       6.487   5.368  19.763  0.00  0.00    +0.000 OA
ATOM      9  C   UNL     1       5.493   5.711  19.118  0.00  0.00    +0.000 C 
ATOM     10  N   UNL     1       5.579   6.425  17.953  0.00  0.00    +0.000 N 
ATOM     11  H   UNL     1       4.731   6.718  17.478  0.00  0.00    +0.000 HD
BRANCH  10  12
ATOM     12  C   UNL     1       6.849   6.874  17.411  0.00  0.00    +0.000 C 
BRANCH  12  13
ATOM     13  C   UNL     1       7.723   5.731  16.893  0.00  0.00    +0.000 C 
BRANCH  13  14
ATOM     14  C   UNL     1       7.191   5.147  15.626  0.00  0.00    +0.000 A 
ATOM     15  N   UNL     1       6.029   4.547  15.465  0.00  0.00    +0.000 NA
ATOM     16  C   UNL     1       5.977   4.191  14.140  0.00  0.00    +0.000 A 
ATOM     17  C   UNL     1       4.966   3.530  13.427  0.00  0.00    +0.000 A 
ATOM     18  C   UNL     1       5.151   3.301  12.057  0.00  0.00    +0.000 A 
ATOM     19  C   UNL     1       6.320   3.716  11.413  0.00  0.00    +0.000 A 
ATOM     20  C   UNL     1       7.344   4.367  12.111  0.00  0.00    +0.000 A 
ATOM     21  C   UNL     1       7.131   4.586  13.473  0.00  0.00    +0.000 A 
ATOM     22  N   UNL     1       7.894   5.181  14.445  0.00  0.00    +0.000 N 
ATOM     23  H   UNL     1       8.811   5.581  14.310  0.00  0.00    +0.000 HD
ENDBRANCH  13  14
ENDBRANCH  12  13
ENDBRANCH  10  12
ENDBRANCH   1   9
BRANCH   1  24
ATOM     24  N   UNL     1       3.240   6.358  19.957  0.00  0.00    +0.000 N 
ATOM     25  C   UNL     1       2.515   7.140  19.077  0.00  0.00    +0.000 C 
ATOM     26  O   UNL     1       2.527   6.969  17.860  0.00  0.00    +0.000 OA
ATOM     27  H   UNL     1       3.061   6.476  20.948  0.00  0.00    +0.000 HD
BRANCH  25  28
ATOM     28  C   UNL     1       1.699   8.152  19.722  0.00  0.00    +0.000 A 
ATOM     29  C   UNL     1       1.123   9.310  19.231  0.00  0.00    +0.000 A 
ATOM     30  C   UNL     1       0.455   9.930  20.314  0.00  0.00    +0.000 A 
ATOM     31  C   UNL     1       0.652   9.112  21.403  0.00  0.00    +0.000 A 
ATOM     32 BR   UNL     1      -0.003   9.431  23.119  0.00  0.00    +0.000 Br
ATOM     33  O   UNL     1       1.398   8.028  21.055  0.00  0.00    +0.000 OA
ENDBRANCH  25  28
ENDBRANCH   1  24
TORSDOF 7
ENDMDL
MODEL 9
REMARK VINA RESULT:      -8.0      3.973      7.359
REMARK  Name = 
REMARK  7 active torsions:
REMARK  status: ('A' for Active; 'I' for Inactive)
REMARK    1  A    between atoms: C_2  and  C_15
REMARK    2  A    between atoms: N_3  and  C_4
REMARK    3  A    between atoms: C_4  and  C_5
REMARK    4  A    between atoms: C_5  and  C_6
REMARK    5  A    between atoms: C_15  and  N_22
REMARK    6  A    between atoms: C_16  and  C_17
REMARK    7  A    between atoms: C_23  and  C_25
REMARK                            x       y       z     vdW  Elec       q    Type
REMARK                         _______ _______ _______ _____ _____    ______ ____
ROOT
ATOM      1  C   UNL     1       5.353   4.130  16.551  0.00  0.00    +0.000 C 
ATOM      2  C   UNL     1       5.302   3.766  15.257  0.00  0.00    +0.000 C 
ENDROOT
BRANCH   2   3
ATOM      3  C   UNL     1       6.178   4.224  14.234  0.00  0.00    +0.000 A 
ATOM      4  C   UNL     1       6.266   3.769  12.920  0.00  0.00    +0.000 A 
ATOM      5  C   UNL     1       7.376   4.401  12.310  0.00  0.00    +0.000 A 
ATOM      6  C   UNL     1       7.886   5.249  13.258  0.00  0.00    +0.000 A 
ATOM      7  O   UNL     1       7.173   5.160  14.407  0.00  0.00    +0.000 OA
ENDBRANCH   2   3
BRANCH   1   9
ATOM      8  O   UNL     1       3.731   2.448  17.060  0.00  0.00    +0.000 OA
ATOM      9  C   UNL     1       4.522   3.294  17.484  0.00  0.00    +0.000 C 
ATOM     10  N   UNL     1       4.712   3.524  18.819  0.00  0.00    +0.000 N 
ATOM     11  H   UNL     1       5.347   4.258  19.119  0.00  0.00    +0.000 HD
BRANCH  10  12
ATOM     12  C   UNL     1       3.958   2.822  19.843  0.00  0.00    +0.000 C 
BRANCH  12  13
ATOM     13  C   UNL     1       2.477   3.204  19.870  0.00  0.00    +0.000 C 
BRANCH  13  14
ATOM     14  C   UNL     1       2.274   4.677  19.747  0.00  0.00    +0.000 A 
ATOM     15  N   UNL     1       2.437   5.404  18.659  0.00  0.00    +0.000 NA
ATOM     16  C   UNL     1       2.127   6.691  19.025  0.00  0.00    +0.000 A 
ATOM     17  C   UNL     1       2.127   7.866  18.260  0.00  0.00    +0.000 A 
ATOM     18  C   UNL     1       1.746   9.066  18.874  0.00  0.00    +0.000 A 
ATOM     19  C   UNL     1       1.378   9.096  20.222  0.00  0.00    +0.000 A 
ATOM     20  C   UNL     1       1.383   7.935  21.004  0.00  0.00    +0.000 A 
ATOM     21  C   UNL     1       1.763   6.753  20.365  0.00  0.00    +0.000 A 
ATOM     22  N   UNL     1       1.878   5.460  20.806  0.00  0.00    +0.000 N 
ATOM     23  H   UNL     1       1.694   5.139  21.745  0.00  0.00    +0.000 HD
ENDBRANCH  13  14
ENDBRANCH  12  13
ENDBRANCH  10  12
ENDBRANCH   1   9
BRANCH   1  24
ATOM     24  N   UNL     1       6.204   5.083  17.072  0.00  0.00    +0.000 N 
ATOM     25  C   UNL     1       5.964   6.444  17.020  0.00  0.00    +0.000 C 
ATOM     26  O   UNL     1       4.934   6.927  16.557  0.00  0.00    +0.000 OA
ATOM     27  H   UNL     1       7.011   4.767  17.598  0.00  0.00    +0.000 HD
BRANCH  25  28
ATOM     28  C   UNL     1       7.018   7.251  17.606  0.00  0.00    +0.000 A 
ATOM     29  C   UNL     1       8.008   6.937  18.522  0.00  0.00    +0.000 A 
ATOM     30  C   UNL     1       8.745   8.123  18.755  0.00  0.00    +0.000 A 
ATOM     31  C   UNL     1       8.171   9.091  17.964  0.00  0.00    +0.000 A 
ATOM     32 BR   UNL     1       8.731  10.867  17.864  0.00  0.00    +0.000 Br
ATOM     33  O   UNL     1       7.129   8.574  17.258  0.00  0.00    +0.000 OA
ENDBRANCH  25  28
ENDBRANCH   1  24
TORSDOF 7
ENDMDL
