MODEL 1
REMARK VINA RESULT:      -6.7      0.000      0.000
REMARK  Name = 
REMARK  5 active torsions:
REMARK  status: ('A' for Active; 'I' for Inactive)
REMARK    1  A    between atoms: C_1  and  C_2
REMARK    2  A    between atoms: C_5  and  N_6
REMARK    3  A    between atoms: C_7  and  C_9
REMARK    4  A    between atoms: C_9  and  C_10
REMARK    5  A    between atoms: C_9  and  N_11
REMARK                            x       y       z     vdW  Elec       q    Type
REMARK                         _______ _______ _______ _____ _____    ______ ____
ROOT
ATOM      1  N   UNL     1       5.167   3.257  17.164  0.00  0.00    +0.000 N 
ATOM      2  C   UNL     1       3.892   3.608  17.538  0.00  0.00    +0.000 C 
ATOM      3  O   UNL     1       3.265   4.451  16.916  0.00  0.00    +0.000 OA
ATOM      4  H   UNL     1       5.610   2.477  17.674  0.00  0.00    +0.000 HD
ENDROOT
BRANCH   1   9
ATOM      5  C   UNL     1       7.982   5.534  12.642  0.00  0.00    +0.000 C 
ATOM      6  C   UNL     1       7.258   4.921  13.813  0.00  0.00    +0.000 A 
ATOM      7  C   UNL     1       7.561   5.352  15.106  0.00  0.00    +0.000 A 
ATOM      8  C   UNL     1       6.901   4.818  16.213  0.00  0.00    +0.000 A 
ATOM      9  C   UNL     1       5.905   3.824  16.061  0.00  0.00    +0.000 A 
ATOM     10  C   UNL     1       5.616   3.383  14.754  0.00  0.00    +0.000 A 
ATOM     11  C   UNL     1       6.280   3.925  13.637  0.00  0.00    +0.000 A 
ATOM     12 CL   UNL     1       5.846   3.345  12.031  0.00  0.00    +0.000 Cl
ENDBRANCH   1   9
BRANCH   2  13
ATOM     13  C   UNL     1       3.143   2.898  18.667  0.00  0.00    +0.000 C 
ATOM     14  C   UNL     1       3.480   1.396  18.616  0.00  0.00    +0.000 C 
BRANCH  13  15
ATOM     15  N   UNL     1       3.412   3.516  20.006  0.00  0.00    +0.000 NA
ATOM     16  C   UNL     1       2.523   3.010  21.076  0.00  0.00    +0.000 C 
ATOM     17  C   UNL     1       1.207   3.740  20.887  0.00  0.00    +0.000 C 
ATOM     18  C   UNL     1       1.703   5.149  20.672  0.00  0.00    +0.000 C 
ATOM     19  C   UNL     1       3.076   4.966  20.000  0.00  0.00    +0.000 C 
ENDBRANCH  13  15
ENDBRANCH   2  13
TORSDOF 3
ENDMDL
MODEL 2
REMARK VINA RESULT:      -6.5      4.212      6.455
REMARK  Name = 
REMARK  5 active torsions:
REMARK  status: ('A' for Active; 'I' for Inactive)
REMARK    1  A    between atoms: C_1  and  C_2
REMARK    2  A    between atoms: C_5  and  N_6
REMARK    3  A    between atoms: C_7  and  C_9
REMARK    4  A    between atoms: C_9  and  C_10
REMARK    5  A    between atoms: C_9  and  N_11
REMARK                            x       y       z     vdW  Elec       q    Type
REMARK                         _______ _______ _______ _____ _____    ______ ____
ROOT
ATOM      1  N   UNL     1       3.228   6.275  18.376  0.00  0.00    +0.000 N 
ATOM      2  C   UNL     1       2.720   5.094  17.890  0.00  0.00    +0.000 C 
ATOM      3  O   UNL     1       1.527   4.968  17.668  0.00  0.00    +0.000 OA
ATOM      4  H   UNL     1       4.254   6.348  18.459  0.00  0.00    +0.000 HD
ENDROOT
BRANCH   1   9
ATOM      5  C   UNL     1       0.219  11.015  19.803  0.00  0.00    +0.000 C 
ATOM      6  C   UNL     1       0.984   9.769  19.438  0.00  0.00    +0.000 A 
ATOM      7  C   UNL     1       1.450   9.612  18.131  0.00  0.00    +0.000 A 
ATOM      8  C   UNL     1       2.174   8.478  17.759  0.00  0.00    +0.000 A 
ATOM      9  C   UNL     1       2.458   7.453  18.693  0.00  0.00    +0.000 A 
ATOM     10  C   UNL     1       1.970   7.612  20.006  0.00  0.00    +0.000 A 
ATOM     11  C   UNL     1       1.243   8.758  20.381  0.00  0.00    +0.000 A 
ATOM     12 CL   UNL     1       0.689   8.900  22.048  0.00  0.00    +0.000 Cl
ENDBRANCH   1   9
BRANCH   2  13
ATOM     13  C   UNL     1       3.614   3.917  17.495  0.00  0.00    +0.000 C 
ATOM     14  C   UNL     1       4.842   4.460  16.741  0.00  0.00    +0.000 C 
BRANCH  13  15
ATOM     15  N   UNL     1       3.977   3.057  18.669  0.00  0.00    +0.000 NA
ATOM     16  C   UNL     1       3.484   1.666  18.552  0.00  0.00    +0.000 C 
ATOM     17  C   UNL     1       2.013   1.725  18.917  0.00  0.00    +0.000 C 
ATOM     18  C   UNL     1       2.072   2.597  20.148  0.00  0.00    +0.000 C 
ATOM     19  C   UNL     1       3.280   3.518  19.901  0.00  0.00    +0.000 C 
ENDBRANCH  13  15
ENDBRANCH   2  13
TORSDOF 3
ENDMDL
MODEL 3
REMARK VINA RESULT:      -6.5      4.715      7.203
REMARK  Name = 
REMARK  5 active torsions:
REMARK  status: ('A' for Active; 'I' for Inactive)
REMARK    1  A    between atoms: C_1  and  C_2
REMARK    2  A    between atoms: C_5  and  N_6
REMARK    3  A    between atoms: C_7  and  C_9
REMARK    4  A    between atoms: C_9  and  C_10
REMARK    5  A    between atoms: C_9  and  N_11
REMARK                            x       y       z     vdW  Elec       q    Type
REMARK                         _______ _______ _______ _____ _____    ______ ____
ROOT
ATOM      1  N   UNL     1       2.887   6.638  19.890  0.00  0.00    +0.000 N 
ATOM      2  C   UNL     1       2.904   5.635  18.952  0.00  0.00    +0.000 C 
ATOM      3  O   UNL     1       2.111   5.631  18.024  0.00  0.00    +0.000 OA
ATOM      4  H   UNL     1       3.638   6.634  20.599  0.00  0.00    +0.000 HD
ENDROOT
BRANCH   1   9
ATOM      5  C   UNL     1      -0.763  11.129  20.163  0.00  0.00    +0.000 C 
ATOM      6  C   UNL     1       0.169   9.946  20.096  0.00  0.00    +0.000 A 
ATOM      7  C   UNL     1       0.909   9.726  18.933  0.00  0.00    +0.000 A 
ATOM      8  C   UNL     1       1.793   8.650  18.839  0.00  0.00    +0.000 A 
ATOM      9  C   UNL     1       1.966   7.749  19.917  0.00  0.00    +0.000 A 
ATOM     10  C   UNL     1       1.203   7.969  21.081  0.00  0.00    +0.000 A 
ATOM     11  C   UNL     1       0.314   9.057  21.177  0.00  0.00    +0.000 A 
ATOM     12 CL   UNL     1      -0.586   9.286  22.675  0.00  0.00    +0.000 Cl
ENDBRANCH   1   9
BRANCH   2  13
ATOM     13  C   UNL     1       3.969   4.538  18.942  0.00  0.00    +0.000 C 
ATOM     14  C   UNL     1       5.347   5.184  19.183  0.00  0.00    +0.000 C 
BRANCH  13  15
ATOM     15  N   UNL     1       3.660   3.434  19.908  0.00  0.00    +0.000 NA
ATOM     16  C   UNL     1       4.156   2.111  19.467  0.00  0.00    +0.000 C 
ATOM     17  C   UNL     1       3.157   1.628  18.433  0.00  0.00    +0.000 C 
ATOM     18  C   UNL     1       1.860   1.954  19.133  0.00  0.00    +0.000 C 
ATOM     19  C   UNL     1       2.194   3.191  19.987  0.00  0.00    +0.000 C 
ENDBRANCH  13  15
ENDBRANCH   2  13
TORSDOF 3
ENDMDL
MODEL 4
REMARK VINA RESULT:      -6.4      4.342      7.259
REMARK  Name = 
REMARK  5 active torsions:
REMARK  status: ('A' for Active; 'I' for Inactive)
REMARK    1  A    between atoms: C_1  and  C_2
REMARK    2  A    between atoms: C_5  and  N_6
REMARK    3  A    between atoms: C_7  and  C_9
REMARK    4  A    between atoms: C_9  and  C_10
REMARK    5  A    between atoms: C_9  and  N_11
REMARK                            x       y       z     vdW  Elec       q    Type
REMARK                         _______ _______ _______ _____ _____    ______ ____
ROOT
ATOM      1  N   UNL     1       3.315   6.781  18.588  0.00  0.00    +0.000 N 
ATOM      2  C   UNL     1       3.064   5.552  18.028  0.00  0.00    +0.000 C 
ATOM      3  O   UNL     1       1.933   5.231  17.699  0.00  0.00    +0.000 OA
ATOM      4  H   UNL     1       4.302   7.028  18.761  0.00  0.00    +0.000 HD
ENDROOT
BRANCH   1   9
ATOM      5  C   UNL     1      -0.573  10.880  19.871  0.00  0.00    +0.000 C 
ATOM      6  C   UNL     1       0.424   9.797  19.544  0.00  0.00    +0.000 A 
ATOM      7  C   UNL     1       0.893   9.674  18.235  0.00  0.00    +0.000 A 
ATOM      8  C   UNL     1       1.827   8.693  17.898  0.00  0.00    +0.000 A 
ATOM      9  C   UNL     1       2.326   7.794  18.870  0.00  0.00    +0.000 A 
ATOM     10  C   UNL     1       1.835   7.915  20.185  0.00  0.00    +0.000 A 
ATOM     11  C   UNL     1       0.896   8.907  20.526  0.00  0.00    +0.000 A 
ATOM     12 CL   UNL     1       0.348   9.016  22.197  0.00  0.00    +0.000 Cl
ENDBRANCH   1   9
BRANCH   2  13
ATOM     13  C   UNL     1       4.180   4.565  17.678  0.00  0.00    +0.000 C 
ATOM     14  C   UNL     1       3.608   3.136  17.727  0.00  0.00    +0.000 C 
BRANCH  13  15
ATOM     15  N   UNL     1       4.840   4.891  16.372  0.00  0.00    +0.000 NA
ATOM     16  C   UNL     1       5.985   4.007  16.057  0.00  0.00    +0.000 C 
ATOM     17  C   UNL     1       7.140   4.529  16.891  0.00  0.00    +0.000 C 
ATOM     18  C   UNL     1       7.008   6.012  16.645  0.00  0.00    +0.000 C 
ATOM     19  C   UNL     1       5.499   6.224  16.427  0.00  0.00    +0.000 C 
ENDBRANCH  13  15
ENDBRANCH   2  13
TORSDOF 3
ENDMDL
MODEL 5
REMARK VINA RESULT:      -6.4      4.522      6.631
REMARK  Name = 
REMARK  5 active torsions:
REMARK  status: ('A' for Active; 'I' for Inactive)
REMARK    1  A    between atoms: C_1  and  C_2
REMARK    2  A    between atoms: C_5  and  N_6
REMARK    3  A    between atoms: C_7  and  C_9
REMARK    4  A    between atoms: C_9  and  C_10
REMARK    5  A    between atoms: C_9  and  N_11
REMARK                            x       y       z     vdW  Elec       q    Type
REMARK                         _______ _______ _______ _____ _____    ______ ____
ROOT
ATOM      1  N   UNL     1       2.790   5.779  19.803  0.00  0.00    +0.000 N 
ATOM      2  C   UNL     1       2.072   4.704  20.269  0.00  0.00    +0.000 C 
ATOM      3  O   UNL     1       0.872   4.792  20.471  0.00  0.00    +0.000 OA
ATOM      4  H   UNL     1       3.782   5.617  19.568  0.00  0.00    +0.000 HD
ENDROOT
BRANCH   1   9
ATOM      5  C   UNL     1       0.704  11.098  18.848  0.00  0.00    +0.000 C 
ATOM      6  C   UNL     1       1.225   9.707  19.103  0.00  0.00    +0.000 A 
ATOM      7  C   UNL     1       1.833   9.005  18.060  0.00  0.00    +0.000 A 
ATOM      8  C   UNL     1       2.341   7.721  18.261  0.00  0.00    +0.000 A 
ATOM      9  C   UNL     1       2.256   7.091  19.526  0.00  0.00    +0.000 A 
ATOM     10  C   UNL     1       1.627   7.801  20.568  0.00  0.00    +0.000 A 
ATOM     11  C   UNL     1       1.118   9.098  20.366  0.00  0.00    +0.000 A 
ATOM     12 CL   UNL     1       0.370   9.935  21.723  0.00  0.00    +0.000 Cl
ENDBRANCH   1   9
BRANCH   2  13
ATOM     13  C   UNL     1       2.695   3.319  20.454  0.00  0.00    +0.000 C 
ATOM     14  C   UNL     1       2.295   2.780  21.842  0.00  0.00    +0.000 C 
BRANCH  13  15
ATOM     15  N   UNL     1       2.346   2.383  19.337  0.00  0.00    +0.000 NA
ATOM     16  C   UNL     1       3.530   1.805  18.663  0.00  0.00    +0.000 C 
ATOM     17  C   UNL     1       4.038   2.892  17.735  0.00  0.00    +0.000 C 
ATOM     18  C   UNL     1       2.741   3.350  17.114  0.00  0.00    +0.000 C 
ATOM     19  C   UNL     1       1.692   3.113  18.216  0.00  0.00    +0.000 C 
ENDBRANCH  13  15
ENDBRANCH   2  13
TORSDOF 3
ENDMDL
MODEL 6
REMARK VINA RESULT:      -6.4      0.971      1.037
REMARK  Name = 
REMARK  5 active torsions:
REMARK  status: ('A' for Active; 'I' for Inactive)
REMARK    1  A    between atoms: C_1  and  C_2
REMARK    2  A    between atoms: C_5  and  N_6
REMARK    3  A    between atoms: C_7  and  C_9
REMARK    4  A    between atoms: C_9  and  C_10
REMARK    5  A    between atoms: C_9  and  N_11
REMARK                            x       y       z     vdW  Elec       q    Type
REMARK                         _______ _______ _______ _____ _____    ______ ____
ROOT
ATOM      1  N   UNL     1       5.052   3.158  17.174  0.00  0.00    +0.000 N 
ATOM      2  C   UNL     1       4.625   3.825  18.296  0.00  0.00    +0.000 C 
ATOM      3  O   UNL     1       4.863   5.013  18.449  0.00  0.00    +0.000 OA
ATOM      4  H   UNL     1       4.744   2.179  17.062  0.00  0.00    +0.000 HD
ENDROOT
BRANCH   1   9
ATOM      5  C   UNL     1       7.972   5.484  12.744  0.00  0.00    +0.000 C 
ATOM      6  C   UNL     1       7.219   4.858  13.890  0.00  0.00    +0.000 A 
ATOM      7  C   UNL     1       7.551   5.210  15.199  0.00  0.00    +0.000 A 
ATOM      8  C   UNL     1       6.866   4.662  16.285  0.00  0.00    +0.000 A 
ATOM      9  C   UNL     1       5.816   3.733  16.093  0.00  0.00    +0.000 A 
ATOM     10  C   UNL     1       5.498   3.371  14.769  0.00  0.00    +0.000 A 
ATOM     11  C   UNL     1       6.186   3.927  13.674  0.00  0.00    +0.000 A 
ATOM     12 CL   UNL     1       5.715   3.447  12.046  0.00  0.00    +0.000 Cl
ENDBRANCH   1   9
BRANCH   2  13
ATOM     13  C   UNL     1       3.743   3.166  19.358  0.00  0.00    +0.000 C 
ATOM     14  C   UNL     1       4.609   2.202  20.191  0.00  0.00    +0.000 C 
BRANCH  13  15
ATOM     15  N   UNL     1       3.010   4.172  20.195  0.00  0.00    +0.000 NA
ATOM     16  C   UNL     1       2.532   3.626  21.485  0.00  0.00    +0.000 C 
ATOM     17  C   UNL     1       1.280   2.837  21.151  0.00  0.00    +0.000 C 
ATOM     18  C   UNL     1       0.582   3.808  20.230  0.00  0.00    +0.000 C 
ATOM     19  C   UNL     1       1.731   4.572  19.548  0.00  0.00    +0.000 C 
ENDBRANCH  13  15
ENDBRANCH   2  13
TORSDOF 3
ENDMDL
MODEL 7
REMARK VINA RESULT:      -6.3      1.297      2.119
REMARK  Name = 
REMARK  5 active torsions:
REMARK  status: ('A' for Active; 'I' for Inactive)
REMARK    1  A    between atoms: C_1  and  C_2
REMARK    2  A    between atoms: C_5  and  N_6
REMARK    3  A    between atoms: C_7  and  C_9
REMARK    4  A    between atoms: C_9  and  C_10
REMARK    5  A    between atoms: C_9  and  N_11
REMARK                            x       y       z     vdW  Elec       q    Type
REMARK                         _______ _______ _______ _____ _____    ______ ____
ROOT
ATOM      1  N   UNL     1       4.630   4.492  17.752  0.00  0.00    +0.000 N 
ATOM      2  C   UNL     1       3.698   5.412  18.168  0.00  0.00    +0.000 C 
ATOM      3  O   UNL     1       3.499   6.435  17.533  0.00  0.00    +0.000 OA
ATOM      4  H   UNL     1       4.689   3.608  18.281  0.00  0.00    +0.000 HD
ENDROOT
BRANCH   1   9
ATOM      5  C   UNL     1       7.854   5.022  12.968  0.00  0.00    +0.000 C 
ATOM      6  C   UNL     1       7.015   4.861  14.210  0.00  0.00    +0.000 A 
ATOM      7  C   UNL     1       7.490   5.364  15.424  0.00  0.00    +0.000 A 
ATOM      8  C   UNL     1       6.735   5.247  16.592  0.00  0.00    +0.000 A 
ATOM      9  C   UNL     1       5.468   4.615  16.583  0.00  0.00    +0.000 A 
ATOM     10  C   UNL     1       5.005   4.096  15.358  0.00  0.00    +0.000 A 
ATOM     11  C   UNL     1       5.764   4.219  14.179  0.00  0.00    +0.000 A 
ATOM     12 CL   UNL     1       5.108   3.570  12.678  0.00  0.00    +0.000 Cl
ENDBRANCH   1   9
BRANCH   2  13
ATOM     13  C   UNL     1       2.784   5.169  19.371  0.00  0.00    +0.000 C 
ATOM     14  C   UNL     1       2.450   6.526  20.020  0.00  0.00    +0.000 C 
BRANCH  13  15
ATOM     15  N   UNL     1       1.566   4.373  19.009  0.00  0.00    +0.000 NA
ATOM     16  C   UNL     1       0.823   3.870  20.186  0.00  0.00    +0.000 C 
ATOM     17  C   UNL     1       1.599   2.659  20.667  0.00  0.00    +0.000 C 
ATOM     18  C   UNL     1       1.857   1.960  19.355  0.00  0.00    +0.000 C 
ATOM     19  C   UNL     1       1.942   3.104  18.328  0.00  0.00    +0.000 C 
ENDBRANCH  13  15
ENDBRANCH   2  13
TORSDOF 3
ENDMDL
MODEL 8
REMARK VINA RESULT:      -6.3      2.693      6.695
REMARK  Name = 
REMARK  5 active torsions:
REMARK  status: ('A' for Active; 'I' for Inactive)
REMARK    1  A    between atoms: C_1  and  C_2
REMARK    2  A    between atoms: C_5  and  N_6
REMARK    3  A    between atoms: C_7  and  C_9
REMARK    4  A    between atoms: C_9  and  C_10
REMARK    5  A    between atoms: C_9  and  N_11
REMARK                            x       y       z     vdW  Elec       q    Type
REMARK                         _______ _______ _______ _____ _____    ______ ____
ROOT
ATOM      1  N   UNL     1       4.481   5.792  17.737  0.00  0.00    +0.000 N 
ATOM      2  C   UNL     1       5.823   6.026  17.916  0.00  0.00    +0.000 C 
ATOM      3  O   UNL     1       6.397   5.643  18.923  0.00  0.00    +0.000 OA
ATOM      4  H   UNL     1       4.073   6.060  16.828  0.00  0.00    +0.000 HD
ENDROOT
BRANCH   1   9
ATOM      5  C   UNL     1       1.085   2.946  21.470  0.00  0.00    +0.000 C 
ATOM      6  C   UNL     1       1.952   3.684  20.482  0.00  0.00    +0.000 A 
ATOM      7  C   UNL     1       2.349   4.992  20.767  0.00  0.00    +0.000 A 
ATOM      8  C   UNL     1       3.164   5.702  19.883  0.00  0.00    +0.000 A 
ATOM      9  C   UNL     1       3.612   5.119  18.674  0.00  0.00    +0.000 A 
ATOM     10  C   UNL     1       3.194   3.805  18.387  0.00  0.00    +0.000 A 
ATOM     11  C   UNL     1       2.375   3.087  19.281  0.00  0.00    +0.000 A 
ATOM     12 CL   UNL     1       1.915   1.437  18.869  0.00  0.00    +0.000 Cl
ENDBRANCH   1   9
BRANCH   2  13
ATOM     13  C   UNL     1       6.696   6.668  16.837  0.00  0.00    +0.000 C 
ATOM     14  C   UNL     1       7.617   7.709  17.502  0.00  0.00    +0.000 C 
BRANCH  13  15
ATOM     15  N   UNL     1       7.444   5.651  16.029  0.00  0.00    +0.000 NA
ATOM     16  C   UNL     1       7.049   5.628  14.603  0.00  0.00    +0.000 C 
ATOM     17  C   UNL     1       5.744   4.857  14.557  0.00  0.00    +0.000 C 
ATOM     18  C   UNL     1       6.083   3.690  15.453  0.00  0.00    +0.000 C 
ATOM     19  C   UNL     1       7.095   4.269  16.458  0.00  0.00    +0.000 C 
ENDBRANCH  13  15
ENDBRANCH   2  13
TORSDOF 3
ENDMDL
MODEL 9
REMARK VINA RESULT:      -6.2      1.233      1.738
REMARK  Name = 
REMARK  5 active torsions:
REMARK  status: ('A' for Active; 'I' for Inactive)
REMARK    1  A    between atoms: C_1  and  C_2
REMARK    2  A    between atoms: C_5  and  N_6
REMARK    3  A    between atoms: C_7  and  C_9
REMARK    4  A    between atoms: C_9  and  C_10
REMARK    5  A    between atoms: C_9  and  N_11
REMARK                            x       y       z     vdW  Elec       q    Type
REMARK                         _______ _______ _______ _____ _____    ______ ____
ROOT
ATOM      1  N   UNL     1       5.123   3.782  16.926  0.00  0.00    +0.000 N 
ATOM      2  C   UNL     1       4.222   4.603  17.560  0.00  0.00    +0.000 C 
ATOM      3  O   UNL     1       3.885   5.667  17.065  0.00  0.00    +0.000 OA
ATOM      4  H   UNL     1       5.299   2.858  17.351  0.00  0.00    +0.000 HD
ENDROOT
BRANCH   1   9
ATOM      5  C   UNL     1       7.579   4.929  11.806  0.00  0.00    +0.000 C 
ATOM      6  C   UNL     1       6.943   4.608  13.134  0.00  0.00    +0.000 A 
ATOM      7  C   UNL     1       7.527   5.092  14.306  0.00  0.00    +0.000 A 
ATOM      8  C   UNL     1       6.958   4.828  15.553  0.00  0.00    +0.000 A 
ATOM      9  C   UNL     1       5.774   4.061  15.668  0.00  0.00    +0.000 A 
ATOM     10  C   UNL     1       5.200   3.563  14.482  0.00  0.00    +0.000 A 
ATOM     11  C   UNL     1       5.772   3.833  13.224  0.00  0.00    +0.000 A 
ATOM     12 CL   UNL     1       4.983   3.200  11.782  0.00  0.00    +0.000 Cl
ENDBRANCH   1   9
BRANCH   2  13
ATOM     13  C   UNL     1       3.507   4.197  18.850  0.00  0.00    +0.000 C 
ATOM     14  C   UNL     1       4.210   4.878  20.040  0.00  0.00    +0.000 C 
BRANCH  13  15
ATOM     15  N   UNL     1       2.035   4.476  18.798  0.00  0.00    +0.000 NA
ATOM     16  C   UNL     1       1.374   4.388  20.120  0.00  0.00    +0.000 C 
ATOM     17  C   UNL     1       1.190   2.906  20.383  0.00  0.00    +0.000 C 
ATOM     18  C   UNL     1       0.664   2.453  19.042  0.00  0.00    +0.000 C 
ATOM     19  C   UNL     1       1.319   3.417  18.036  0.00  0.00    +0.000 C 
ENDBRANCH  13  15
ENDBRANCH   2  13
TORSDOF 3
ENDMDL
