MODEL 1
REMARK VINA RESULT:      -6.8      0.000      0.000
REMARK  Name = 
REMARK  8 active torsions:
REMARK  status: ('A' for Active; 'I' for Inactive)
REMARK    1  A    between atoms: C_1  and  O_2
REMARK    2  A    between atoms: O_2  and  C_3
REMARK    3  A    between atoms: C_3  and  C_4
REMARK    4  A    between atoms: C_4  and  N_5
REMARK    5  A    between atoms: C_6  and  S_7
REMARK    6  A    between atoms: S_7  and  C_8
REMARK    7  A    between atoms: C_8  and  C_9
REMARK    8  A    between atoms: C_17  and  C_18
REMARK                            x       y       z     vdW  Elec       q    Type
REMARK                         _______ _______ _______ _____ _____    ______ ____
ROOT
ATOM      1  N   UNL     1       5.024   5.076  17.509  0.00  0.00    +0.000 N 
ATOM      2  C   UNL     1       4.740   3.933  16.794  0.00  0.00    +0.000 A 
ATOM      3  N   UNL     1       5.774   3.592  16.062  0.00  0.00    +0.000 NA
ATOM      4  N   UNL     1       6.756   4.525  16.264  0.00  0.00    +0.000 NA
ATOM      5  C   UNL     1       6.301   5.430  17.108  0.00  0.00    +0.000 A 
ENDROOT
BRANCH   5   6
ATOM      6  C   UNL     1       7.069   6.563  17.537  0.00  0.00    +0.000 A 
ATOM      7  C   UNL     1       7.964   6.626  18.595  0.00  0.00    +0.000 A 
ATOM      8  C   UNL     1       8.468   7.948  18.650  0.00  0.00    +0.000 A 
ATOM      9  C   UNL     1       7.876   8.617  17.609  0.00  0.00    +0.000 A 
ATOM     10  O   UNL     1       7.032   7.796  16.933  0.00  0.00    +0.000 OA
ENDBRANCH   5   6
BRANCH   1  11
ATOM     11  C   UNL     1       4.238   5.788  18.502  0.00  0.00    +0.000 C 
BRANCH  11  12
ATOM     12  C   UNL     1       2.972   6.482  18.008  0.00  0.00    +0.000 C 
BRANCH  12  14
ATOM     13  C   UNL     1       2.031   8.622  18.025  0.00  0.00    +0.000 C 
ATOM     14  O   UNL     1       3.211   7.868  17.756  0.00  0.00    +0.000 OA
ENDBRANCH  12  14
ENDBRANCH  11  12
ENDBRANCH   1  11
BRANCH   2  15
ATOM     15  S   UNL     1       3.241   3.067  16.810  0.00  0.00    +0.000 S 
BRANCH  15  16
ATOM     16  C   UNL     1       3.490   1.892  18.175  0.00  0.00    +0.000 C 
BRANCH  16  17
ATOM     17  C   UNL     1       2.760   2.332  19.420  0.00  0.00    +0.000 A 
ATOM     18  C   UNL     1       1.432   2.772  19.389  0.00  0.00    +0.000 A 
ATOM     19  C   UNL     1       0.805   3.166  20.569  0.00  0.00    +0.000 A 
ATOM     20  C   UNL     1       1.525   3.109  21.751  0.00  0.00    +0.000 A 
ATOM     21  N   UNL     1       2.803   2.683  21.825  0.00  0.00    +0.000 NA
ATOM     22  C   UNL     1       3.385   2.305  20.664  0.00  0.00    +0.000 A 
ENDBRANCH  16  17
ENDBRANCH  15  16
ENDBRANCH   2  15
TORSDOF 7
ENDMDL
MODEL 2
REMARK VINA RESULT:      -6.6      2.438      3.204
REMARK  Name = 
REMARK  8 active torsions:
REMARK  status: ('A' for Active; 'I' for Inactive)
REMARK    1  A    between atoms: C_1  and  O_2
REMARK    2  A    between atoms: O_2  and  C_3
REMARK    3  A    between atoms: C_3  and  C_4
REMARK    4  A    between atoms: C_4  and  N_5
REMARK    5  A    between atoms: C_6  and  S_7
REMARK    6  A    between atoms: S_7  and  C_8
REMARK    7  A    between atoms: C_8  and  C_9
REMARK    8  A    between atoms: C_17  and  C_18
REMARK                            x       y       z     vdW  Elec       q    Type
REMARK                         _______ _______ _______ _____ _____    ______ ____
ROOT
ATOM      1  N   UNL     1       5.924   4.870  16.875  0.00  0.00    +0.000 N 
ATOM      2  C   UNL     1       6.385   4.679  18.159  0.00  0.00    +0.000 A 
ATOM      3  N   UNL     1       7.662   4.380  18.139  0.00  0.00    +0.000 NA
ATOM      4  N   UNL     1       8.063   4.344  16.829  0.00  0.00    +0.000 NA
ATOM      5  C   UNL     1       7.019   4.609  16.069  0.00  0.00    +0.000 A 
ENDROOT
BRANCH   5   6
ATOM      6  C   UNL     1       7.079   4.645  14.637  0.00  0.00    +0.000 A 
ATOM      7  C   UNL     1       6.362   3.865  13.741  0.00  0.00    +0.000 A 
ATOM      8  C   UNL     1       6.762   4.237  12.435  0.00  0.00    +0.000 A 
ATOM      9  C   UNL     1       7.682   5.242  12.598  0.00  0.00    +0.000 A 
ATOM     10  O   UNL     1       7.882   5.496  13.916  0.00  0.00    +0.000 OA
ENDBRANCH   5   6
BRANCH   1  11
ATOM     11  C   UNL     1       4.619   5.286  16.392  0.00  0.00    +0.000 C 
BRANCH  11  12
ATOM     12  C   UNL     1       4.018   6.537  17.029  0.00  0.00    +0.000 C 
BRANCH  12  14
ATOM     13  C   UNL     1       2.520   7.297  18.654  0.00  0.00    +0.000 C 
ATOM     14  O   UNL     1       2.846   6.217  17.781  0.00  0.00    +0.000 OA
ENDBRANCH  12  14
ENDBRANCH  11  12
ENDBRANCH   1  11
BRANCH   2  15
ATOM     15  S   UNL     1       5.440   4.779  19.606  0.00  0.00    +0.000 S 
BRANCH  15  16
ATOM     16  C   UNL     1       4.693   3.124  19.693  0.00  0.00    +0.000 C 
BRANCH  16  17
ATOM     17  C   UNL     1       3.186   3.200  19.696  0.00  0.00    +0.000 A 
ATOM     18  C   UNL     1       2.400   2.432  18.830  0.00  0.00    +0.000 A 
ATOM     19  C   UNL     1       1.011   2.540  18.875  0.00  0.00    +0.000 A 
ATOM     20  C   UNL     1       0.446   3.414  19.790  0.00  0.00    +0.000 A 
ATOM     21  N   UNL     1       1.167   4.164  20.648  0.00  0.00    +0.000 NA
ATOM     22  C   UNL     1       2.513   4.037  20.582  0.00  0.00    +0.000 A 
ENDBRANCH  16  17
ENDBRANCH  15  16
ENDBRANCH   2  15
TORSDOF 7
ENDMDL
MODEL 3
REMARK VINA RESULT:      -6.5      2.407      3.796
REMARK  Name = 
REMARK  8 active torsions:
REMARK  status: ('A' for Active; 'I' for Inactive)
REMARK    1  A    between atoms: C_1  and  O_2
REMARK    2  A    between atoms: O_2  and  C_3
REMARK    3  A    between atoms: C_3  and  C_4
REMARK    4  A    between atoms: C_4  and  N_5
REMARK    5  A    between atoms: C_6  and  S_7
REMARK    6  A    between atoms: S_7  and  C_8
REMARK    7  A    between atoms: C_8  and  C_9
REMARK    8  A    between atoms: C_17  and  C_18
REMARK                            x       y       z     vdW  Elec       q    Type
REMARK                         _______ _______ _______ _____ _____    ______ ____
ROOT
ATOM      1  N   UNL     1       6.197   5.193  16.803  0.00  0.00    +0.000 N 
ATOM      2  C   UNL     1       5.195   4.856  17.687  0.00  0.00    +0.000 A 
ATOM      3  N   UNL     1       4.330   4.061  17.104  0.00  0.00    +0.000 NA
ATOM      4  N   UNL     1       4.735   3.879  15.808  0.00  0.00    +0.000 NA
ATOM      5  C   UNL     1       5.838   4.577  15.616  0.00  0.00    +0.000 A 
ENDROOT
BRANCH   5   6
ATOM      6  C   UNL     1       6.532   4.623  14.362  0.00  0.00    +0.000 A 
ATOM      7  C   UNL     1       6.283   3.860  13.230  0.00  0.00    +0.000 A 
ATOM      8  C   UNL     1       7.228   4.235  12.246  0.00  0.00    +0.000 A 
ATOM      9  C   UNL     1       7.988   5.225  12.816  0.00  0.00    +0.000 A 
ATOM     10  O   UNL     1       7.580   5.467  14.088  0.00  0.00    +0.000 OA
ENDBRANCH   5   6
BRANCH   1  11
ATOM     11  C   UNL     1       7.405   5.975  16.999  0.00  0.00    +0.000 C 
BRANCH  11  12
ATOM     12  C   UNL     1       7.221   7.457  17.313  0.00  0.00    +0.000 C 
BRANCH  12  14
ATOM     13  C   UNL     1       8.382   9.311  18.137  0.00  0.00    +0.000 C 
ATOM     14  O   UNL     1       8.187   7.904  18.266  0.00  0.00    +0.000 OA
ENDBRANCH  12  14
ENDBRANCH  11  12
ENDBRANCH   1  11
BRANCH   2  15
ATOM     15  S   UNL     1       5.051   5.406  19.322  0.00  0.00    +0.000 S 
BRANCH  15  16
ATOM     16  C   UNL     1       3.284   5.817  19.435  0.00  0.00    +0.000 C 
BRANCH  16  17
ATOM     17  C   UNL     1       2.495   4.689  20.052  0.00  0.00    +0.000 A 
ATOM     18  C   UNL     1       1.489   4.015  19.352  0.00  0.00    +0.000 A 
ATOM     19  C   UNL     1       0.790   2.978  19.969  0.00  0.00    +0.000 A 
ATOM     20  C   UNL     1       1.120   2.644  21.272  0.00  0.00    +0.000 A 
ATOM     21  N   UNL     1       2.089   3.262  21.978  0.00  0.00    +0.000 NA
ATOM     22  C   UNL     1       2.751   4.263  21.352  0.00  0.00    +0.000 A 
ENDBRANCH  16  17
ENDBRANCH  15  16
ENDBRANCH   2  15
TORSDOF 7
ENDMDL
MODEL 4
REMARK VINA RESULT:      -6.5      3.175      6.359
REMARK  Name = 
REMARK  8 active torsions:
REMARK  status: ('A' for Active; 'I' for Inactive)
REMARK    1  A    between atoms: C_1  and  O_2
REMARK    2  A    between atoms: O_2  and  C_3
REMARK    3  A    between atoms: C_3  and  C_4
REMARK    4  A    between atoms: C_4  and  N_5
REMARK    5  A    between atoms: C_6  and  S_7
REMARK    6  A    between atoms: S_7  and  C_8
REMARK    7  A    between atoms: C_8  and  C_9
REMARK    8  A    between atoms: C_17  and  C_18
REMARK                            x       y       z     vdW  Elec       q    Type
REMARK                         _______ _______ _______ _____ _____    ______ ____
ROOT
ATOM      1  N   UNL     1       2.105   6.472  19.803  0.00  0.00    +0.000 N 
ATOM      2  C   UNL     1       2.671   6.431  18.547  0.00  0.00    +0.000 A 
ATOM      3  N   UNL     1       2.680   7.631  18.018  0.00  0.00    +0.000 NA
ATOM      4  N   UNL     1       2.092   8.487  18.913  0.00  0.00    +0.000 NA
ATOM      5  C   UNL     1       1.722   7.792  19.970  0.00  0.00    +0.000 A 
ENDROOT
BRANCH   5   6
ATOM      6  C   UNL     1       1.063   8.374  21.103  0.00  0.00    +0.000 A 
ATOM      7  C   UNL     1      -0.297   8.374  21.382  0.00  0.00    +0.000 A 
ATOM      8  C   UNL     1      -0.484   9.082  22.594  0.00  0.00    +0.000 A 
ATOM      9  C   UNL     1       0.771   9.455  23.006  0.00  0.00    +0.000 A 
ATOM     10  O   UNL     1       1.709   9.036  22.118  0.00  0.00    +0.000 OA
ENDBRANCH   5   6
BRANCH   1  11
ATOM     11  C   UNL     1       1.944   5.429  20.800  0.00  0.00    +0.000 C 
BRANCH  11  12
ATOM     12  C   UNL     1       0.960   4.309  20.472  0.00  0.00    +0.000 C 
BRANCH  12  14
ATOM     13  C   UNL     1       2.287   2.790  21.653  0.00  0.00    +0.000 C 
ATOM     14  O   UNL     1       1.620   3.044  20.418  0.00  0.00    +0.000 OA
ENDBRANCH  12  14
ENDBRANCH  11  12
ENDBRANCH   1  11
BRANCH   2  15
ATOM     15  S   UNL     1       3.265   5.018  17.743  0.00  0.00    +0.000 S 
BRANCH  15  16
ATOM     16  C   UNL     1       4.629   5.687  16.745  0.00  0.00    +0.000 C 
BRANCH  16  17
ATOM     17  C   UNL     1       5.867   5.902  17.579  0.00  0.00    +0.000 A 
ATOM     18  C   UNL     1       6.743   6.969  17.350  0.00  0.00    +0.000 A 
ATOM     19  C   UNL     1       7.873   7.122  18.151  0.00  0.00    +0.000 A 
ATOM     20  C   UNL     1       8.095   6.203  19.164  0.00  0.00    +0.000 A 
ATOM     21  N   UNL     1       7.270   5.168  19.424  0.00  0.00    +0.000 NA
ATOM     22  C   UNL     1       6.181   5.045  18.630  0.00  0.00    +0.000 A 
ENDBRANCH  16  17
ENDBRANCH  15  16
ENDBRANCH   2  15
TORSDOF 7
ENDMDL
MODEL 5
REMARK VINA RESULT:      -6.3      0.720      1.085
REMARK  Name = 
REMARK  8 active torsions:
REMARK  status: ('A' for Active; 'I' for Inactive)
REMARK    1  A    between atoms: C_1  and  O_2
REMARK    2  A    between atoms: O_2  and  C_3
REMARK    3  A    between atoms: C_3  and  C_4
REMARK    4  A    between atoms: C_4  and  N_5
REMARK    5  A    between atoms: C_6  and  S_7
REMARK    6  A    between atoms: S_7  and  C_8
REMARK    7  A    between atoms: C_8  and  C_9
REMARK    8  A    between atoms: C_17  and  C_18
REMARK                            x       y       z     vdW  Elec       q    Type
REMARK                         _______ _______ _______ _____ _____    ______ ____
ROOT
ATOM      1  N   UNL     1       5.023   5.099  17.441  0.00  0.00    +0.000 N 
ATOM      2  C   UNL     1       4.731   3.996  16.668  0.00  0.00    +0.000 A 
ATOM      3  N   UNL     1       5.744   3.716  15.883  0.00  0.00    +0.000 NA
ATOM      4  N   UNL     1       6.719   4.651  16.108  0.00  0.00    +0.000 NA
ATOM      5  C   UNL     1       6.281   5.497  17.020  0.00  0.00    +0.000 A 
ENDROOT
BRANCH   5   6
ATOM      6  C   UNL     1       7.047   6.614  17.490  0.00  0.00    +0.000 A 
ATOM      7  C   UNL     1       7.894   6.655  18.588  0.00  0.00    +0.000 A 
ATOM      8  C   UNL     1       8.417   7.968  18.675  0.00  0.00    +0.000 A 
ATOM      9  C   UNL     1       7.885   8.653  17.613  0.00  0.00    +0.000 A 
ATOM     10  O   UNL     1       7.059   7.851  16.893  0.00  0.00    +0.000 OA
ENDBRANCH   5   6
BRANCH   1  11
ATOM     11  C   UNL     1       4.262   5.737  18.500  0.00  0.00    +0.000 C 
BRANCH  11  12
ATOM     12  C   UNL     1       2.831   6.148  18.167  0.00  0.00    +0.000 C 
BRANCH  12  14
ATOM     13  C   UNL     1       2.381   8.436  18.007  0.00  0.00    +0.000 C 
ATOM     14  O   UNL     1       2.451   7.319  18.891  0.00  0.00    +0.000 OA
ENDBRANCH  12  14
ENDBRANCH  11  12
ENDBRANCH   1  11
BRANCH   2  15
ATOM     15  S   UNL     1       3.245   3.107  16.681  0.00  0.00    +0.000 S 
BRANCH  15  16
ATOM     16  C   UNL     1       3.511   1.935  18.044  0.00  0.00    +0.000 C 
BRANCH  16  17
ATOM     17  C   UNL     1       2.749   2.345  19.280  0.00  0.00    +0.000 A 
ATOM     18  C   UNL     1       3.358   2.428  20.537  0.00  0.00    +0.000 A 
ATOM     19  C   UNL     1       2.608   2.814  21.647  0.00  0.00    +0.000 A 
ATOM     20  C   UNL     1       1.266   3.109  21.467  0.00  0.00    +0.000 A 
ATOM     21  N   UNL     1       0.644   3.051  20.271  0.00  0.00    +0.000 NA
ATOM     22  C   UNL     1       1.398   2.675  19.212  0.00  0.00    +0.000 A 
ENDBRANCH  16  17
ENDBRANCH  15  16
ENDBRANCH   2  15
TORSDOF 7
ENDMDL
MODEL 6
REMARK VINA RESULT:      -6.2      3.101      6.409
REMARK  Name = 
REMARK  8 active torsions:
REMARK  status: ('A' for Active; 'I' for Inactive)
REMARK    1  A    between atoms: C_1  and  O_2
REMARK    2  A    between atoms: O_2  and  C_3
REMARK    3  A    between atoms: C_3  and  C_4
REMARK    4  A    between atoms: C_4  and  N_5
REMARK    5  A    between atoms: C_6  and  S_7
REMARK    6  A    between atoms: S_7  and  C_8
REMARK    7  A    between atoms: C_8  and  C_9
REMARK    8  A    between atoms: C_17  and  C_18
REMARK                            x       y       z     vdW  Elec       q    Type
REMARK                         _______ _______ _______ _____ _____    ______ ____
ROOT
ATOM      1  N   UNL     1       2.224   6.212  19.814  0.00  0.00    +0.000 N 
ATOM      2  C   UNL     1       2.858   6.119  18.594  0.00  0.00    +0.000 A 
ATOM      3  N   UNL     1       2.920   7.301  18.028  0.00  0.00    +0.000 NA
ATOM      4  N   UNL     1       2.301   8.196  18.859  0.00  0.00    +0.000 NA
ATOM      5  C   UNL     1       1.859   7.543  19.916  0.00  0.00    +0.000 A 
ENDROOT
BRANCH   5   6
ATOM      6  C   UNL     1       1.150   8.175  20.991  0.00  0.00    +0.000 A 
ATOM      7  C   UNL     1      -0.221   8.189  21.206  0.00  0.00    +0.000 A 
ATOM      8  C   UNL     1      -0.462   8.949  22.376  0.00  0.00    +0.000 A 
ATOM      9  C   UNL     1       0.773   9.337  22.830  0.00  0.00    +0.000 A 
ATOM     10  O   UNL     1       1.750   8.880  22.006  0.00  0.00    +0.000 OA
ENDBRANCH   5   6
BRANCH   1  11
ATOM     11  C   UNL     1       1.987   5.206  20.833  0.00  0.00    +0.000 C 
BRANCH  11  12
ATOM     12  C   UNL     1       0.900   4.174  20.542  0.00  0.00    +0.000 C 
BRANCH  12  14
ATOM     13  C   UNL     1       2.496   2.820  21.583  0.00  0.00    +0.000 C 
ATOM     14  O   UNL     1       1.408   2.844  20.661  0.00  0.00    +0.000 OA
ENDBRANCH  12  14
ENDBRANCH  11  12
ENDBRANCH   1  11
BRANCH   2  15
ATOM     15  S   UNL     1       3.467   4.669  17.870  0.00  0.00    +0.000 S 
BRANCH  15  16
ATOM     16  C   UNL     1       4.661   5.314  16.661  0.00  0.00    +0.000 C 
BRANCH  16  17
ATOM     17  C   UNL     1       5.881   5.885  17.343  0.00  0.00    +0.000 A 
ATOM     18  C   UNL     1       6.496   5.245  18.424  0.00  0.00    +0.000 A 
ATOM     19  C   UNL     1       7.622   5.816  19.017  0.00  0.00    +0.000 A 
ATOM     20  C   UNL     1       8.101   7.012  18.509  0.00  0.00    +0.000 A 
ATOM     21  N   UNL     1       7.543   7.654  17.463  0.00  0.00    +0.000 NA
ATOM     22  C   UNL     1       6.453   7.077  16.907  0.00  0.00    +0.000 A 
ENDBRANCH  16  17
ENDBRANCH  15  16
ENDBRANCH   2  15
TORSDOF 7
ENDMDL
MODEL 7
REMARK VINA RESULT:      -6.2      2.544      3.923
REMARK  Name = 
REMARK  8 active torsions:
REMARK  status: ('A' for Active; 'I' for Inactive)
REMARK    1  A    between atoms: C_1  and  O_2
REMARK    2  A    between atoms: O_2  and  C_3
REMARK    3  A    between atoms: C_3  and  C_4
REMARK    4  A    between atoms: C_4  and  N_5
REMARK    5  A    between atoms: C_6  and  S_7
REMARK    6  A    between atoms: S_7  and  C_8
REMARK    7  A    between atoms: C_8  and  C_9
REMARK    8  A    between atoms: C_17  and  C_18
REMARK                            x       y       z     vdW  Elec       q    Type
REMARK                         _______ _______ _______ _____ _____    ______ ____
ROOT
ATOM      1  N   UNL     1       5.912   5.568  16.669  0.00  0.00    +0.000 N 
ATOM      2  C   UNL     1       5.282   4.958  17.731  0.00  0.00    +0.000 A 
ATOM      3  N   UNL     1       5.140   3.675  17.494  0.00  0.00    +0.000 NA
ATOM      4  N   UNL     1       5.654   3.421  16.250  0.00  0.00    +0.000 NA
ATOM      5  C   UNL     1       6.092   4.556  15.742  0.00  0.00    +0.000 A 
ENDROOT
BRANCH   5   6
ATOM      6  C   UNL     1       6.688   4.657  14.441  0.00  0.00    +0.000 A 
ATOM      7  C   UNL     1       6.327   3.971  13.290  0.00  0.00    +0.000 A 
ATOM      8  C   UNL     1       7.205   4.379  12.257  0.00  0.00    +0.000 A 
ATOM      9  C   UNL     1       8.039   5.311  12.822  0.00  0.00    +0.000 A 
ATOM     10  O   UNL     1       7.740   5.486  14.134  0.00  0.00    +0.000 OA
ENDBRANCH   5   6
BRANCH   1  11
ATOM     11  C   UNL     1       6.354   6.940  16.496  0.00  0.00    +0.000 C 
BRANCH  11  12
ATOM     12  C   UNL     1       7.524   7.400  17.361  0.00  0.00    +0.000 C 
BRANCH  12  14
ATOM     13  C   UNL     1       8.502   9.389  18.107  0.00  0.00    +0.000 C 
ATOM     14  O   UNL     1       7.272   8.690  17.923  0.00  0.00    +0.000 OA
ENDBRANCH  12  14
ENDBRANCH  11  12
ENDBRANCH   1  11
BRANCH   2  15
ATOM     15  S   UNL     1       4.719   5.741  19.169  0.00  0.00    +0.000 S 
BRANCH  15  16
ATOM     16  C   UNL     1       2.968   6.041  18.784  0.00  0.00    +0.000 C 
BRANCH  16  17
ATOM     17  C   UNL     1       2.136   4.801  19.003  0.00  0.00    +0.000 A 
ATOM     18  C   UNL     1       1.788   4.355  20.282  0.00  0.00    +0.000 A 
ATOM     19  C   UNL     1       1.016   3.203  20.428  0.00  0.00    +0.000 A 
ATOM     20  C   UNL     1       0.612   2.530  19.287  0.00  0.00    +0.000 A 
ATOM     21  N   UNL     1       0.918   2.933  18.037  0.00  0.00    +0.000 NA
ATOM     22  C   UNL     1       1.667   4.054  17.926  0.00  0.00    +0.000 A 
ENDBRANCH  16  17
ENDBRANCH  15  16
ENDBRANCH   2  15
TORSDOF 7
ENDMDL
MODEL 8
REMARK VINA RESULT:      -6.2      2.807      4.124
REMARK  Name = 
REMARK  8 active torsions:
REMARK  status: ('A' for Active; 'I' for Inactive)
REMARK    1  A    between atoms: C_1  and  O_2
REMARK    2  A    between atoms: O_2  and  C_3
REMARK    3  A    between atoms: C_3  and  C_4
REMARK    4  A    between atoms: C_4  and  N_5
REMARK    5  A    between atoms: C_6  and  S_7
REMARK    6  A    between atoms: S_7  and  C_8
REMARK    7  A    between atoms: C_8  and  C_9
REMARK    8  A    between atoms: C_17  and  C_18
REMARK                            x       y       z     vdW  Elec       q    Type
REMARK                         _______ _______ _______ _____ _____    ______ ____
ROOT
ATOM      1  N   UNL     1       5.062   4.768  16.770  0.00  0.00    +0.000 N 
ATOM      2  C   UNL     1       5.082   5.828  17.650  0.00  0.00    +0.000 A 
ATOM      3  N   UNL     1       5.485   6.915  17.036  0.00  0.00    +0.000 NA
ATOM      4  N   UNL     1       5.764   6.582  15.736  0.00  0.00    +0.000 NA
ATOM      5  C   UNL     1       5.538   5.293  15.581  0.00  0.00    +0.000 A 
ENDROOT
BRANCH   5   6
ATOM      6  C   UNL     1       5.737   4.604  14.339  0.00  0.00    +0.000 A 
ATOM      7  C   UNL     1       6.928   4.436  13.646  0.00  0.00    +0.000 A 
ATOM      8  C   UNL     1       6.637   3.709  12.467  0.00  0.00    +0.000 A 
ATOM      9  C   UNL     1       5.291   3.447  12.511  0.00  0.00    +0.000 A 
ATOM     10  O   UNL     1       4.738   3.980  13.631  0.00  0.00    +0.000 OA
ENDBRANCH   5   6
BRANCH   1  11
ATOM     11  C   UNL     1       4.621   3.397  16.954  0.00  0.00    +0.000 C 
BRANCH  11  12
ATOM     12  C   UNL     1       3.125   3.130  16.812  0.00  0.00    +0.000 C 
BRANCH  12  14
ATOM     13  C   UNL     1       3.790   1.643  18.489  0.00  0.00    +0.000 C 
ATOM     14  O   UNL     1       2.717   2.036  17.635  0.00  0.00    +0.000 OA
ENDBRANCH  12  14
ENDBRANCH  11  12
ENDBRANCH   1  11
BRANCH   2  15
ATOM     15  S   UNL     1       4.674   5.765  19.331  0.00  0.00    +0.000 S 
BRANCH  15  16
ATOM     16  C   UNL     1       2.857   5.800  19.288  0.00  0.00    +0.000 C 
BRANCH  16  17
ATOM     17  C   UNL     1       2.266   4.658  20.078  0.00  0.00    +0.000 A 
ATOM     18  C   UNL     1       1.076   4.028  19.698  0.00  0.00    +0.000 A 
ATOM     19  C   UNL     1       0.574   2.976  20.464  0.00  0.00    +0.000 A 
ATOM     20  C   UNL     1       1.279   2.584  21.590  0.00  0.00    +0.000 A 
ATOM     21  N   UNL     1       2.433   3.160  21.985  0.00  0.00    +0.000 NA
ATOM     22  C   UNL     1       2.897   4.176  21.221  0.00  0.00    +0.000 A 
ENDBRANCH  16  17
ENDBRANCH  15  16
ENDBRANCH   2  15
TORSDOF 7
ENDMDL
MODEL 9
REMARK VINA RESULT:      -6.2      2.656      6.372
REMARK  Name = 
REMARK  8 active torsions:
REMARK  status: ('A' for Active; 'I' for Inactive)
REMARK    1  A    between atoms: C_1  and  O_2
REMARK    2  A    between atoms: O_2  and  C_3
REMARK    3  A    between atoms: C_3  and  C_4
REMARK    4  A    between atoms: C_4  and  N_5
REMARK    5  A    between atoms: C_6  and  S_7
REMARK    6  A    between atoms: S_7  and  C_8
REMARK    7  A    between atoms: C_8  and  C_9
REMARK    8  A    between atoms: C_17  and  C_18
REMARK                            x       y       z     vdW  Elec       q    Type
REMARK                         _______ _______ _______ _____ _____    ______ ____
ROOT
ATOM      1  N   UNL     1       3.896   5.122  18.325  0.00  0.00    +0.000 N 
ATOM      2  C   UNL     1       5.196   5.192  17.874  0.00  0.00    +0.000 A 
ATOM      3  N   UNL     1       5.906   4.221  18.397  0.00  0.00    +0.000 NA
ATOM      4  N   UNL     1       5.087   3.504  19.229  0.00  0.00    +0.000 NA
ATOM      5  C   UNL     1       3.890   4.057  19.210  0.00  0.00    +0.000 A 
ENDROOT
BRANCH   5   6
ATOM      6  C   UNL     1       2.784   3.564  19.978  0.00  0.00    +0.000 A 
ATOM      7  C   UNL     1       1.474   3.389  19.556  0.00  0.00    +0.000 A 
ATOM      8  C   UNL     1       0.732   2.899  20.659  0.00  0.00    +0.000 A 
ATOM      9  C   UNL     1       1.631   2.776  21.688  0.00  0.00    +0.000 A 
ATOM     10  O   UNL     1       2.868   3.174  21.292  0.00  0.00    +0.000 OA
ENDBRANCH   5   6
BRANCH   1  11
ATOM     11  C   UNL     1       2.731   5.917  17.976  0.00  0.00    +0.000 C 
BRANCH  11  12
ATOM     12  C   UNL     1       2.657   7.323  18.564  0.00  0.00    +0.000 C 
BRANCH  12  14
ATOM     13  C   UNL     1       1.854   9.403  17.862  0.00  0.00    +0.000 C 
ATOM     14  O   UNL     1       2.715   8.314  17.536  0.00  0.00    +0.000 OA
ENDBRANCH  12  14
ENDBRANCH  11  12
ENDBRANCH   1  11
BRANCH   2  15
ATOM     15  S   UNL     1       5.839   6.388  16.800  0.00  0.00    +0.000 S 
BRANCH  15  16
ATOM     16  C   UNL     1       7.305   5.552  16.126  0.00  0.00    +0.000 C 
BRANCH  16  17
ATOM     17  C   UNL     1       7.025   4.959  14.767  0.00  0.00    +0.000 A 
ATOM     18  C   UNL     1       7.741   5.341  13.627  0.00  0.00    +0.000 A 
ATOM     19  C   UNL     1       7.442   4.760  12.395  0.00  0.00    +0.000 A 
ATOM     20  C   UNL     1       6.434   3.812  12.339  0.00  0.00    +0.000 A 
ATOM     21  N   UNL     1       5.728   3.410  13.415  0.00  0.00    +0.000 NA
ATOM     22  C   UNL     1       6.041   3.989  14.598  0.00  0.00    +0.000 A 
ENDBRANCH  16  17
ENDBRANCH  15  16
ENDBRANCH   2  15
TORSDOF 7
ENDMDL
