MODEL 1
REMARK VINA RESULT:      -8.4      0.000      0.000
REMARK  Name = 
REMARK  8 active torsions:
REMARK  status: ('A' for Active; 'I' for Inactive)
REMARK    1  A    between atoms: C_1  and  C_2
REMARK    2  A    between atoms: C_2  and  C_3
REMARK    3  A    between atoms: C_4  and  C_5
REMARK    4  A    between atoms: CA_15  and  C_16
REMARK    5  A    between atoms: C_16  and  OXT_18
REMARK    6  A    between atoms: C_19  and  C_20
REMARK    7  A    between atoms: N_28  and  C_29
REMARK    8  A    between atoms: C_29  and  C_30
REMARK                            x       y       z     vdW  Elec       q    Type
REMARK                         _______ _______ _______ _____ _____    ______ ____
ROOT
ATOM      1  C   UNL     1       1.553   8.036  19.197  0.00  0.00    +0.000 A 
ATOM      2  C   UNL     1       1.775   6.934  20.064  0.00  0.00    +0.000 A 
ATOM      3  N   UNL     1       1.806   7.561  21.284  0.00  0.00    +0.000 N 
ATOM      4  CA  UNL     1       1.372   8.861  21.306  0.00  0.00    +0.000 A 
ATOM      5  C   UNL     1       1.023   9.197  19.984  0.00  0.00    +0.000 A 
ATOM      6  H   UNL     1       2.185   7.176  22.136  0.00  0.00    +0.000 HD
ENDROOT
BRANCH   2   7
ATOM      7  C   UNL     1       2.231   5.482  20.055  0.00  0.00    +0.000 A 
ATOM      8  C   UNL     1       1.312   4.522  20.582  0.00  0.00    +0.000 A 
ATOM      9  C   UNL     1       1.627   3.201  20.858  0.00  0.00    +0.000 A 
ATOM     10  C   UNL     1       2.643   2.612  20.153  0.00  0.00    +0.000 A 
ATOM     11  C   UNL     1       3.665   3.508  19.839  0.00  0.00    +0.000 A 
ATOM     12  N   UNL     1       4.956   3.170  19.527  0.00  0.00    +0.000 N 
ATOM     13  C   UNL     1       5.457   4.151  18.728  0.00  0.00    +0.000 A 
ATOM     14  C   UNL     1       4.604   5.231  18.816  0.00  0.00    +0.000 A 
ATOM     15  C   UNL     1       3.467   4.893  19.629  0.00  0.00    +0.000 A 
ATOM     16  H   UNL     1       5.360   2.256  19.703  0.00  0.00    +0.000 HD
ENDBRANCH   2   7
BRANCH   5  17
ATOM     17  C   UNL     1       0.277  10.501  19.663  0.00  0.00    +0.000 A 
ATOM     18  C   UNL     1      -0.934  10.336  18.919  0.00  0.00    +0.000 A 
ATOM     19  C   UNL     1      -1.880  11.334  18.699  0.00  0.00    +0.000 A 
ATOM     20  C   UNL     1      -1.610  12.635  19.048  0.00  0.00    +0.000 A 
ATOM     21  C   UNL     1      -0.332  12.900  19.544  0.00  0.00    +0.000 A 
ATOM     22  C   UNL     1       0.606  11.892  19.920  0.00  0.00    +0.000 A 
ATOM     23  C   UNL     1       1.680  12.653  20.494  0.00  0.00    +0.000 A 
ATOM     24  C   UNL     1       1.463  14.004  20.305  0.00  0.00    +0.000 A 
ATOM     25  N   UNL     1       0.244  14.152  19.712  0.00  0.00    +0.000 N 
BRANCH  25  26
ATOM     26  C   UNL     1      -0.263  15.402  19.156  0.00  0.00    +0.000 C 
ATOM     27  C   UNL     1       0.783  16.358  18.584  0.00  0.00    +0.000 C 
ENDBRANCH  25  26
ENDBRANCH   5  17
BRANCH   1  29
ATOM     28  C   UNL     1       3.444   8.183  17.609  0.00  0.00    +0.000 C 
ATOM     29  C   UNL     1       1.937   8.034  17.751  0.00  0.00    +0.000 C 
ENDBRANCH   1  29
BRANCH   4  30
ATOM     30  C   UNL     1       1.421   9.395  22.664  0.00  0.00    +0.000 C 
ATOM     31  O   UNL     1       0.420   9.804  23.244  0.00  0.00    +0.000 OA
BRANCH  30  32
ATOM     32  OXT UNL     1       2.601   9.329  23.314  0.00  0.00    +0.000 OA
ATOM     33  HXT UNL     1       2.933  10.211  23.498  0.00  0.00    +0.000 HD
ENDBRANCH  30  32
ENDBRANCH   4  30
TORSDOF 6
ENDMDL
MODEL 2
REMARK VINA RESULT:      -8.2      1.898      3.364
REMARK  Name = 
REMARK  8 active torsions:
REMARK  status: ('A' for Active; 'I' for Inactive)
REMARK    1  A    between atoms: C_1  and  C_2
REMARK    2  A    between atoms: C_2  and  C_3
REMARK    3  A    between atoms: C_4  and  C_5
REMARK    4  A    between atoms: CA_15  and  C_16
REMARK    5  A    between atoms: C_16  and  OXT_18
REMARK    6  A    between atoms: C_19  and  C_20
REMARK    7  A    between atoms: N_28  and  C_29
REMARK    8  A    between atoms: C_29  and  C_30
REMARK                            x       y       z     vdW  Elec       q    Type
REMARK                         _______ _______ _______ _____ _____    ______ ____
ROOT
ATOM      1  C   UNL     1       1.387   8.697  19.106  0.00  0.00    +0.000 A 
ATOM      2  C   UNL     1       1.894   7.558  19.784  0.00  0.00    +0.000 A 
ATOM      3  N   UNL     1       1.585   7.868  21.085  0.00  0.00    +0.000 N 
ATOM      4  CA  UNL     1       0.726   8.921  21.267  0.00  0.00    +0.000 A 
ATOM      5  C   UNL     1       0.412   9.418  19.988  0.00  0.00    +0.000 A 
ATOM      6  H   UNL     1       1.990   7.442  21.905  0.00  0.00    +0.000 HD
ENDROOT
BRANCH   2   7
ATOM      7  C   UNL     1       2.825   6.370  19.590  0.00  0.00    +0.000 A 
ATOM      8  C   UNL     1       3.930   6.565  18.706  0.00  0.00    +0.000 A 
ATOM      9  C   UNL     1       4.750   5.551  18.236  0.00  0.00    +0.000 A 
ATOM     10  C   UNL     1       4.889   4.420  18.997  0.00  0.00    +0.000 A 
ATOM     11  C   UNL     1       3.720   4.092  19.685  0.00  0.00    +0.000 A 
ATOM     12  N   UNL     1       3.403   2.852  20.174  0.00  0.00    +0.000 N 
ATOM     13  C   UNL     1       2.576   3.030  21.240  0.00  0.00    +0.000 A 
ATOM     14  C   UNL     1       2.130   4.335  21.203  0.00  0.00    +0.000 A 
ATOM     15  C   UNL     1       2.769   5.041  20.127  0.00  0.00    +0.000 A 
ATOM     16  H   UNL     1       3.876   1.998  19.901  0.00  0.00    +0.000 HD
ENDBRANCH   2   7
BRANCH   5  17
ATOM     17  C   UNL     1      -0.707  10.451  19.786  0.00  0.00    +0.000 A 
ATOM     18  C   UNL     1      -0.767  11.477  20.781  0.00  0.00    +0.000 A 
ATOM     19  C   UNL     1      -1.545  12.629  20.695  0.00  0.00    +0.000 A 
ATOM     20  C   UNL     1      -2.471  12.768  19.691  0.00  0.00    +0.000 A 
ATOM     21  C   UNL     1      -2.639  11.677  18.835  0.00  0.00    +0.000 A 
ATOM     22  C   UNL     1      -1.766  10.548  18.798  0.00  0.00    +0.000 A 
ATOM     23  C   UNL     1      -2.264   9.796  17.680  0.00  0.00    +0.000 A 
ATOM     24  C   UNL     1      -3.440  10.352  17.216  0.00  0.00    +0.000 A 
ATOM     25  N   UNL     1      -3.676  11.489  17.931  0.00  0.00    +0.000 N 
BRANCH  25  26
ATOM     26  C   UNL     1      -4.918  12.252  17.892  0.00  0.00    +0.000 C 
ATOM     27  C   UNL     1      -6.075  11.697  18.722  0.00  0.00    +0.000 C 
ENDBRANCH  25  26
ENDBRANCH   5  17
BRANCH   1  29
ATOM     28  C   UNL     1       2.253  10.621  17.814  0.00  0.00    +0.000 C 
ATOM     29  C   UNL     1       1.886   9.146  17.768  0.00  0.00    +0.000 C 
ENDBRANCH   1  29
BRANCH   4  30
ATOM     30  C   UNL     1       0.454   9.119  22.688  0.00  0.00    +0.000 C 
ATOM     31  O   UNL     1       1.283   9.603  23.452  0.00  0.00    +0.000 OA
BRANCH  30  32
ATOM     32  OXT UNL     1      -0.793   8.849  23.125  0.00  0.00    +0.000 OA
ATOM     33  HXT UNL     1      -1.419   9.481  22.765  0.00  0.00    +0.000 HD
ENDBRANCH  30  32
ENDBRANCH   4  30
TORSDOF 6
ENDMDL
MODEL 3
REMARK VINA RESULT:      -8.1      2.043      3.257
REMARK  Name = 
REMARK  8 active torsions:
REMARK  status: ('A' for Active; 'I' for Inactive)
REMARK    1  A    between atoms: C_1  and  C_2
REMARK    2  A    between atoms: C_2  and  C_3
REMARK    3  A    between atoms: C_4  and  C_5
REMARK    4  A    between atoms: CA_15  and  C_16
REMARK    5  A    between atoms: C_16  and  OXT_18
REMARK    6  A    between atoms: C_19  and  C_20
REMARK    7  A    between atoms: N_28  and  C_29
REMARK    8  A    between atoms: C_29  and  C_30
REMARK                            x       y       z     vdW  Elec       q    Type
REMARK                         _______ _______ _______ _____ _____    ______ ____
ROOT
ATOM      1  C   UNL     1       1.353   8.826  19.011  0.00  0.00    +0.000 A 
ATOM      2  C   UNL     1       1.872   7.661  19.636  0.00  0.00    +0.000 A 
ATOM      3  N   UNL     1       1.542   7.897  20.946  0.00  0.00    +0.000 N 
ATOM      4  CA  UNL     1       0.662   8.924  21.172  0.00  0.00    +0.000 A 
ATOM      5  C   UNL     1       0.355   9.482  19.917  0.00  0.00    +0.000 A 
ATOM      6  H   UNL     1       1.944   7.436  21.749  0.00  0.00    +0.000 HD
ENDROOT
BRANCH   2   7
ATOM      7  C   UNL     1       2.827   6.502  19.392  0.00  0.00    +0.000 A 
ATOM      8  C   UNL     1       2.613   5.325  20.173  0.00  0.00    +0.000 A 
ATOM      9  C   UNL     1       3.498   4.261  20.253  0.00  0.00    +0.000 A 
ATOM     10  C   UNL     1       4.341   4.035  19.197  0.00  0.00    +0.000 A 
ATOM     11  C   UNL     1       4.743   5.216  18.572  0.00  0.00    +0.000 A 
ATOM     12  N   UNL     1       5.861   5.367  17.793  0.00  0.00    +0.000 N 
ATOM     13  C   UNL     1       5.616   6.375  16.913  0.00  0.00    +0.000 A 
ATOM     14  C   UNL     1       4.498   7.049  17.359  0.00  0.00    +0.000 A 
ATOM     15  C   UNL     1       3.956   6.390  18.515  0.00  0.00    +0.000 A 
ATOM     16  H   UNL     1       6.626   4.701  17.766  0.00  0.00    +0.000 HD
ENDBRANCH   2   7
BRANCH   5  17
ATOM     17  C   UNL     1      -0.780  10.505  19.755  0.00  0.00    +0.000 A 
ATOM     18  C   UNL     1      -0.841  11.506  20.775  0.00  0.00    +0.000 A 
ATOM     19  C   UNL     1      -1.634  12.649  20.727  0.00  0.00    +0.000 A 
ATOM     20  C   UNL     1      -2.576  12.799  19.739  0.00  0.00    +0.000 A 
ATOM     21  C   UNL     1      -2.741  11.727  18.860  0.00  0.00    +0.000 A 
ATOM     22  C   UNL     1      -1.855  10.610  18.784  0.00  0.00    +0.000 A 
ATOM     23  C   UNL     1      -2.358   9.879  17.656  0.00  0.00    +0.000 A 
ATOM     24  C   UNL     1      -3.547  10.430  17.220  0.00  0.00    +0.000 A 
ATOM     25  N   UNL     1      -3.788  11.547  17.965  0.00  0.00    +0.000 N 
BRANCH  25  26
ATOM     26  C   UNL     1      -5.041  12.294  17.962  0.00  0.00    +0.000 C 
ATOM     27  C   UNL     1      -6.320  11.463  18.037  0.00  0.00    +0.000 C 
ENDBRANCH  25  26
ENDBRANCH   5  17
BRANCH   1  29
ATOM     28  C   UNL     1       2.223  10.824  17.841  0.00  0.00    +0.000 C 
ATOM     29  C   UNL     1       1.860   9.353  17.706  0.00  0.00    +0.000 C 
ENDBRANCH   1  29
BRANCH   4  30
ATOM     30  C   UNL     1       0.369   9.043  22.598  0.00  0.00    +0.000 C 
ATOM     31  O   UNL     1       1.130   9.608  23.378  0.00  0.00    +0.000 OA
BRANCH  30  32
ATOM     32  OXT UNL     1      -0.831   8.599  23.025  0.00  0.00    +0.000 OA
ATOM     33  HXT UNL     1      -0.869   7.641  22.985  0.00  0.00    +0.000 HD
ENDBRANCH  30  32
ENDBRANCH   4  30
TORSDOF 6
ENDMDL
MODEL 4
REMARK VINA RESULT:      -8.0      1.042      1.754
REMARK  Name = 
REMARK  8 active torsions:
REMARK  status: ('A' for Active; 'I' for Inactive)
REMARK    1  A    between atoms: C_1  and  C_2
REMARK    2  A    between atoms: C_2  and  C_3
REMARK    3  A    between atoms: C_4  and  C_5
REMARK    4  A    between atoms: CA_15  and  C_16
REMARK    5  A    between atoms: C_16  and  OXT_18
REMARK    6  A    between atoms: C_19  and  C_20
REMARK    7  A    between atoms: N_28  and  C_29
REMARK    8  A    between atoms: C_29  and  C_30
REMARK                            x       y       z     vdW  Elec       q    Type
REMARK                         _______ _______ _______ _____ _____    ______ ____
ROOT
ATOM      1  C   UNL     1       2.051   7.948  18.712  0.00  0.00    +0.000 A 
ATOM      2  C   UNL     1       2.223   6.788  19.512  0.00  0.00    +0.000 A 
ATOM      3  N   UNL     1       2.007   7.300  20.767  0.00  0.00    +0.000 N 
ATOM      4  CA  UNL     1       1.468   8.559  20.821  0.00  0.00    +0.000 A 
ATOM      5  C   UNL     1       1.307   8.992  19.491  0.00  0.00    +0.000 A 
ATOM      6  H   UNL     1       2.276   6.864  21.636  0.00  0.00    +0.000 HD
ENDROOT
BRANCH   2   7
ATOM      7  C   UNL     1       2.794   5.378  19.462  0.00  0.00    +0.000 A 
ATOM      8  C   UNL     1       4.210   5.258  19.612  0.00  0.00    +0.000 A 
ATOM      9  C   UNL     1       4.931   4.098  19.376  0.00  0.00    +0.000 A 
ATOM     10  C   UNL     1       4.291   2.894  19.517  0.00  0.00    +0.000 A 
ATOM     11  C   UNL     1       2.949   2.955  19.140  0.00  0.00    +0.000 A 
ATOM     12  N   UNL     1       2.173   1.887  18.774  0.00  0.00    +0.000 N 
ATOM     13  C   UNL     1       0.881   2.196  19.069  0.00  0.00    +0.000 A 
ATOM     14  C   UNL     1       0.825   3.554  19.306  0.00  0.00    +0.000 A 
ATOM     15  C   UNL     1       2.147   4.116  19.251  0.00  0.00    +0.000 A 
ATOM     16  H   UNL     1       2.544   0.976  18.527  0.00  0.00    +0.000 HD
ENDBRANCH   2   7
BRANCH   5  17
ATOM     17  C   UNL     1       0.516  10.265  19.157  0.00  0.00    +0.000 A 
ATOM     18  C   UNL     1      -0.531  10.091  18.197  0.00  0.00    +0.000 A 
ATOM     19  C   UNL     1      -1.509  11.036  17.901  0.00  0.00    +0.000 A 
ATOM     20  C   UNL     1      -1.418  12.311  18.403  0.00  0.00    +0.000 A 
ATOM     21  C   UNL     1      -0.272  12.615  19.141  0.00  0.00    +0.000 A 
ATOM     22  C   UNL     1       0.673  11.643  19.589  0.00  0.00    +0.000 A 
ATOM     23  C   UNL     1       1.562  12.416  20.409  0.00  0.00    +0.000 A 
ATOM     24  C   UNL     1       1.264  13.760  20.303  0.00  0.00    +0.000 A 
ATOM     25  N   UNL     1       0.155  13.881  19.518  0.00  0.00    +0.000 N 
BRANCH  25  26
ATOM     26  C   UNL     1      -0.356  15.142  18.991  0.00  0.00    +0.000 C 
ATOM     27  C   UNL     1       0.682  16.228  18.717  0.00  0.00    +0.000 C 
ENDBRANCH  25  26
ENDBRANCH   5  17
BRANCH   1  29
ATOM     28  C   UNL     1       4.071   7.544  17.343  0.00  0.00    +0.000 C 
ATOM     29  C   UNL     1       2.659   8.108  17.354  0.00  0.00    +0.000 C 
ENDBRANCH   1  29
BRANCH   4  30
ATOM     30  C   UNL     1       1.256   8.966  22.207  0.00  0.00    +0.000 C 
ATOM     31  O   UNL     1       0.142   8.981  22.723  0.00  0.00    +0.000 OA
BRANCH  30  32
ATOM     32  OXT UNL     1       2.349   9.230  22.951  0.00  0.00    +0.000 OA
ATOM     33  HXT UNL     1       3.147   9.013  22.464  0.00  0.00    +0.000 HD
ENDBRANCH  30  32
ENDBRANCH   4  30
TORSDOF 6
ENDMDL
MODEL 5
REMARK VINA RESULT:      -7.9      1.619      2.432
REMARK  Name = 
REMARK  8 active torsions:
REMARK  status: ('A' for Active; 'I' for Inactive)
REMARK    1  A    between atoms: C_1  and  C_2
REMARK    2  A    between atoms: C_2  and  C_3
REMARK    3  A    between atoms: C_4  and  C_5
REMARK    4  A    between atoms: CA_15  and  C_16
REMARK    5  A    between atoms: C_16  and  OXT_18
REMARK    6  A    between atoms: C_19  and  C_20
REMARK    7  A    between atoms: N_28  and  C_29
REMARK    8  A    between atoms: C_29  and  C_30
REMARK                            x       y       z     vdW  Elec       q    Type
REMARK                         _______ _______ _______ _____ _____    ______ ____
ROOT
ATOM      1  C   UNL     1       1.342   8.757  19.217  0.00  0.00    +0.000 A 
ATOM      2  C   UNL     1       1.767   7.569  19.869  0.00  0.00    +0.000 A 
ATOM      3  N   UNL     1       1.514   7.885  21.180  0.00  0.00    +0.000 N 
ATOM      4  CA  UNL     1       0.749   9.002  21.396  0.00  0.00    +0.000 A 
ATOM      5  C   UNL     1       0.450   9.542  20.131  0.00  0.00    +0.000 A 
ATOM      6  H   UNL     1       1.899   7.415  21.986  0.00  0.00    +0.000 HD
ENDROOT
BRANCH   2   7
ATOM      7  C   UNL     1       2.592   6.311  19.639  0.00  0.00    +0.000 A 
ATOM      8  C   UNL     1       3.835   6.481  18.954  0.00  0.00    +0.000 A 
ATOM      9  C   UNL     1       4.610   5.443  18.462  0.00  0.00    +0.000 A 
ATOM     10  C   UNL     1       4.514   4.217  19.065  0.00  0.00    +0.000 A 
ATOM     11  C   UNL     1       3.227   3.949  19.530  0.00  0.00    +0.000 A 
ATOM     12  N   UNL     1       2.714   2.704  19.788  0.00  0.00    +0.000 N 
ATOM     13  C   UNL     1       1.755   2.844  20.743  0.00  0.00    +0.000 A 
ATOM     14  C   UNL     1       1.454   4.188  20.832  0.00  0.00    +0.000 A 
ATOM     15  C   UNL     1       2.320   4.942  19.967  0.00  0.00    +0.000 A 
ATOM     16  H   UNL     1       3.135   1.840  19.464  0.00  0.00    +0.000 HD
ENDBRANCH   2   7
BRANCH   5  17
ATOM     17  C   UNL     1      -0.584  10.667  19.968  0.00  0.00    +0.000 A 
ATOM     18  C   UNL     1      -1.423  10.553  18.815  0.00  0.00    +0.000 A 
ATOM     19  C   UNL     1      -2.559  11.322  18.575  0.00  0.00    +0.000 A 
ATOM     20  C   UNL     1      -2.851  12.399  19.376  0.00  0.00    +0.000 A 
ATOM     21  C   UNL     1      -1.920  12.716  20.367  0.00  0.00    +0.000 A 
ATOM     22  C   UNL     1      -0.829  11.874  20.739  0.00  0.00    +0.000 A 
ATOM     23  C   UNL     1      -0.270  12.556  21.872  0.00  0.00    +0.000 A 
ATOM     24  C   UNL     1      -0.877  13.786  22.036  0.00  0.00    +0.000 A 
ATOM     25  N   UNL     1      -1.871  13.889  21.109  0.00  0.00    +0.000 N 
BRANCH  25  26
ATOM     26  C   UNL     1      -2.607  15.112  20.812  0.00  0.00    +0.000 C 
ATOM     27  C   UNL     1      -3.955  15.273  21.513  0.00  0.00    +0.000 C 
ENDBRANCH  25  26
ENDBRANCH   5  17
BRANCH   1  29
ATOM     28  C   UNL     1       2.275  10.641  17.915  0.00  0.00    +0.000 C 
ATOM     29  C   UNL     1       1.848   9.183  17.875  0.00  0.00    +0.000 C 
ENDBRANCH   1  29
BRANCH   4  30
ATOM     30  C   UNL     1       0.525   9.201  22.825  0.00  0.00    +0.000 C 
ATOM     31  O   UNL     1       1.432   9.503  23.594  0.00  0.00    +0.000 OA
BRANCH  30  32
ATOM     32  OXT UNL     1      -0.747   9.147  23.268  0.00  0.00    +0.000 OA
ATOM     33  HXT UNL     1      -0.781   8.763  24.147  0.00  0.00    +0.000 HD
ENDBRANCH  30  32
ENDBRANCH   4  30
TORSDOF 6
ENDMDL
MODEL 6
REMARK VINA RESULT:      -7.9      1.625      2.776
REMARK  Name = 
REMARK  8 active torsions:
REMARK  status: ('A' for Active; 'I' for Inactive)
REMARK    1  A    between atoms: C_1  and  C_2
REMARK    2  A    between atoms: C_2  and  C_3
REMARK    3  A    between atoms: C_4  and  C_5
REMARK    4  A    between atoms: CA_15  and  C_16
REMARK    5  A    between atoms: C_16  and  OXT_18
REMARK    6  A    between atoms: C_19  and  C_20
REMARK    7  A    between atoms: N_28  and  C_29
REMARK    8  A    between atoms: C_29  and  C_30
REMARK                            x       y       z     vdW  Elec       q    Type
REMARK                         _______ _______ _______ _____ _____    ______ ____
ROOT
ATOM      1  C   UNL     1       1.536   8.231  19.168  0.00  0.00    +0.000 A 
ATOM      2  C   UNL     1       1.993   7.124  19.930  0.00  0.00    +0.000 A 
ATOM      3  N   UNL     1       1.877   7.617  21.205  0.00  0.00    +0.000 N 
ATOM      4  CA  UNL     1       1.165   8.781  21.340  0.00  0.00    +0.000 A 
ATOM      5  C   UNL     1       0.757   9.162  20.048  0.00  0.00    +0.000 A 
ATOM      6  H   UNL     1       2.328   7.243  22.027  0.00  0.00    +0.000 HD
ENDROOT
BRANCH   2   7
ATOM      7  C   UNL     1       2.761   5.817  19.793  0.00  0.00    +0.000 A 
ATOM      8  C   UNL     1       2.213   4.682  20.467  0.00  0.00    +0.000 A 
ATOM      9  C   UNL     1       2.872   3.476  20.642  0.00  0.00    +0.000 A 
ATOM     10  C   UNL     1       3.836   3.124  19.734  0.00  0.00    +0.000 A 
ATOM     11  C   UNL     1       4.540   4.225  19.247  0.00  0.00    +0.000 A 
ATOM     12  N   UNL     1       5.786   4.188  18.677  0.00  0.00    +0.000 N 
ATOM     13  C   UNL     1       5.878   5.241  17.819  0.00  0.00    +0.000 A 
ATOM     14  C   UNL     1       4.833   6.096  18.103  0.00  0.00    +0.000 A 
ATOM     15  C   UNL     1       3.990   5.522  19.116  0.00  0.00    +0.000 A 
ATOM     16  H   UNL     1       6.417   3.397  18.746  0.00  0.00    +0.000 HD
ENDBRANCH   2   7
BRANCH   5  17
ATOM     17  C   UNL     1      -0.260  10.294  19.834  0.00  0.00    +0.000 A 
ATOM     18  C   UNL     1      -0.083  11.432  20.681  0.00  0.00    +0.000 A 
ATOM     19  C   UNL     1      -0.735  12.653  20.527  0.00  0.00    +0.000 A 
ATOM     20  C   UNL     1      -1.761  12.782  19.622  0.00  0.00    +0.000 A 
ATOM     21  C   UNL     1      -2.152  11.625  18.946  0.00  0.00    +0.000 A 
ATOM     22  C   UNL     1      -1.419  10.400  18.965  0.00  0.00    +0.000 A 
ATOM     23  C   UNL     1      -2.133   9.586  18.023  0.00  0.00    +0.000 A 
ATOM     24  C   UNL     1      -3.290  10.223  17.621  0.00  0.00    +0.000 A 
ATOM     25  N   UNL     1      -3.309  11.459  18.196  0.00  0.00    +0.000 N 
BRANCH  25  26
ATOM     26  C   UNL     1      -4.456  12.360  18.194  0.00  0.00    +0.000 C 
ATOM     27  C   UNL     1      -5.713  11.848  17.491  0.00  0.00    +0.000 C 
ENDBRANCH  25  26
ENDBRANCH   5  17
BRANCH   1  29
ATOM     28  C   UNL     1       2.369   9.898  17.541  0.00  0.00    +0.000 C 
ATOM     29  C   UNL     1       1.918   8.459  17.739  0.00  0.00    +0.000 C 
ENDBRANCH   1  29
BRANCH   4  30
ATOM     30  C   UNL     1       1.087   9.173  22.744  0.00  0.00    +0.000 C 
ATOM     31  O   UNL     1       0.018   9.271  23.339  0.00  0.00    +0.000 OA
BRANCH  30  32
ATOM     32  OXT UNL     1       2.248   9.327  23.411  0.00  0.00    +0.000 OA
ATOM     33  HXT UNL     1       2.886   8.665  23.133  0.00  0.00    +0.000 HD
ENDBRANCH  30  32
ENDBRANCH   4  30
TORSDOF 6
ENDMDL
MODEL 7
REMARK VINA RESULT:      -7.9      1.736      2.104
REMARK  Name = 
REMARK  8 active torsions:
REMARK  status: ('A' for Active; 'I' for Inactive)
REMARK    1  A    between atoms: C_1  and  C_2
REMARK    2  A    between atoms: C_2  and  C_3
REMARK    3  A    between atoms: C_4  and  C_5
REMARK    4  A    between atoms: CA_15  and  C_16
REMARK    5  A    between atoms: C_16  and  OXT_18
REMARK    6  A    between atoms: C_19  and  C_20
REMARK    7  A    between atoms: N_28  and  C_29
REMARK    8  A    between atoms: C_29  and  C_30
REMARK                            x       y       z     vdW  Elec       q    Type
REMARK                         _______ _______ _______ _____ _____    ______ ____
ROOT
ATOM      1  C   UNL     1       1.314   8.851  19.194  0.00  0.00    +0.000 A 
ATOM      2  C   UNL     1       1.744   7.652  19.819  0.00  0.00    +0.000 A 
ATOM      3  N   UNL     1       1.491   7.936  21.137  0.00  0.00    +0.000 N 
ATOM      4  CA  UNL     1       0.721   9.045  21.378  0.00  0.00    +0.000 A 
ATOM      5  C   UNL     1       0.419   9.612  20.126  0.00  0.00    +0.000 A 
ATOM      6  H   UNL     1       1.879   7.450  21.931  0.00  0.00    +0.000 HD
ENDROOT
BRANCH   2   7
ATOM      7  C   UNL     1       2.575   6.403  19.559  0.00  0.00    +0.000 A 
ATOM      8  C   UNL     1       2.248   5.248  20.335  0.00  0.00    +0.000 A 
ATOM      9  C   UNL     1       3.021   4.099  20.400  0.00  0.00    +0.000 A 
ATOM     10  C   UNL     1       3.829   3.797  19.335  0.00  0.00    +0.000 A 
ATOM     11  C   UNL     1       4.345   4.936  18.716  0.00  0.00    +0.000 A 
ATOM     12  N   UNL     1       5.466   4.978  17.928  0.00  0.00    +0.000 N 
ATOM     13  C   UNL     1       5.318   6.012  17.057  0.00  0.00    +0.000 A 
ATOM     14  C   UNL     1       4.277   6.793  17.516  0.00  0.00    +0.000 A 
ATOM     15  C   UNL     1       3.680   6.184  18.672  0.00  0.00    +0.000 A 
ATOM     16  H   UNL     1       6.159   4.238  17.890  0.00  0.00    +0.000 HD
ENDBRANCH   2   7
BRANCH   5  17
ATOM     17  C   UNL     1      -0.620  10.736  19.989  0.00  0.00    +0.000 A 
ATOM     18  C   UNL     1      -1.456  10.647  18.832  0.00  0.00    +0.000 A 
ATOM     19  C   UNL     1      -2.595  11.416  18.608  0.00  0.00    +0.000 A 
ATOM     20  C   UNL     1      -2.894  12.471  19.436  0.00  0.00    +0.000 A 
ATOM     21  C   UNL     1      -1.967  12.767  20.437  0.00  0.00    +0.000 A 
ATOM     22  C   UNL     1      -0.873  11.921  20.790  0.00  0.00    +0.000 A 
ATOM     23  C   UNL     1      -0.320  12.577  21.941  0.00  0.00    +0.000 A 
ATOM     24  C   UNL     1      -0.933  13.799  22.135  0.00  0.00    +0.000 A 
ATOM     25  N   UNL     1      -1.925  13.921  21.208  0.00  0.00    +0.000 N 
BRANCH  25  26
ATOM     26  C   UNL     1      -2.667  15.148  20.941  0.00  0.00    +0.000 C 
ATOM     27  C   UNL     1      -4.005  15.298  21.665  0.00  0.00    +0.000 C 
ENDBRANCH  25  26
ENDBRANCH   5  17
BRANCH   1  29
ATOM     28  C   UNL     1       2.269  10.759  17.942  0.00  0.00    +0.000 C 
ATOM     29  C   UNL     1       1.816   9.309  17.861  0.00  0.00    +0.000 C 
ENDBRANCH   1  29
BRANCH   4  30
ATOM     30  C   UNL     1       0.498   9.212  22.811  0.00  0.00    +0.000 C 
ATOM     31  O   UNL     1       1.401   9.520  23.584  0.00  0.00    +0.000 OA
BRANCH  30  32
ATOM     32  OXT UNL     1      -0.771   9.118  23.257  0.00  0.00    +0.000 OA
ATOM     33  HXT UNL     1      -1.388   9.386  22.573  0.00  0.00    +0.000 HD
ENDBRANCH  30  32
ENDBRANCH   4  30
TORSDOF 6
ENDMDL
MODEL 8
REMARK VINA RESULT:      -7.8      1.110      1.921
REMARK  Name = 
REMARK  8 active torsions:
REMARK  status: ('A' for Active; 'I' for Inactive)
REMARK    1  A    between atoms: C_1  and  C_2
REMARK    2  A    between atoms: C_2  and  C_3
REMARK    3  A    between atoms: C_4  and  C_5
REMARK    4  A    between atoms: CA_15  and  C_16
REMARK    5  A    between atoms: C_16  and  OXT_18
REMARK    6  A    between atoms: C_19  and  C_20
REMARK    7  A    between atoms: N_28  and  C_29
REMARK    8  A    between atoms: C_29  and  C_30
REMARK                            x       y       z     vdW  Elec       q    Type
REMARK                         _______ _______ _______ _____ _____    ______ ____
ROOT
ATOM      1  C   UNL     1       1.552   8.467  19.186  0.00  0.00    +0.000 A 
ATOM      2  C   UNL     1       1.950   7.308  19.901  0.00  0.00    +0.000 A 
ATOM      3  N   UNL     1       1.823   7.742  21.197  0.00  0.00    +0.000 N 
ATOM      4  CA  UNL     1       1.153   8.924  21.374  0.00  0.00    +0.000 A 
ATOM      5  C   UNL     1       0.789   9.384  20.095  0.00  0.00    +0.000 A 
ATOM      6  H   UNL     1       2.241   7.310  22.007  0.00  0.00    +0.000 HD
ENDROOT
BRANCH   2   7
ATOM      7  C   UNL     1       2.670   5.980  19.715  0.00  0.00    +0.000 A 
ATOM      8  C   UNL     1       3.995   6.042  19.184  0.00  0.00    +0.000 A 
ATOM      9  C   UNL     1       4.719   4.946  18.743  0.00  0.00    +0.000 A 
ATOM     10  C   UNL     1       4.433   3.718  19.281  0.00  0.00    +0.000 A 
ATOM     11  C   UNL     1       3.080   3.569  19.584  0.00  0.00    +0.000 A 
ATOM     12  N   UNL     1       2.421   2.376  19.731  0.00  0.00    +0.000 N 
ATOM     13  C   UNL     1       1.374   2.585  20.575  0.00  0.00    +0.000 A 
ATOM     14  C   UNL     1       1.198   3.949  20.683  0.00  0.00    +0.000 A 
ATOM     15  C   UNL     1       2.229   4.636  19.955  0.00  0.00    +0.000 A 
ATOM     16  H   UNL     1       2.791   1.483  19.422  0.00  0.00    +0.000 HD
ENDBRANCH   2   7
BRANCH   5  17
ATOM     17  C   UNL     1      -0.178  10.564  19.916  0.00  0.00    +0.000 A 
ATOM     18  C   UNL     1      -1.164  10.387  18.895  0.00  0.00    +0.000 A 
ATOM     19  C   UNL     1      -2.267  11.213  18.697  0.00  0.00    +0.000 A 
ATOM     20  C   UNL     1      -2.381  12.396  19.386  0.00  0.00    +0.000 A 
ATOM     21  C   UNL     1      -1.311  12.748  20.211  0.00  0.00    +0.000 A 
ATOM     22  C   UNL     1      -0.241  11.867  20.553  0.00  0.00    +0.000 A 
ATOM     23  C   UNL     1       0.503  12.628  21.517  0.00  0.00    +0.000 A 
ATOM     24  C   UNL     1       0.007  13.915  21.597  0.00  0.00    +0.000 A 
ATOM     25  N   UNL     1      -1.089  13.991  20.789  0.00  0.00    +0.000 N 
BRANCH  25  26
ATOM     26  C   UNL     1      -1.773  15.228  20.431  0.00  0.00    +0.000 C 
ATOM     27  C   UNL     1      -0.960  16.239  19.625  0.00  0.00    +0.000 C 
ENDBRANCH  25  26
ENDBRANCH   5  17
BRANCH   1  29
ATOM     28  C   UNL     1       2.432  10.195  17.649  0.00  0.00    +0.000 C 
ATOM     29  C   UNL     1       1.975   8.750  17.778  0.00  0.00    +0.000 C 
ENDBRANCH   1  29
BRANCH   4  30
ATOM     30  C   UNL     1       1.058   9.250  22.794  0.00  0.00    +0.000 C 
ATOM     31  O   UNL     1      -0.020   9.372  23.369  0.00  0.00    +0.000 OA
BRANCH  30  32
ATOM     32  OXT UNL     1       2.208   9.312  23.495  0.00  0.00    +0.000 OA
ATOM     33  HXT UNL     1       2.305   8.537  24.053  0.00  0.00    +0.000 HD
ENDBRANCH  30  32
ENDBRANCH   4  30
TORSDOF 6
ENDMDL
MODEL 9
REMARK VINA RESULT:      -7.6      2.689      7.953
REMARK  Name = 
REMARK  8 active torsions:
REMARK  status: ('A' for Active; 'I' for Inactive)
REMARK    1  A    between atoms: C_1  and  C_2
REMARK    2  A    between atoms: C_2  and  C_3
REMARK    3  A    between atoms: C_4  and  C_5
REMARK    4  A    between atoms: CA_15  and  C_16
REMARK    5  A    between atoms: C_16  and  OXT_18
REMARK    6  A    between atoms: C_19  and  C_20
REMARK    7  A    between atoms: N_28  and  C_29
REMARK    8  A    between atoms: C_29  and  C_30
REMARK                            x       y       z     vdW  Elec       q    Type
REMARK                         _______ _______ _______ _____ _____    ______ ____
ROOT
ATOM      1  C   UNL     1       1.756   7.513  19.004  0.00  0.00    +0.000 A 
ATOM      2  C   UNL     1       1.252   7.844  20.289  0.00  0.00    +0.000 A 
ATOM      3  N   UNL     1       1.168   6.603  20.867  0.00  0.00    +0.000 N 
ATOM      4  CA  UNL     1       1.799   5.584  20.201  0.00  0.00    +0.000 A 
ATOM      5  C   UNL     1       2.362   6.142  19.038  0.00  0.00    +0.000 A 
ATOM      6  H   UNL     1       0.627   6.368  21.685  0.00  0.00    +0.000 HD
ENDROOT
BRANCH   2   7
ATOM      7  C   UNL     1       0.574   8.975  21.049  0.00  0.00    +0.000 A 
ATOM      8  C   UNL     1       0.648   8.919  22.475  0.00  0.00    +0.000 A 
ATOM      9  C   UNL     1      -0.084   9.724  23.334  0.00  0.00    +0.000 A 
ATOM     10  C   UNL     1      -0.494  10.952  22.885  0.00  0.00    +0.000 A 
ATOM     11  C   UNL     1      -0.797  10.949  21.523  0.00  0.00    +0.000 A 
ATOM     12  N   UNL     1      -1.599  11.856  20.882  0.00  0.00    +0.000 N 
ATOM     13  C   UNL     1      -1.191  11.922  19.585  0.00  0.00    +0.000 A 
ATOM     14  C   UNL     1      -0.372  10.836  19.355  0.00  0.00    +0.000 A 
ATOM     15  C   UNL     1      -0.176  10.102  20.575  0.00  0.00    +0.000 A 
ATOM     16  H   UNL     1      -2.228  12.493  21.359  0.00  0.00    +0.000 HD
ENDBRANCH   2   7
BRANCH   5  17
ATOM     17  C   UNL     1       3.342   5.345  18.165  0.00  0.00    +0.000 A 
ATOM     18  C   UNL     1       3.459   3.959  18.498  0.00  0.00    +0.000 A 
ATOM     19  C   UNL     1       4.110   3.002  17.724  0.00  0.00    +0.000 A 
ATOM     20  C   UNL     1       4.862   3.382  16.640  0.00  0.00    +0.000 A 
ATOM     21  C   UNL     1       4.997   4.754  16.417  0.00  0.00    +0.000 A 
ATOM     22  C   UNL     1       4.232   5.753  17.091  0.00  0.00    +0.000 A 
ATOM     23  C   UNL     1       4.624   6.961  16.422  0.00  0.00    +0.000 A 
ATOM     24  C   UNL     1       5.664   6.709  15.550  0.00  0.00    +0.000 A 
ATOM     25  N   UNL     1       5.901   5.366  15.560  0.00  0.00    +0.000 N 
BRANCH  25  26
ATOM     26  C   UNL     1       7.053   4.721  14.938  0.00  0.00    +0.000 C 
ATOM     27  C   UNL     1       6.827   4.139  13.543  0.00  0.00    +0.000 C 
ENDBRANCH  25  26
ENDBRANCH   5  17
BRANCH   1  29
ATOM     28  C   UNL     1       2.472   9.595  17.875  0.00  0.00    +0.000 C 
ATOM     29  C   UNL     1       1.563   8.378  17.798  0.00  0.00    +0.000 C 
ENDBRANCH   1  29
BRANCH   4  30
ATOM     30  C   UNL     1       1.664   4.330  20.938  0.00  0.00    +0.000 C 
ATOM     31  O   UNL     1       2.401   4.038  21.875  0.00  0.00    +0.000 OA
BRANCH  30  32
ATOM     32  OXT UNL     1       0.622   3.534  20.625  0.00  0.00    +0.000 OA
ATOM     33  HXT UNL     1       0.227   3.168  21.419  0.00  0.00    +0.000 HD
ENDBRANCH  30  32
ENDBRANCH   4  30
TORSDOF 6
ENDMDL
