MODEL 1
REMARK VINA RESULT:      -6.7      0.000      0.000
REMARK  Name = 
REMARK  3 active torsions:
REMARK  status: ('A' for Active; 'I' for Inactive)
REMARK    1  A    between atoms: N_12  and  C_13
REMARK    2  A    between atoms: C_13  and  C_14
REMARK    3  A    between atoms: C_14  and  N_15
REMARK                            x       y       z     vdW  Elec       q    Type
REMARK                         _______ _______ _______ _____ _____    ______ ____
ROOT
ATOM      1  O   UNL     1       2.082   4.889  21.203  0.00  0.00    +0.000 OA
ATOM      2  C   UNL     1       2.265   5.637  20.258  0.00  0.00    +0.000 A 
ATOM      3  C   UNL     1       1.781   7.030  20.252  0.00  0.00    +0.000 A 
ATOM      4  C   UNL     1       1.121   7.667  21.292  0.00  0.00    +0.000 A 
ATOM      5  C   UNL     1       0.746   9.002  21.114  0.00  0.00    +0.000 A 
ATOM      6 CL   UNL     1      -0.074   9.784  22.418  0.00  0.00    +0.000 Cl
ATOM      7  C   UNL     1       1.038   9.670  19.905  0.00  0.00    +0.000 A 
ATOM      8 CL   UNL     1       0.608  11.322  19.638  0.00  0.00    +0.000 Cl
ATOM      9  C   UNL     1       1.698   9.004  18.865  0.00  0.00    +0.000 A 
ATOM     10  C   UNL     1       2.061   7.682  19.055  0.00  0.00    +0.000 A 
ATOM     11  S   UNL     1       2.880   6.624  17.906  0.00  0.00    +0.000 S 
ATOM     12  N   UNL     1       2.916   5.358  19.065  0.00  0.00    +0.000 N 
ENDROOT
BRANCH  12  13
ATOM     13  C   UNL     1       3.393   4.035  18.699  0.00  0.00    +0.000 C 
BRANCH  13  14
ATOM     14  C   UNL     1       4.740   3.682  19.363  0.00  0.00    +0.000 C 
BRANCH  14  15
ATOM     15  N   UNL     1       5.932   4.222  18.680  0.00  0.00    +0.000 NA
ATOM     16  C   UNL     1       5.714   4.409  17.237  0.00  0.00    +0.000 C 
ATOM     17  C   UNL     1       6.996   4.886  16.555  0.00  0.00    +0.000 C 
ATOM     18  C   UNL     1       7.508   6.179  17.177  0.00  0.00    +0.000 C 
ATOM     19  C   UNL     1       7.615   6.043  18.691  0.00  0.00    +0.000 C 
ATOM     20  C   UNL     1       6.321   5.502  19.302  0.00  0.00    +0.000 C 
ENDBRANCH  14  15
ENDBRANCH  13  14
ENDBRANCH  12  13
TORSDOF 3
ENDMDL
MODEL 2
REMARK VINA RESULT:      -6.7      5.017      7.363
REMARK  Name = 
REMARK  3 active torsions:
REMARK  status: ('A' for Active; 'I' for Inactive)
REMARK    1  A    between atoms: N_12  and  C_13
REMARK    2  A    between atoms: C_13  and  C_14
REMARK    3  A    between atoms: C_14  and  N_15
REMARK                            x       y       z     vdW  Elec       q    Type
REMARK                         _______ _______ _______ _____ _____    ______ ____
ROOT
ATOM      1  O   UNL     1       4.095   3.200  17.129  0.00  0.00    +0.000 OA
ATOM      2  C   UNL     1       5.006   3.980  16.909  0.00  0.00    +0.000 A 
ATOM      3  C   UNL     1       5.611   4.126  15.572  0.00  0.00    +0.000 A 
ATOM      4  C   UNL     1       5.214   3.460  14.422  0.00  0.00    +0.000 A 
ATOM      5  C   UNL     1       5.898   3.736  13.234  0.00  0.00    +0.000 A 
ATOM      6 CL   UNL     1       5.392   2.902  11.808  0.00  0.00    +0.000 Cl
ATOM      7  C   UNL     1       6.958   4.668  13.220  0.00  0.00    +0.000 A 
ATOM      8 CL   UNL     1       7.827   5.054  11.777  0.00  0.00    +0.000 Cl
ATOM      9  C   UNL     1       7.346   5.321  14.395  0.00  0.00    +0.000 A 
ATOM     10  C   UNL     1       6.663   5.037  15.564  0.00  0.00    +0.000 A 
ATOM     11  S   UNL     1       6.964   5.707  17.168  0.00  0.00    +0.000 S 
ATOM     12  N   UNL     1       5.632   4.834  17.806  0.00  0.00    +0.000 N 
ENDROOT
BRANCH  12  13
ATOM     13  C   UNL     1       5.362   4.838  19.235  0.00  0.00    +0.000 C 
BRANCH  13  14
ATOM     14  C   UNL     1       4.087   5.626  19.599  0.00  0.00    +0.000 C 
BRANCH  14  15
ATOM     15  N   UNL     1       3.029   4.830  20.253  0.00  0.00    +0.000 NA
ATOM     16  C   UNL     1       1.841   4.668  19.400  0.00  0.00    +0.000 C 
ATOM     17  C   UNL     1       0.740   3.915  20.147  0.00  0.00    +0.000 C 
ATOM     18  C   UNL     1       1.226   2.554  20.627  0.00  0.00    +0.000 C 
ATOM     19  C   UNL     1       2.530   2.691  21.402  0.00  0.00    +0.000 C 
ATOM     20  C   UNL     1       3.565   3.508  20.627  0.00  0.00    +0.000 C 
ENDBRANCH  14  15
ENDBRANCH  13  14
ENDBRANCH  12  13
TORSDOF 3
ENDMDL
MODEL 3
REMARK VINA RESULT:      -6.7      2.553      3.670
REMARK  Name = 
REMARK  3 active torsions:
REMARK  status: ('A' for Active; 'I' for Inactive)
REMARK    1  A    between atoms: N_12  and  C_13
REMARK    2  A    between atoms: C_13  and  C_14
REMARK    3  A    between atoms: C_14  and  N_15
REMARK                            x       y       z     vdW  Elec       q    Type
REMARK                         _______ _______ _______ _____ _____    ______ ____
ROOT
ATOM      1  O   UNL     1       1.976   9.470  17.387  0.00  0.00    +0.000 OA
ATOM      2  C   UNL     1       1.798   8.913  18.456  0.00  0.00    +0.000 A 
ATOM      3  C   UNL     1       1.019   9.531  19.545  0.00  0.00    +0.000 A 
ATOM      4  C   UNL     1       0.373  10.757  19.489  0.00  0.00    +0.000 A 
ATOM      5  C   UNL     1      -0.334  11.180  20.619  0.00  0.00    +0.000 A 
ATOM      6 CL   UNL     1      -1.136  12.708  20.535  0.00  0.00    +0.000 Cl
ATOM      7  C   UNL     1      -0.380  10.373  21.776  0.00  0.00    +0.000 A 
ATOM      8 CL   UNL     1      -1.248  10.843  23.194  0.00  0.00    +0.000 Cl
ATOM      9  C   UNL     1       0.288   9.143  21.812  0.00  0.00    +0.000 A 
ATOM     10  C   UNL     1       0.985   8.738  20.688  0.00  0.00    +0.000 A 
ATOM     11  S   UNL     1       1.914   7.252  20.484  0.00  0.00    +0.000 S 
ATOM     12  N   UNL     1       2.261   7.667  18.855  0.00  0.00    +0.000 N 
ENDROOT
BRANCH  12  13
ATOM     13  C   UNL     1       3.172   6.856  18.065  0.00  0.00    +0.000 C 
BRANCH  13  14
ATOM     14  C   UNL     1       3.984   5.863  18.923  0.00  0.00    +0.000 C 
BRANCH  14  15
ATOM     15  N   UNL     1       3.490   4.472  18.900  0.00  0.00    +0.000 NA
ATOM     16  C   UNL     1       3.016   4.068  17.567  0.00  0.00    +0.000 C 
ATOM     17  C   UNL     1       2.434   2.654  17.607  0.00  0.00    +0.000 C 
ATOM     18  C   UNL     1       3.454   1.649  18.125  0.00  0.00    +0.000 C 
ATOM     19  C   UNL     1       4.053   2.120  19.445  0.00  0.00    +0.000 C 
ATOM     20  C   UNL     1       4.557   3.560  19.353  0.00  0.00    +0.000 C 
ENDBRANCH  14  15
ENDBRANCH  13  14
ENDBRANCH  12  13
TORSDOF 3
ENDMDL
MODEL 4
REMARK VINA RESULT:      -6.7      2.064      2.838
REMARK  Name = 
REMARK  3 active torsions:
REMARK  status: ('A' for Active; 'I' for Inactive)
REMARK    1  A    between atoms: N_12  and  C_13
REMARK    2  A    between atoms: C_13  and  C_14
REMARK    3  A    between atoms: C_14  and  N_15
REMARK                            x       y       z     vdW  Elec       q    Type
REMARK                         _______ _______ _______ _____ _____    ______ ____
ROOT
ATOM      1  O   UNL     1       2.052   9.362  17.350  0.00  0.00    +0.000 OA
ATOM      2  C   UNL     1       1.862   8.795  18.413  0.00  0.00    +0.000 A 
ATOM      3  C   UNL     1       1.102   9.418  19.512  0.00  0.00    +0.000 A 
ATOM      4  C   UNL     1       0.487  10.660  19.475  0.00  0.00    +0.000 A 
ATOM      5  C   UNL     1      -0.205  11.086  20.613  0.00  0.00    +0.000 A 
ATOM      6 CL   UNL     1      -0.969  12.634  20.552  0.00  0.00    +0.000 Cl
ATOM      7  C   UNL     1      -0.268  10.264  21.759  0.00  0.00    +0.000 A 
ATOM      8 CL   UNL     1      -1.120  10.737  23.186  0.00  0.00    +0.000 Cl
ATOM      9  C   UNL     1       0.369   9.018  21.776  0.00  0.00    +0.000 A 
ATOM     10  C   UNL     1       1.052   8.610  20.644  0.00  0.00    +0.000 A 
ATOM     11  S   UNL     1       1.942   7.105  20.418  0.00  0.00    +0.000 S 
ATOM     12  N   UNL     1       2.295   7.532  18.794  0.00  0.00    +0.000 N 
ENDROOT
BRANCH  12  13
ATOM     13  C   UNL     1       3.183   6.710  17.989  0.00  0.00    +0.000 C 
BRANCH  13  14
ATOM     14  C   UNL     1       4.072   5.781  18.843  0.00  0.00    +0.000 C 
BRANCH  14  15
ATOM     15  N   UNL     1       5.055   4.986  18.080  0.00  0.00    +0.000 NA
ATOM     16  C   UNL     1       4.773   4.984  16.635  0.00  0.00    +0.000 C 
ATOM     17  C   UNL     1       5.760   4.081  15.895  0.00  0.00    +0.000 C 
ATOM     18  C   UNL     1       7.200   4.510  16.145  0.00  0.00    +0.000 C 
ATOM     19  C   UNL     1       7.470   4.645  17.639  0.00  0.00    +0.000 C 
ATOM     20  C   UNL     1       6.412   5.507  18.328  0.00  0.00    +0.000 C 
ENDBRANCH  14  15
ENDBRANCH  13  14
ENDBRANCH  12  13
TORSDOF 3
ENDMDL
MODEL 5
REMARK VINA RESULT:      -6.6      1.345      2.013
REMARK  Name = 
REMARK  3 active torsions:
REMARK  status: ('A' for Active; 'I' for Inactive)
REMARK    1  A    between atoms: N_12  and  C_13
REMARK    2  A    between atoms: C_13  and  C_14
REMARK    3  A    between atoms: C_14  and  N_15
REMARK                            x       y       z     vdW  Elec       q    Type
REMARK                         _______ _______ _______ _____ _____    ______ ____
ROOT
ATOM      1  O   UNL     1       3.346   6.359  17.212  0.00  0.00    +0.000 OA
ATOM      2  C   UNL     1       2.847   6.205  18.313  0.00  0.00    +0.000 A 
ATOM      3  C   UNL     1       2.196   7.310  19.042  0.00  0.00    +0.000 A 
ATOM      4  C   UNL     1       2.030   8.606  18.577  0.00  0.00    +0.000 A 
ATOM      5  C   UNL     1       1.374   9.522  19.405  0.00  0.00    +0.000 A 
ATOM      6 CL   UNL     1       1.171  11.132  18.812  0.00  0.00    +0.000 Cl
ATOM      7  C   UNL     1       0.899   9.126  20.673  0.00  0.00    +0.000 A 
ATOM      8 CL   UNL     1       0.072  10.215  21.729  0.00  0.00    +0.000 Cl
ATOM      9  C   UNL     1       1.087   7.815  21.125  0.00  0.00    +0.000 A 
ATOM     10  C   UNL     1       1.740   6.919  20.297  0.00  0.00    +0.000 A 
ATOM     11  S   UNL     1       2.112   5.228  20.635  0.00  0.00    +0.000 S 
ATOM     12  N   UNL     1       2.791   5.043  19.069  0.00  0.00    +0.000 N 
ENDROOT
BRANCH  12  13
ATOM     13  C   UNL     1       3.458   3.807  18.695  0.00  0.00    +0.000 C 
BRANCH  13  14
ATOM     14  C   UNL     1       4.794   3.602  19.440  0.00  0.00    +0.000 C 
BRANCH  14  15
ATOM     15  N   UNL     1       5.978   4.163  18.760  0.00  0.00    +0.000 NA
ATOM     16  C   UNL     1       5.795   4.259  17.303  0.00  0.00    +0.000 C 
ATOM     17  C   UNL     1       7.072   4.762  16.630  0.00  0.00    +0.000 C 
ATOM     18  C   UNL     1       7.502   6.111  17.192  0.00  0.00    +0.000 C 
ATOM     19  C   UNL     1       7.569   6.064  18.714  0.00  0.00    +0.000 C 
ATOM     20  C   UNL     1       6.286   5.493  19.318  0.00  0.00    +0.000 C 
ENDBRANCH  14  15
ENDBRANCH  13  14
ENDBRANCH  12  13
TORSDOF 3
ENDMDL
MODEL 6
REMARK VINA RESULT:      -6.6      4.992      7.429
REMARK  Name = 
REMARK  3 active torsions:
REMARK  status: ('A' for Active; 'I' for Inactive)
REMARK    1  A    between atoms: N_12  and  C_13
REMARK    2  A    between atoms: C_13  and  C_14
REMARK    3  A    between atoms: C_14  and  N_15
REMARK                            x       y       z     vdW  Elec       q    Type
REMARK                         _______ _______ _______ _____ _____    ______ ____
ROOT
ATOM      1  O   UNL     1       7.382   6.200  17.775  0.00  0.00    +0.000 OA
ATOM      2  C   UNL     1       6.599   5.365  17.356  0.00  0.00    +0.000 A 
ATOM      3  C   UNL     1       6.563   4.962  15.938  0.00  0.00    +0.000 A 
ATOM      4  C   UNL     1       7.408   5.423  14.940  0.00  0.00    +0.000 A 
ATOM      5  C   UNL     1       7.236   4.916  13.647  0.00  0.00    +0.000 A 
ATOM      6 CL   UNL     1       8.296   5.497  12.413  0.00  0.00    +0.000 Cl
ATOM      7  C   UNL     1       6.228   3.965  13.382  0.00  0.00    +0.000 A 
ATOM      8 CL   UNL     1       5.980   3.299  11.807  0.00  0.00    +0.000 Cl
ATOM      9  C   UNL     1       5.381   3.521  14.405  0.00  0.00    +0.000 A 
ATOM     10  C   UNL     1       5.561   4.032  15.678  0.00  0.00    +0.000 A 
ATOM     11  S   UNL     1       4.626   3.651  17.124  0.00  0.00    +0.000 S 
ATOM     12  N   UNL     1       5.635   4.667  18.070  0.00  0.00    +0.000 N 
ENDROOT
BRANCH  12  13
ATOM     13  C   UNL     1       5.321   4.928  19.465  0.00  0.00    +0.000 C 
BRANCH  13  14
ATOM     14  C   UNL     1       3.964   5.641  19.647  0.00  0.00    +0.000 C 
BRANCH  14  15
ATOM     15  N   UNL     1       2.921   4.834  20.310  0.00  0.00    +0.000 NA
ATOM     16  C   UNL     1       1.738   4.637  19.458  0.00  0.00    +0.000 C 
ATOM     17  C   UNL     1       0.650   3.873  20.213  0.00  0.00    +0.000 C 
ATOM     18  C   UNL     1       1.162   2.529  20.713  0.00  0.00    +0.000 C 
ATOM     19  C   UNL     1       2.462   2.702  21.489  0.00  0.00    +0.000 C 
ATOM     20  C   UNL     1       3.481   3.528  20.704  0.00  0.00    +0.000 C 
ENDBRANCH  14  15
ENDBRANCH  13  14
ENDBRANCH  12  13
TORSDOF 3
ENDMDL
MODEL 7
REMARK VINA RESULT:      -6.6      2.952      3.988
REMARK  Name = 
REMARK  3 active torsions:
REMARK  status: ('A' for Active; 'I' for Inactive)
REMARK    1  A    between atoms: N_12  and  C_13
REMARK    2  A    between atoms: C_13  and  C_14
REMARK    3  A    between atoms: C_14  and  N_15
REMARK                            x       y       z     vdW  Elec       q    Type
REMARK                         _______ _______ _______ _____ _____    ______ ____
ROOT
ATOM      1  O   UNL     1       4.810   6.981  15.933  0.00  0.00    +0.000 OA
ATOM      2  C   UNL     1       4.534   6.424  16.982  0.00  0.00    +0.000 A 
ATOM      3  C   UNL     1       3.556   6.982  17.935  0.00  0.00    +0.000 A 
ATOM      4  C   UNL     1       2.816   8.141  17.757  0.00  0.00    +0.000 A 
ATOM      5  C   UNL     1       1.922   8.512  18.766  0.00  0.00    +0.000 A 
ATOM      6 CL   UNL     1       1.005   9.957  18.531  0.00  0.00    +0.000 Cl
ATOM      7  C   UNL     1       1.787   7.720  19.926  0.00  0.00    +0.000 A 
ATOM      8 CL   UNL     1       0.689   8.126  21.197  0.00  0.00    +0.000 Cl
ATOM      9  C   UNL     1       2.551   6.558  20.088  0.00  0.00    +0.000 A 
ATOM     10  C   UNL     1       3.434   6.204  19.082  0.00  0.00    +0.000 A 
ATOM     11  S   UNL     1       4.513   4.809  19.050  0.00  0.00    +0.000 S 
ATOM     12  N   UNL     1       5.046   5.232  17.474  0.00  0.00    +0.000 N 
ENDROOT
BRANCH  12  13
ATOM     13  C   UNL     1       6.129   4.499  16.840  0.00  0.00    +0.000 C 
BRANCH  13  14
ATOM     14  C   UNL     1       5.655   3.657  15.637  0.00  0.00    +0.000 C 
BRANCH  14  15
ATOM     15  N   UNL     1       6.493   3.772  14.427  0.00  0.00    +0.000 NA
ATOM     16  C   UNL     1       5.737   3.498  13.194  0.00  0.00    +0.000 C 
ATOM     17  C   UNL     1       6.659   3.542  11.976  0.00  0.00    +0.000 C 
ATOM     18  C   UNL     1       7.369   4.885  11.865  0.00  0.00    +0.000 C 
ATOM     19  C   UNL     1       8.048   5.245  13.180  0.00  0.00    +0.000 C 
ATOM     20  C   UNL     1       7.089   5.119  14.364  0.00  0.00    +0.000 C 
ENDBRANCH  14  15
ENDBRANCH  13  14
ENDBRANCH  12  13
TORSDOF 3
ENDMDL
MODEL 8
REMARK VINA RESULT:      -6.6      1.388      1.695
REMARK  Name = 
REMARK  3 active torsions:
REMARK  status: ('A' for Active; 'I' for Inactive)
REMARK    1  A    between atoms: N_12  and  C_13
REMARK    2  A    between atoms: C_13  and  C_14
REMARK    3  A    between atoms: C_14  and  N_15
REMARK                            x       y       z     vdW  Elec       q    Type
REMARK                         _______ _______ _______ _____ _____    ______ ____
ROOT
ATOM      1  O   UNL     1       1.660   6.147  21.002  0.00  0.00    +0.000 OA
ATOM      2  C   UNL     1       1.735   7.080  20.222  0.00  0.00    +0.000 A 
ATOM      3  C   UNL     1       1.129   8.394  20.508  0.00  0.00    +0.000 A 
ATOM      4  C   UNL     1       0.460   8.747  21.671  0.00  0.00    +0.000 A 
ATOM      5  C   UNL     1      -0.039  10.049  21.773  0.00  0.00    +0.000 A 
ATOM      6 CL   UNL     1      -0.868  10.475  23.227  0.00  0.00    +0.000 Cl
ATOM      7  C   UNL     1       0.139  10.967  20.716  0.00  0.00    +0.000 A 
ATOM      8 CL   UNL     1      -0.447  12.590  20.796  0.00  0.00    +0.000 Cl
ATOM      9  C   UNL     1       0.810  10.586  19.548  0.00  0.00    +0.000 A 
ATOM     10  C   UNL     1       1.297   9.293  19.459  0.00  0.00    +0.000 A 
ATOM     11  S   UNL     1       2.157   8.567  18.102  0.00  0.00    +0.000 S 
ATOM     12  N   UNL     1       2.356   7.107  18.982  0.00  0.00    +0.000 N 
ENDROOT
BRANCH  12  13
ATOM     13  C   UNL     1       2.933   5.934  18.346  0.00  0.00    +0.000 C 
BRANCH  13  14
ATOM     14  C   UNL     1       4.287   5.526  18.964  0.00  0.00    +0.000 C 
BRANCH  14  15
ATOM     15  N   UNL     1       5.200   4.815  18.047  0.00  0.00    +0.000 NA
ATOM     16  C   UNL     1       4.775   4.916  16.642  0.00  0.00    +0.000 C 
ATOM     17  C   UNL     1       5.696   4.096  15.739  0.00  0.00    +0.000 C 
ATOM     18  C   UNL     1       7.147   4.539  15.877  0.00  0.00    +0.000 C 
ATOM     19  C   UNL     1       7.564   4.566  17.342  0.00  0.00    +0.000 C 
ATOM     20  C   UNL     1       6.568   5.348  18.199  0.00  0.00    +0.000 C 
ENDBRANCH  14  15
ENDBRANCH  13  14
ENDBRANCH  12  13
TORSDOF 3
ENDMDL
MODEL 9
REMARK VINA RESULT:      -6.6      3.005      4.346
REMARK  Name = 
REMARK  3 active torsions:
REMARK  status: ('A' for Active; 'I' for Inactive)
REMARK    1  A    between atoms: N_12  and  C_13
REMARK    2  A    between atoms: C_13  and  C_14
REMARK    3  A    between atoms: C_14  and  N_15
REMARK                            x       y       z     vdW  Elec       q    Type
REMARK                         _______ _______ _______ _____ _____    ______ ____
ROOT
ATOM      1  O   UNL     1       2.266   8.926  17.301  0.00  0.00    +0.000 OA
ATOM      2  C   UNL     1       1.867   8.771  18.442  0.00  0.00    +0.000 A 
ATOM      3  C   UNL     1       1.045   9.783  19.132  0.00  0.00    +0.000 A 
ATOM      4  C   UNL     1       0.596  10.976  18.587  0.00  0.00    +0.000 A 
ATOM      5  C   UNL     1      -0.188  11.811  19.389  0.00  0.00    +0.000 A 
ATOM      6 CL   UNL     1      -0.743  13.293  18.697  0.00  0.00    +0.000 Cl
ATOM      7  C   UNL     1      -0.505  11.438  20.712  0.00  0.00    +0.000 A 
ATOM      8 CL   UNL     1      -1.480  12.426  21.741  0.00  0.00    +0.000 Cl
ATOM      9  C   UNL     1      -0.032  10.232  21.244  0.00  0.00    +0.000 A 
ATOM     10  C   UNL     1       0.744   9.416  20.440  0.00  0.00    +0.000 A 
ATOM     11  S   UNL     1       1.469   7.867  20.873  0.00  0.00    +0.000 S 
ATOM     12  N   UNL     1       2.088   7.689  19.282  0.00  0.00    +0.000 N 
ENDROOT
BRANCH  12  13
ATOM     13  C   UNL     1       2.971   6.582  18.953  0.00  0.00    +0.000 C 
BRANCH  13  14
ATOM     14  C   UNL     1       2.221   5.387  18.326  0.00  0.00    +0.000 C 
BRANCH  14  15
ATOM     15  N   UNL     1       2.252   4.145  19.125  0.00  0.00    +0.000 NA
ATOM     16  C   UNL     1       3.586   3.870  19.681  0.00  0.00    +0.000 C 
ATOM     17  C   UNL     1       3.595   2.535  20.425  0.00  0.00    +0.000 C 
ATOM     18  C   UNL     1       2.551   2.511  21.535  0.00  0.00    +0.000 C 
ATOM     19  C   UNL     1       1.186   2.923  20.999  0.00  0.00    +0.000 C 
ATOM     20  C   UNL     1       1.260   4.232  20.212  0.00  0.00    +0.000 C 
ENDBRANCH  14  15
ENDBRANCH  13  14
ENDBRANCH  12  13
TORSDOF 3
ENDMDL
