MODEL 1
REMARK VINA RESULT:     -10.7      0.000      0.000
REMARK  Name = 
REMARK  4 active torsions:
REMARK  status: ('A' for Active; 'I' for Inactive)
REMARK    1  A    between atoms: C_1  and  N_2
REMARK    2  A    between atoms: C_13  and  C_14
REMARK    3  A    between atoms: N_20  and  C_21
REMARK    4  A    between atoms: C_21  and  C_22
REMARK                            x       y       z     vdW  Elec       q    Type
REMARK                         _______ _______ _______ _____ _____    ______ ____
ROOT
ATOM      1  C   UNL     1       2.191   5.897  20.313  0.00  0.00    +0.000 A 
ATOM      2  N   UNL     1       1.479   4.927  20.946  0.00  0.00    +0.000 NA
ATOM      3  C   UNL     1       1.937   3.635  20.951  0.00  0.00    +0.000 A 
ATOM      4  C   UNL     1       3.149   3.343  20.338  0.00  0.00    +0.000 A 
ATOM      5  N   UNL     1       3.907   2.218  20.095  0.00  0.00    +0.000 NA
ATOM      6  N   UNL     1       5.023   2.605  19.440  0.00  0.00    +0.000 NA
ATOM      7  N   UNL     1       4.947   3.960  19.251  0.00  0.00    +0.000 N 
ATOM      8  C   UNL     1       3.771   4.433  19.759  0.00  0.00    +0.000 A 
ATOM      9  N   UNL     1       3.357   5.708  19.685  0.00  0.00    +0.000 NA
ENDROOT
BRANCH   1  22
ATOM     10  C   UNL     1      -0.119  14.109  18.417  0.00  0.00    +0.000 C 
ATOM     11  N   UNL     1      -0.647  14.131  19.785  0.00  0.00    +0.000 NA
ATOM     12  C   UNL     1      -1.698  13.117  19.959  0.00  0.00    +0.000 C 
ATOM     13  C   UNL     1      -1.169  11.689  19.665  0.00  0.00    +0.000 C 
ATOM     14  C   UNL     1       0.085  11.353  20.545  0.00  0.00    +0.000 C 
ATOM     15  C   UNL     1       1.122  12.529  20.535  0.00  0.00    +0.000 C 
ATOM     16  C   UNL     1       0.425  13.895  20.765  0.00  0.00    +0.000 C 
ATOM     17  C   UNL     1      -0.391  11.128  22.018  0.00  0.00    +0.000 C 
ATOM     18  O   UNL     1      -0.957  11.922  22.752  0.00  0.00    +0.000 OA
ATOM     19  N   UNL     1      -0.069   9.834  22.395  0.00  0.00    +0.000 N 
ATOM     20  C   UNL     1       0.564   9.140  21.381  0.00  0.00    +0.000 A 
ATOM     21  C   UNL     1       1.023   7.825  21.440  0.00  0.00    +0.000 A 
ATOM     22  C   UNL     1       1.674   7.279  20.315  0.00  0.00    +0.000 A 
ATOM     23  C   UNL     1       1.805   8.112  19.179  0.00  0.00    +0.000 A 
ATOM     24  C   UNL     1       1.323   9.443  19.145  0.00  0.00    +0.000 A 
ATOM     25  C   UNL     1       0.696   9.968  20.262  0.00  0.00    +0.000 A 
ATOM     26  H   UNL     1      -0.286   9.482  23.315  0.00  0.00    +0.000 HD
ENDBRANCH   1  22
BRANCH   7  27
ATOM     27  C   UNL     1       5.896   4.847  18.563  0.00  0.00    +0.000 C 
BRANCH  27  28
ATOM     28  C   UNL     1       5.926   4.864  17.043  0.00  0.00    +0.000 A 
ATOM     29  C   UNL     1       4.877   4.109  16.499  0.00  0.00    +0.000 A 
ATOM     30  C   UNL     1       4.830   3.932  15.173  0.00  0.00    +0.000 A 
ATOM     31  C   UNL     1       5.880   4.376  14.473  0.00  0.00    +0.000 A 
ATOM     32  N   UNL     1       5.944   3.835  13.316  0.00  0.00    +0.000 NA
ATOM     33  C   UNL     1       5.934   3.260  12.187  0.00  0.00    +0.000 A 
ATOM     34  C   UNL     1       7.073   3.979  12.090  0.00  0.00    +0.000 A 
ATOM     35  C   UNL     1       7.730   4.959  13.276  0.00  0.00    +0.000 A 
ATOM     36  C   UNL     1       7.002   5.079  14.704  0.00  0.00    +0.000 A 
ATOM     37  C   UNL     1       6.876   5.518  16.151  0.00  0.00    +0.000 A 
ENDBRANCH  27  28
ENDBRANCH   7  27
TORSDOF 3
ENDMDL
MODEL 2
REMARK VINA RESULT:     -10.3      1.279      1.880
REMARK  Name = 
REMARK  4 active torsions:
REMARK  status: ('A' for Active; 'I' for Inactive)
REMARK    1  A    between atoms: C_1  and  N_2
REMARK    2  A    between atoms: C_13  and  C_14
REMARK    3  A    between atoms: N_20  and  C_21
REMARK    4  A    between atoms: C_21  and  C_22
REMARK                            x       y       z     vdW  Elec       q    Type
REMARK                         _______ _______ _______ _____ _____    ______ ____
ROOT
ATOM      1  C   UNL     1       2.156   6.080  20.292  0.00  0.00    +0.000 A 
ATOM      2  N   UNL     1       1.416   5.126  20.919  0.00  0.00    +0.000 NA
ATOM      3  C   UNL     1       1.840   3.823  20.920  0.00  0.00    +0.000 A 
ATOM      4  C   UNL     1       3.046   3.501  20.310  0.00  0.00    +0.000 A 
ATOM      5  N   UNL     1       3.774   2.357  20.065  0.00  0.00    +0.000 NA
ATOM      6  N   UNL     1       4.901   2.717  19.414  0.00  0.00    +0.000 NA
ATOM      7  N   UNL     1       4.862   4.073  19.231  0.00  0.00    +0.000 N 
ATOM      8  C   UNL     1       3.698   4.576  19.737  0.00  0.00    +0.000 A 
ATOM      9  N   UNL     1       3.319   5.862  19.666  0.00  0.00    +0.000 NA
ENDROOT
BRANCH   1  22
ATOM     10  C   UNL     1      -1.412  13.831  22.178  0.00  0.00    +0.000 C 
ATOM     11  N   UNL     1      -0.930  14.222  20.850  0.00  0.00    +0.000 NA
ATOM     12  C   UNL     1       0.535  14.112  20.768  0.00  0.00    +0.000 C 
ATOM     13  C   UNL     1       1.016  12.666  21.054  0.00  0.00    +0.000 C 
ATOM     14  C   UNL     1       0.324  11.635  20.096  0.00  0.00    +0.000 C 
ATOM     15  C   UNL     1      -1.222  11.884  20.012  0.00  0.00    +0.000 C 
ATOM     16  C   UNL     1      -1.540  13.387  19.803  0.00  0.00    +0.000 C 
ATOM     17  C   UNL     1       0.930  11.806  18.665  0.00  0.00    +0.000 C 
ATOM     18  O   UNL     1       0.909  12.799  17.955  0.00  0.00    +0.000 OA
ATOM     19  N   UNL     1       1.529  10.614  18.293  0.00  0.00    +0.000 N 
ATOM     20  C   UNL     1       1.417   9.646  19.274  0.00  0.00    +0.000 A 
ATOM     21  C   UNL     1       1.903   8.342  19.210  0.00  0.00    +0.000 A 
ATOM     22  C   UNL     1       1.676   7.475  20.298  0.00  0.00    +0.000 A 
ATOM     23  C   UNL     1       0.971   8.003  21.406  0.00  0.00    +0.000 A 
ATOM     24  C   UNL     1       0.493   9.335  21.446  0.00  0.00    +0.000 A 
ATOM     25  C   UNL     1       0.715  10.170  20.365  0.00  0.00    +0.000 A 
ATOM     26  H   UNL     1       1.980  10.506  17.397  0.00  0.00    +0.000 HD
ENDBRANCH   1  22
BRANCH   7  27
ATOM     27  C   UNL     1       5.837   4.937  18.548  0.00  0.00    +0.000 C 
BRANCH  27  28
ATOM     28  C   UNL     1       5.893   4.935  17.029  0.00  0.00    +0.000 A 
ATOM     29  C   UNL     1       4.868   4.154  16.477  0.00  0.00    +0.000 A 
ATOM     30  C   UNL     1       4.848   3.959  15.153  0.00  0.00    +0.000 A 
ATOM     31  C   UNL     1       5.902   4.412  14.465  0.00  0.00    +0.000 A 
ATOM     32  N   UNL     1       5.996   3.857  13.317  0.00  0.00    +0.000 NA
ATOM     33  C   UNL     1       6.017   3.267  12.196  0.00  0.00    +0.000 A 
ATOM     34  C   UNL     1       7.144   4.005  12.109  0.00  0.00    +0.000 A 
ATOM     35  C   UNL     1       7.762   5.013  13.294  0.00  0.00    +0.000 A 
ATOM     36  C   UNL     1       7.007   5.139  14.707  0.00  0.00    +0.000 A 
ATOM     37  C   UNL     1       6.847   5.595  16.145  0.00  0.00    +0.000 A 
ENDBRANCH  27  28
ENDBRANCH   7  27
TORSDOF 3
ENDMDL
MODEL 3
REMARK VINA RESULT:     -10.2      3.314     11.308
REMARK  Name = 
REMARK  4 active torsions:
REMARK  status: ('A' for Active; 'I' for Inactive)
REMARK    1  A    between atoms: C_1  and  N_2
REMARK    2  A    between atoms: C_13  and  C_14
REMARK    3  A    between atoms: N_20  and  C_21
REMARK    4  A    between atoms: C_21  and  C_22
REMARK                            x       y       z     vdW  Elec       q    Type
REMARK                         _______ _______ _______ _____ _____    ______ ____
ROOT
ATOM      1  C   UNL     1       1.545  10.341  19.020  0.00  0.00    +0.000 A 
ATOM      2  N   UNL     1       2.165  11.096  18.074  0.00  0.00    +0.000 NA
ATOM      3  C   UNL     1       1.915  12.441  18.001  0.00  0.00    +0.000 A 
ATOM      4  C   UNL     1       1.055  13.023  18.925  0.00  0.00    +0.000 A 
ATOM      5  N   UNL     1       0.530  14.275  19.159  0.00  0.00    +0.000 NA
ATOM      6  N   UNL     1      -0.263  14.192  20.250  0.00  0.00    +0.000 NA
ATOM      7  N   UNL     1      -0.254  12.890  20.674  0.00  0.00    +0.000 N 
ATOM      8  C   UNL     1       0.521  12.136  19.840  0.00  0.00    +0.000 A 
ATOM      9  N   UNL     1       0.693  10.809  19.939  0.00  0.00    +0.000 NA
ENDROOT
BRANCH   1  22
ATOM     10  C   UNL     1       3.630   2.020  17.351  0.00  0.00    +0.000 C 
ATOM     11  N   UNL     1       3.310   1.799  18.764  0.00  0.00    +0.000 NA
ATOM     12  C   UNL     1       4.190   2.595  19.634  0.00  0.00    +0.000 C 
ATOM     13  C   UNL     1       4.067   4.112  19.338  0.00  0.00    +0.000 C 
ATOM     14  C   UNL     1       2.580   4.596  19.454  0.00  0.00    +0.000 C 
ATOM     15  C   UNL     1       1.603   3.627  18.703  0.00  0.00    +0.000 C 
ATOM     16  C   UNL     1       1.907   2.145  19.045  0.00  0.00    +0.000 C 
ATOM     17  C   UNL     1       2.185   4.619  20.968  0.00  0.00    +0.000 C 
ATOM     18  O   UNL     1       2.163   3.683  21.751  0.00  0.00    +0.000 OA
ATOM     19  N   UNL     1       1.848   5.916  21.318  0.00  0.00    +0.000 N 
ATOM     20  C   UNL     1       1.957   6.788  20.251  0.00  0.00    +0.000 A 
ATOM     21  C   UNL     1       1.685   8.155  20.267  0.00  0.00    +0.000 A 
ATOM     22  C   UNL     1       1.825   8.893  19.075  0.00  0.00    +0.000 A 
ATOM     23  C   UNL     1       2.256   8.186  17.927  0.00  0.00    +0.000 A 
ATOM     24  C   UNL     1       2.532   6.798  17.940  0.00  0.00    +0.000 A 
ATOM     25  C   UNL     1       2.378   6.086  19.117  0.00  0.00    +0.000 A 
ATOM     26  H   UNL     1       1.557   6.152  22.254  0.00  0.00    +0.000 HD
ENDBRANCH   1  22
BRANCH   7  27
ATOM     27  C   UNL     1      -0.983  12.285  21.799  0.00  0.00    +0.000 C 
BRANCH  27  28
ATOM     28  C   UNL     1      -2.456  12.611  21.989  0.00  0.00    +0.000 A 
ATOM     29  C   UNL     1      -2.792  12.699  23.347  0.00  0.00    +0.000 A 
ATOM     30  C   UNL     1      -4.077  12.868  23.683  0.00  0.00    +0.000 A 
ATOM     31  C   UNL     1      -4.970  12.797  22.689  0.00  0.00    +0.000 A 
ATOM     32  N   UNL     1      -6.151  12.576  23.125  0.00  0.00    +0.000 NA
ATOM     33  C   UNL     1      -7.290  12.362  23.635  0.00  0.00    +0.000 A 
ATOM     34  C   UNL     1      -7.598  12.333  22.321  0.00  0.00    +0.000 A 
ATOM     35  C   UNL     1      -6.525  12.503  21.048  0.00  0.00    +0.000 A 
ATOM     36  C   UNL     1      -4.957  12.694  21.349  0.00  0.00    +0.000 A 
ATOM     37  C   UNL     1      -3.490  12.806  20.979  0.00  0.00    +0.000 A 
ENDBRANCH  27  28
ENDBRANCH   7  27
TORSDOF 3
ENDMDL
MODEL 4
REMARK VINA RESULT:     -10.1      3.219     11.256
REMARK  Name = 
REMARK  4 active torsions:
REMARK  status: ('A' for Active; 'I' for Inactive)
REMARK    1  A    between atoms: C_1  and  N_2
REMARK    2  A    between atoms: C_13  and  C_14
REMARK    3  A    between atoms: N_20  and  C_21
REMARK    4  A    between atoms: C_21  and  C_22
REMARK                            x       y       z     vdW  Elec       q    Type
REMARK                         _______ _______ _______ _____ _____    ______ ____
ROOT
ATOM      1  C   UNL     1       1.382  11.266  19.004  0.00  0.00    +0.000 A 
ATOM      2  N   UNL     1       2.030  12.115  18.161  0.00  0.00    +0.000 NA
ATOM      3  C   UNL     1       1.716  13.449  18.160  0.00  0.00    +0.000 A 
ATOM      4  C   UNL     1       0.762  13.923  19.053  0.00  0.00    +0.000 A 
ATOM      5  N   UNL     1       0.156  15.129  19.331  0.00  0.00    +0.000 NA
ATOM      6  N   UNL     1      -0.709  14.931  20.349  0.00  0.00    +0.000 NA
ATOM      7  N   UNL     1      -0.663  13.604  20.684  0.00  0.00    +0.000 N 
ATOM      8  C   UNL     1       0.208  12.949  19.863  0.00  0.00    +0.000 A 
ATOM      9  N   UNL     1       0.442  11.627  19.884  0.00  0.00    +0.000 NA
ENDROOT
BRANCH   1  22
ATOM     10  C   UNL     1       4.140   3.223  16.987  0.00  0.00    +0.000 C 
ATOM     11  N   UNL     1       3.641   2.866  18.318  0.00  0.00    +0.000 NA
ATOM     12  C   UNL     1       4.347   3.621  19.364  0.00  0.00    +0.000 C 
ATOM     13  C   UNL     1       4.181   5.151  19.177  0.00  0.00    +0.000 C 
ATOM     14  C   UNL     1       2.667   5.557  19.119  0.00  0.00    +0.000 C 
ATOM     15  C   UNL     1       1.859   4.615  18.162  0.00  0.00    +0.000 C 
ATOM     16  C   UNL     1       2.195   3.124  18.424  0.00  0.00    +0.000 C 
ATOM     17  C   UNL     1       2.067   5.430  20.559  0.00  0.00    +0.000 C 
ATOM     18  O   UNL     1       1.990   4.430  21.253  0.00  0.00    +0.000 OA
ATOM     19  N   UNL     1       1.613   6.676  20.960  0.00  0.00    +0.000 N 
ATOM     20  C   UNL     1       1.819   7.642  19.992  0.00  0.00    +0.000 A 
ATOM     21  C   UNL     1       1.471   8.988  20.079  0.00  0.00    +0.000 A 
ATOM     22  C   UNL     1       1.733   9.833  18.981  0.00  0.00    +0.000 A 
ATOM     23  C   UNL     1       2.356   9.249  17.854  0.00  0.00    +0.000 A 
ATOM     24  C   UNL     1       2.705   7.878  17.795  0.00  0.00    +0.000 A 
ATOM     25  C   UNL     1       2.431   7.060  18.877  0.00  0.00    +0.000 A 
ATOM     26  H   UNL     1       1.183   6.817  21.861  0.00  0.00    +0.000 HD
ENDBRANCH   1  22
BRANCH   7  27
ATOM     27  C   UNL     1      -1.440  12.887  21.706  0.00  0.00    +0.000 C 
BRANCH  27  28
ATOM     28  C   UNL     1      -2.958  12.892  21.622  0.00  0.00    +0.000 A 
ATOM     29  C   UNL     1      -3.543  13.060  22.886  0.00  0.00    +0.000 A 
ATOM     30  C   UNL     1      -4.874  12.973  22.997  0.00  0.00    +0.000 A 
ATOM     31  C   UNL     1      -5.542  12.588  21.904  0.00  0.00    +0.000 A 
ATOM     32  N   UNL     1      -6.712  12.158  22.188  0.00  0.00    +0.000 NA
ATOM     33  C   UNL     1      -7.857  11.754  22.550  0.00  0.00    +0.000 A 
ATOM     34  C   UNL     1      -7.912  11.503  21.224  0.00  0.00    +0.000 A 
ATOM     35  C   UNL     1      -6.687  11.762  20.115  0.00  0.00    +0.000 A 
ATOM     36  C   UNL     1      -5.269  12.334  20.612  0.00  0.00    +0.000 A 
ATOM     37  C   UNL     1      -3.813  12.729  20.452  0.00  0.00    +0.000 A 
ENDBRANCH  27  28
ENDBRANCH   7  27
TORSDOF 3
ENDMDL
MODEL 5
REMARK VINA RESULT:     -10.0      2.810      9.687
REMARK  Name = 
REMARK  4 active torsions:
REMARK  status: ('A' for Active; 'I' for Inactive)
REMARK    1  A    between atoms: C_1  and  N_2
REMARK    2  A    between atoms: C_13  and  C_14
REMARK    3  A    between atoms: N_20  and  C_21
REMARK    4  A    between atoms: C_21  and  C_22
REMARK                            x       y       z     vdW  Elec       q    Type
REMARK                         _______ _______ _______ _____ _____    ______ ____
ROOT
ATOM      1  C   UNL     1       0.217   9.738  21.200  0.00  0.00    +0.000 A 
ATOM      2  N   UNL     1      -0.200   9.577  22.484  0.00  0.00    +0.000 NA
ATOM      3  C   UNL     1      -0.926  10.566  23.096  0.00  0.00    +0.000 A 
ATOM      4  C   UNL     1      -1.259  11.707  22.377  0.00  0.00    +0.000 A 
ATOM      5  N   UNL     1      -1.910  12.896  22.624  0.00  0.00    +0.000 NA
ATOM      6  N   UNL     1      -1.913  13.611  21.477  0.00  0.00    +0.000 NA
ATOM      7  N   UNL     1      -1.243  12.883  20.530  0.00  0.00    +0.000 N 
ATOM      8  C   UNL     1      -0.788  11.718  21.078  0.00  0.00    +0.000 A 
ATOM      9  N   UNL     1      -0.041  10.806  20.436  0.00  0.00    +0.000 NA
ENDROOT
BRANCH   1  22
ATOM     10  C   UNL     1       5.037   4.725  15.907  0.00  0.00    +0.000 C 
ATOM     11  N   UNL     1       4.922   3.726  16.974  0.00  0.00    +0.000 NA
ATOM     12  C   UNL     1       5.517   4.220  18.225  0.00  0.00    +0.000 C 
ATOM     13  C   UNL     1       4.833   5.526  18.706  0.00  0.00    +0.000 C 
ATOM     14  C   UNL     1       3.284   5.336  18.860  0.00  0.00    +0.000 C 
ATOM     15  C   UNL     1       2.671   4.610  17.613  0.00  0.00    +0.000 C 
ATOM     16  C   UNL     1       3.513   3.371  17.212  0.00  0.00    +0.000 C 
ATOM     17  C   UNL     1       3.019   4.452  20.124  0.00  0.00    +0.000 C 
ATOM     18  O   UNL     1       3.394   3.309  20.332  0.00  0.00    +0.000 OA
ATOM     19  N   UNL     1       2.263   5.185  21.025  0.00  0.00    +0.000 N 
ATOM     20  C   UNL     1       1.972   6.450  20.552  0.00  0.00    +0.000 A 
ATOM     21  C   UNL     1       1.227   7.428  21.208  0.00  0.00    +0.000 A 
ATOM     22  C   UNL     1       1.004   8.663  20.565  0.00  0.00    +0.000 A 
ATOM     23  C   UNL     1       1.576   8.833  19.282  0.00  0.00    +0.000 A 
ATOM     24  C   UNL     1       2.335   7.824  18.641  0.00  0.00    +0.000 A 
ATOM     25  C   UNL     1       2.534   6.613  19.282  0.00  0.00    +0.000 A 
ATOM     26  H   UNL     1       1.975   4.797  21.911  0.00  0.00    +0.000 HD
ENDBRANCH   1  22
BRANCH   7  27
ATOM     27  C   UNL     1      -0.948  13.241  19.135  0.00  0.00    +0.000 C 
BRANCH  27  28
ATOM     28  C   UNL     1       0.322  14.017  18.821  0.00  0.00    +0.000 A 
ATOM     29  C   UNL     1       1.341  13.172  18.359  0.00  0.00    +0.000 A 
ATOM     30  C   UNL     1       2.558  13.686  18.147  0.00  0.00    +0.000 A 
ATOM     31  C   UNL     1       2.748  14.953  18.532  0.00  0.00    +0.000 A 
ATOM     32  N   UNL     1       3.989  15.231  18.662  0.00  0.00    +0.000 NA
ATOM     33  C   UNL     1       5.236  15.428  18.761  0.00  0.00    +0.000 A 
ATOM     34  C   UNL     1       4.762  16.622  19.177  0.00  0.00    +0.000 A 
ATOM     35  C   UNL     1       3.152  17.046  19.341  0.00  0.00    +0.000 A 
ATOM     36  C   UNL     1       2.007  15.965  19.016  0.00  0.00    +0.000 A 
ATOM     37  C   UNL     1       0.582  15.445  18.963  0.00  0.00    +0.000 A 
ENDBRANCH  27  28
ENDBRANCH   7  27
TORSDOF 3
ENDMDL
MODEL 6
REMARK VINA RESULT:     -10.0      0.661      1.189
REMARK  Name = 
REMARK  4 active torsions:
REMARK  status: ('A' for Active; 'I' for Inactive)
REMARK    1  A    between atoms: C_1  and  N_2
REMARK    2  A    between atoms: C_13  and  C_14
REMARK    3  A    between atoms: N_20  and  C_21
REMARK    4  A    between atoms: C_21  and  C_22
REMARK                            x       y       z     vdW  Elec       q    Type
REMARK                         _______ _______ _______ _____ _____    ______ ____
ROOT
ATOM      1  C   UNL     1       1.889   6.212  20.330  0.00  0.00    +0.000 A 
ATOM      2  N   UNL     1       1.126   5.233  20.888  0.00  0.00    +0.000 NA
ATOM      3  C   UNL     1       1.537   3.927  20.826  0.00  0.00    +0.000 A 
ATOM      4  C   UNL     1       2.751   3.625  20.223  0.00  0.00    +0.000 A 
ATOM      5  N   UNL     1       3.473   2.488  19.929  0.00  0.00    +0.000 NA
ATOM      6  N   UNL     1       4.618   2.871  19.322  0.00  0.00    +0.000 NA
ATOM      7  N   UNL     1       4.596   4.236  19.214  0.00  0.00    +0.000 N 
ATOM      8  C   UNL     1       3.427   4.723  19.724  0.00  0.00    +0.000 A 
ATOM      9  N   UNL     1       3.062   6.015  19.717  0.00  0.00    +0.000 NA
ENDROOT
BRANCH   1  22
ATOM     10  C   UNL     1      -0.141  14.582  18.852  0.00  0.00    +0.000 C 
ATOM     11  N   UNL     1      -0.650  14.559  20.226  0.00  0.00    +0.000 NA
ATOM     12  C   UNL     1      -1.735  13.576  20.369  0.00  0.00    +0.000 C 
ATOM     13  C   UNL     1      -1.263  12.145  20.001  0.00  0.00    +0.000 C 
ATOM     14  C   UNL     1      -0.011  11.723  20.846  0.00  0.00    +0.000 C 
ATOM     15  C   UNL     1       1.068  12.860  20.875  0.00  0.00    +0.000 C 
ATOM     16  C   UNL     1       0.425  14.238  21.179  0.00  0.00    +0.000 C 
ATOM     17  C   UNL     1      -0.476  11.447  22.314  0.00  0.00    +0.000 C 
ATOM     18  O   UNL     1      -1.003  12.226  23.093  0.00  0.00    +0.000 OA
ATOM     19  N   UNL     1      -0.197  10.126  22.625  0.00  0.00    +0.000 N 
ATOM     20  C   UNL     1       0.397   9.458  21.572  0.00  0.00    +0.000 A 
ATOM     21  C   UNL     1       0.808   8.126  21.562  0.00  0.00    +0.000 A 
ATOM     22  C   UNL     1       1.423   7.610  20.404  0.00  0.00    +0.000 A 
ATOM     23  C   UNL     1       1.570   8.490  19.306  0.00  0.00    +0.000 A 
ATOM     24  C   UNL     1       1.137   9.837  19.341  0.00  0.00    +0.000 A 
ATOM     25  C   UNL     1       0.545  10.332  20.490  0.00  0.00    +0.000 A 
ATOM     26  H   UNL     1      -0.415   9.740  23.531  0.00  0.00    +0.000 HD
ENDBRANCH   1  22
BRANCH   7  27
ATOM     27  C   UNL     1       5.594   5.125  18.601  0.00  0.00    +0.000 C 
BRANCH  27  28
ATOM     28  C   UNL     1       6.136   4.790  17.220  0.00  0.00    +0.000 A 
ATOM     29  C   UNL     1       7.239   5.592  16.892  0.00  0.00    +0.000 A 
ATOM     30  C   UNL     1       7.761   5.498  15.663  0.00  0.00    +0.000 A 
ATOM     31  C   UNL     1       7.094   4.740  14.786  0.00  0.00    +0.000 A 
ATOM     32  N   UNL     1       7.418   5.010  13.579  0.00  0.00    +0.000 NA
ATOM     33  C   UNL     1       7.796   5.333  12.414  0.00  0.00    +0.000 A 
ATOM     34  C   UNL     1       6.847   4.418  12.123  0.00  0.00    +0.000 A 
ATOM     35  C   UNL     1       5.886   3.602  13.223  0.00  0.00    +0.000 A 
ATOM     36  C   UNL     1       6.036   3.911  14.794  0.00  0.00    +0.000 A 
ATOM     37  C   UNL     1       5.651   3.808  16.258  0.00  0.00    +0.000 A 
ENDBRANCH  27  28
ENDBRANCH   7  27
TORSDOF 3
ENDMDL
MODEL 7
REMARK VINA RESULT:      -9.9      3.340     11.582
REMARK  Name = 
REMARK  4 active torsions:
REMARK  status: ('A' for Active; 'I' for Inactive)
REMARK    1  A    between atoms: C_1  and  N_2
REMARK    2  A    between atoms: C_13  and  C_14
REMARK    3  A    between atoms: N_20  and  C_21
REMARK    4  A    between atoms: C_21  and  C_22
REMARK                            x       y       z     vdW  Elec       q    Type
REMARK                         _______ _______ _______ _____ _____    ______ ____
ROOT
ATOM      1  C   UNL     1       1.112  11.302  19.251  0.00  0.00    +0.000 A 
ATOM      2  N   UNL     1       1.587  12.206  18.353  0.00  0.00    +0.000 NA
ATOM      3  C   UNL     1       1.190  13.516  18.426  0.00  0.00    +0.000 A 
ATOM      4  C   UNL     1       0.333  13.910  19.446  0.00  0.00    +0.000 A 
ATOM      5  N   UNL     1      -0.308  15.068  19.830  0.00  0.00    +0.000 NA
ATOM      6  N   UNL     1      -1.018  14.796  20.946  0.00  0.00    +0.000 NA
ATOM      7  N   UNL     1      -0.843  13.470  21.239  0.00  0.00    +0.000 N 
ATOM      8  C   UNL     1      -0.046  12.888  20.296  0.00  0.00    +0.000 A 
ATOM      9  N   UNL     1       0.274  11.585  20.255  0.00  0.00    +0.000 NA
ENDROOT
BRANCH   1  22
ATOM     10  C   UNL     1       4.325   3.561  16.776  0.00  0.00    +0.000 C 
ATOM     11  N   UNL     1       3.866   3.104  18.090  0.00  0.00    +0.000 NA
ATOM     12  C   UNL     1       4.539   3.844  19.169  0.00  0.00    +0.000 C 
ATOM     13  C   UNL     1       4.278   5.369  19.066  0.00  0.00    +0.000 C 
ATOM     14  C   UNL     1       2.742   5.685  19.046  0.00  0.00    +0.000 C 
ATOM     15  C   UNL     1       1.980   4.746  18.047  0.00  0.00    +0.000 C 
ATOM     16  C   UNL     1       2.409   3.267  18.225  0.00  0.00    +0.000 C 
ATOM     17  C   UNL     1       2.170   5.445  20.482  0.00  0.00    +0.000 C 
ATOM     18  O   UNL     1       2.163   4.406  21.122  0.00  0.00    +0.000 OA
ATOM     19  N   UNL     1       1.647   6.638  20.954  0.00  0.00    +0.000 N 
ATOM     20  C   UNL     1       1.781   7.664  20.038  0.00  0.00    +0.000 A 
ATOM     21  C   UNL     1       1.353   8.980  20.201  0.00  0.00    +0.000 A 
ATOM     22  C   UNL     1       1.549   9.896  19.148  0.00  0.00    +0.000 A 
ATOM     23  C   UNL     1       2.191   9.412  17.984  0.00  0.00    +0.000 A 
ATOM     24  C   UNL     1       2.621   8.070  17.848  0.00  0.00    +0.000 A 
ATOM     25  C   UNL     1       2.412   7.181  18.887  0.00  0.00    +0.000 A 
ATOM     26  H   UNL     1       1.221   6.703  21.866  0.00  0.00    +0.000 HD
ENDBRANCH   1  22
BRANCH   7  27
ATOM     27  C   UNL     1      -1.431  12.685  22.336  0.00  0.00    +0.000 C 
BRANCH  27  28
ATOM     28  C   UNL     1      -2.943  12.623  22.474  0.00  0.00    +0.000 A 
ATOM     29  C   UNL     1      -3.575  12.610  21.222  0.00  0.00    +0.000 A 
ATOM     30  C   UNL     1      -4.911  12.671  21.173  0.00  0.00    +0.000 A 
ATOM     31  C   UNL     1      -5.543  12.886  22.332  0.00  0.00    +0.000 A 
ATOM     32  N   UNL     1      -6.734  13.315  22.153  0.00  0.00    +0.000 NA
ATOM     33  C   UNL     1      -7.902  13.730  21.892  0.00  0.00    +0.000 A 
ATOM     34  C   UNL     1      -7.910  13.798  23.240  0.00  0.00    +0.000 A 
ATOM     35  C   UNL     1      -6.634  13.429  24.258  0.00  0.00    +0.000 A 
ATOM     36  C   UNL     1      -5.224  12.971  23.635  0.00  0.00    +0.000 A 
ATOM     37  C   UNL     1      -3.754  12.602  23.686  0.00  0.00    +0.000 A 
ENDBRANCH  27  28
ENDBRANCH   7  27
TORSDOF 3
ENDMDL
MODEL 8
REMARK VINA RESULT:      -9.9      3.192     10.912
REMARK  Name = 
REMARK  4 active torsions:
REMARK  status: ('A' for Active; 'I' for Inactive)
REMARK    1  A    between atoms: C_1  and  N_2
REMARK    2  A    between atoms: C_13  and  C_14
REMARK    3  A    between atoms: N_20  and  C_21
REMARK    4  A    between atoms: C_21  and  C_22
REMARK                            x       y       z     vdW  Elec       q    Type
REMARK                         _______ _______ _______ _____ _____    ______ ____
ROOT
ATOM      1  C   UNL     1       1.563  10.721  18.776  0.00  0.00    +0.000 A 
ATOM      2  N   UNL     1       2.420  11.526  18.093  0.00  0.00    +0.000 NA
ATOM      3  C   UNL     1       2.169  12.870  17.999  0.00  0.00    +0.000 A 
ATOM      4  C   UNL     1       1.055  13.398  18.641  0.00  0.00    +0.000 A 
ATOM      5  N   UNL     1       0.452  14.632  18.753  0.00  0.00    +0.000 NA
ATOM      6  N   UNL     1      -0.632  14.490  19.547  0.00  0.00    +0.000 NA
ATOM      7  N   UNL     1      -0.718  13.170  19.904  0.00  0.00    +0.000 N 
ATOM      8  C   UNL     1       0.292  12.465  19.316  0.00  0.00    +0.000 A 
ATOM      9  N   UNL     1       0.460  11.136  19.411  0.00  0.00    +0.000 NA
ENDROOT
BRANCH   1  22
ATOM     10  C   UNL     1       3.833   2.413  17.297  0.00  0.00    +0.000 C 
ATOM     11  N   UNL     1       3.415   2.195  18.684  0.00  0.00    +0.000 NA
ATOM     12  C   UNL     1       4.225   3.001  19.610  0.00  0.00    +0.000 C 
ATOM     13  C   UNL     1       4.109   4.516  19.300  0.00  0.00    +0.000 C 
ATOM     14  C   UNL     1       2.614   4.988  19.309  0.00  0.00    +0.000 C 
ATOM     15  C   UNL     1       1.701   4.007  18.495  0.00  0.00    +0.000 C 
ATOM     16  C   UNL     1       1.993   2.529  18.864  0.00  0.00    +0.000 C 
ATOM     17  C   UNL     1       2.112   5.013  20.790  0.00  0.00    +0.000 C 
ATOM     18  O   UNL     1       2.044   4.080  21.574  0.00  0.00    +0.000 OA
ATOM     19  N   UNL     1       1.741   6.309  21.110  0.00  0.00    +0.000 N 
ATOM     20  C   UNL     1       1.917   7.177  20.049  0.00  0.00    +0.000 A 
ATOM     21  C   UNL     1       1.633   8.541  20.040  0.00  0.00    +0.000 A 
ATOM     22  C   UNL     1       1.851   9.276  18.857  0.00  0.00    +0.000 A 
ATOM     23  C   UNL     1       2.368   8.569  17.746  0.00  0.00    +0.000 A 
ATOM     24  C   UNL     1       2.654   7.183  17.785  0.00  0.00    +0.000 A 
ATOM     25  C   UNL     1       2.423   6.474  18.951  0.00  0.00    +0.000 A 
ATOM     26  H   UNL     1       1.382   6.546  22.022  0.00  0.00    +0.000 HD
ENDBRANCH   1  22
BRANCH   7  27
ATOM     27  C   UNL     1      -1.737  12.506  20.730  0.00  0.00    +0.000 C 
BRANCH  27  28
ATOM     28  C   UNL     1      -3.165  12.416  20.216  0.00  0.00    +0.000 A 
ATOM     29  C   UNL     1      -3.213  11.875  18.923  0.00  0.00    +0.000 A 
ATOM     30  C   UNL     1      -4.389  11.835  18.285  0.00  0.00    +0.000 A 
ATOM     31  C   UNL     1      -5.415  12.451  18.881  0.00  0.00    +0.000 A 
ATOM     32  N   UNL     1      -6.361  12.705  18.060  0.00  0.00    +0.000 NA
ATOM     33  C   UNL     1      -7.254  12.916  17.186  0.00  0.00    +0.000 A 
ATOM     34  C   UNL     1      -7.815  13.508  18.262  0.00  0.00    +0.000 A 
ATOM     35  C   UNL     1      -7.135  13.643  19.785  0.00  0.00    +0.000 A 
ATOM     36  C   UNL     1      -5.661  13.059  20.054  0.00  0.00    +0.000 A 
ATOM     37  C   UNL     1      -4.403  12.825  20.869  0.00  0.00    +0.000 A 
ENDBRANCH  27  28
ENDBRANCH   7  27
TORSDOF 3
ENDMDL
MODEL 9
REMARK VINA RESULT:      -9.9      3.921      9.728
REMARK  Name = 
REMARK  4 active torsions:
REMARK  status: ('A' for Active; 'I' for Inactive)
REMARK    1  A    between atoms: C_1  and  N_2
REMARK    2  A    between atoms: C_13  and  C_14
REMARK    3  A    between atoms: N_20  and  C_21
REMARK    4  A    between atoms: C_21  and  C_22
REMARK                            x       y       z     vdW  Elec       q    Type
REMARK                         _______ _______ _______ _____ _____    ______ ____
ROOT
ATOM      1  C   UNL     1       0.904  11.278  19.309  0.00  0.00    +0.000 A 
ATOM      2  N   UNL     1      -0.320  11.469  19.872  0.00  0.00    +0.000 NA
ATOM      3  C   UNL     1      -0.814  12.738  20.021  0.00  0.00    +0.000 A 
ATOM      4  C   UNL     1      -0.069  13.815  19.557  0.00  0.00    +0.000 A 
ATOM      5  N   UNL     1      -0.184  15.189  19.551  0.00  0.00    +0.000 NA
ATOM      6  N   UNL     1       0.901  15.691  18.922  0.00  0.00    +0.000 NA
ATOM      7  N   UNL     1       1.699  14.637  18.562  0.00  0.00    +0.000 N 
ATOM      8  C   UNL     1       1.140  13.466  18.986  0.00  0.00    +0.000 A 
ATOM      9  N   UNL     1       1.696  12.253  18.848  0.00  0.00    +0.000 NA
ENDROOT
BRANCH   1  22
ATOM     10  C   UNL     1       4.529   3.799  16.611  0.00  0.00    +0.000 C 
ATOM     11  N   UNL     1       4.106   3.282  17.916  0.00  0.00    +0.000 NA
ATOM     12  C   UNL     1       4.744   4.031  19.010  0.00  0.00    +0.000 C 
ATOM     13  C   UNL     1       4.397   5.541  18.949  0.00  0.00    +0.000 C 
ATOM     14  C   UNL     1       2.846   5.769  18.946  0.00  0.00    +0.000 C 
ATOM     15  C   UNL     1       2.130   4.816  17.927  0.00  0.00    +0.000 C 
ATOM     16  C   UNL     1       2.644   3.359  18.063  0.00  0.00    +0.000 C 
ATOM     17  C   UNL     1       2.298   5.460  20.378  0.00  0.00    +0.000 C 
ATOM     18  O   UNL     1       2.355   4.406  20.991  0.00  0.00    +0.000 OA
ATOM     19  N   UNL     1       1.712   6.609  20.885  0.00  0.00    +0.000 N 
ATOM     20  C   UNL     1       1.782   7.664  19.996  0.00  0.00    +0.000 A 
ATOM     21  C   UNL     1       1.282   8.950  20.196  0.00  0.00    +0.000 A 
ATOM     22  C   UNL     1       1.418   9.902  19.166  0.00  0.00    +0.000 A 
ATOM     23  C   UNL     1       2.078   9.486  17.986  0.00  0.00    +0.000 A 
ATOM     24  C   UNL     1       2.582   8.175  17.812  0.00  0.00    +0.000 A 
ATOM     25  C   UNL     1       2.430   7.248  18.829  0.00  0.00    +0.000 A 
ATOM     26  H   UNL     1       1.290   6.626  21.801  0.00  0.00    +0.000 HD
ENDBRANCH   1  22
BRANCH   7  27
ATOM     27  C   UNL     1       3.003  14.662  17.883  0.00  0.00    +0.000 C 
BRANCH  27  28
ATOM     28  C   UNL     1       4.259  14.920  18.700  0.00  0.00    +0.000 A 
ATOM     29  C   UNL     1       5.411  14.871  17.902  0.00  0.00    +0.000 A 
ATOM     30  C   UNL     1       6.608  14.966  18.493  0.00  0.00    +0.000 A 
ATOM     31  C   UNL     1       6.618  14.958  19.831  0.00  0.00    +0.000 A 
ATOM     32  N   UNL     1       7.770  14.658  20.297  0.00  0.00    +0.000 NA
ATOM     33  C   UNL     1       8.941  14.360  20.679  0.00  0.00    +0.000 A 
ATOM     34  C   UNL     1       8.305  14.443  21.868  0.00  0.00    +0.000 A 
ATOM     35  C   UNL     1       6.680  14.766  22.101  0.00  0.00    +0.000 A 
ATOM     36  C   UNL     1       5.719  14.980  20.830  0.00  0.00    +0.000 A 
ATOM     37  C   UNL     1       4.387  15.173  20.131  0.00  0.00    +0.000 A 
ENDBRANCH  27  28
ENDBRANCH   7  27
TORSDOF 3
ENDMDL
