MODEL 1
REMARK VINA RESULT:      -7.1      0.000      0.000
REMARK  Name = 
REMARK  2 active torsions:
REMARK  status: ('A' for Active; 'I' for Inactive)
REMARK    1  A    between atoms: N_2  and  C_4
REMARK    2  A    between atoms: C_8  and  C_9
REMARK                            x       y       z     vdW  Elec       q    Type
REMARK                         _______ _______ _______ _____ _____    ______ ____
ROOT
ATOM      1  C   UNL     1       0.139  12.890  21.607  0.00  0.00    +0.000 C 
ATOM      2  N   UNL     1       0.955  11.865  20.901  0.00  0.00    +0.000 N 
ATOM      3  C   UNL     1       0.952  12.452  19.661  0.00  0.00    +0.000 C 
ATOM      4  N   UNL     1      -0.485  12.911  19.728  0.00  0.00    +0.000 N 
ATOM      5  C   UNL     1      -1.118  14.346  20.899  0.00  0.00    +0.000 C 
ATOM      6  C   UNL     1      -1.010  14.012  22.847  0.00  0.00    +0.000 C 
ATOM      7  O   UNL     1      -0.764  12.225  23.321  0.00  0.00    +0.000 OA
ATOM      8  C   UNL     1      -0.852  10.859  22.112  0.00  0.00    +0.000 C 
ATOM      9  C   UNL     1      -0.939  11.165  20.237  0.00  0.00    +0.000 C 
ATOM     10  N   UNL     1       2.184  12.821  19.528  0.00  0.00    +0.000 NA
ATOM     11  C   UNL     1       2.415  13.955  20.316  0.00  0.00    +0.000 A 
ATOM     12  C   UNL     1       1.273  14.371  21.042  0.00  0.00    +0.000 A 
ATOM     13  S   UNL     1       1.019  15.887  19.813  0.00  0.00    +0.000 S 
ATOM     14  C   UNL     1       2.532  15.704  18.994  0.00  0.00    +0.000 A 
ATOM     15  C   UNL     1       2.974  16.217  17.752  0.00  0.00    +0.000 A 
ATOM     16  C   UNL     1       4.279  15.921  17.322  0.00  0.00    +0.000 A 
ATOM     17  C   UNL     1       5.131  15.180  18.127  0.00  0.00    +0.000 A 
ATOM     18 CL   UNL     1       6.716  14.787  17.582  0.00  0.00    +0.000 Cl
ATOM     19  C   UNL     1       4.672  14.651  19.338  0.00  0.00    +0.000 A 
ATOM     20  C   UNL     1       3.341  14.882  19.764  0.00  0.00    +0.000 A 
ATOM     21  H   UNL     1       1.906  11.791  21.256  0.00  0.00    +0.000 HD
ENDROOT
BRANCH   1  26
ATOM     22  C   UNL     1      -4.325  12.582  22.623  0.00  0.00    +0.000 A 
ATOM     23  C   UNL     1      -5.018  12.759  21.441  0.00  0.00    +0.000 A 
ATOM     24  C   UNL     1      -4.298  12.703  20.277  0.00  0.00    +0.000 A 
ATOM     25  C   UNL     1      -2.879  12.678  20.316  0.00  0.00    +0.000 A 
ATOM     26  C   UNL     1      -1.938  12.623  21.535  0.00  0.00    +0.000 A 
ATOM     27  C   UNL     1      -2.918  12.327  22.664  0.00  0.00    +0.000 A 
BRANCH  22  29
ATOM     28  O   UNL     1      -5.119  14.214  24.036  0.00  0.00    +0.000 OA
ATOM     29  N   UNL     1      -4.995  12.998  23.853  0.00  0.00    +0.000 N 
ATOM     30  O   UNL     1      -5.296  12.118  24.669  0.00  0.00    +0.000 OA
ENDBRANCH  22  29
ENDBRANCH   1  26
TORSDOF 2
ENDMDL
MODEL 2
REMARK VINA RESULT:      -7.0      4.275      7.095
REMARK  Name = 
REMARK  2 active torsions:
REMARK  status: ('A' for Active; 'I' for Inactive)
REMARK    1  A    between atoms: N_2  and  C_4
REMARK    2  A    between atoms: C_8  and  C_9
REMARK                            x       y       z     vdW  Elec       q    Type
REMARK                         _______ _______ _______ _____ _____    ______ ____
ROOT
ATOM      1  C   UNL     1      -0.345  13.159  21.546  0.00  0.00    +0.000 C 
ATOM      2  N   UNL     1      -0.178  14.616  21.295  0.00  0.00    +0.000 N 
ATOM      3  C   UNL     1      -1.502  14.921  21.105  0.00  0.00    +0.000 C 
ATOM      4  N   UNL     1      -1.825  13.665  20.333  0.00  0.00    +0.000 N 
ATOM      5  C   UNL     1      -1.890  11.879  21.132  0.00  0.00    +0.000 C 
ATOM      6  C   UNL     1      -0.183  11.156  21.826  0.00  0.00    +0.000 C 
ATOM      7  O   UNL     1       1.343  12.044  21.225  0.00  0.00    +0.000 OA
ATOM      8  C   UNL     1       1.297  13.320  19.919  0.00  0.00    +0.000 C 
ATOM      9  C   UNL     1      -0.336  14.036  19.256  0.00  0.00    +0.000 C 
ATOM     10  N   UNL     1      -1.775  15.628  22.154  0.00  0.00    +0.000 NA
ATOM     11  C   UNL     1      -1.892  14.783  23.264  0.00  0.00    +0.000 A 
ATOM     12  C   UNL     1      -1.668  13.419  22.953  0.00  0.00    +0.000 A 
ATOM     13  S   UNL     1      -3.597  13.050  23.092  0.00  0.00    +0.000 S 
ATOM     14  C   UNL     1      -4.022  14.587  23.763  0.00  0.00    +0.000 A 
ATOM     15  C   UNL     1      -5.276  15.235  23.858  0.00  0.00    +0.000 A 
ATOM     16  C   UNL     1      -5.342  16.497  24.475  0.00  0.00    +0.000 A 
ATOM     17  C   UNL     1      -4.205  17.069  25.023  0.00  0.00    +0.000 A 
ATOM     18 CL   UNL     1      -4.281  18.630  25.745  0.00  0.00    +0.000 Cl
ATOM     19  C   UNL     1      -2.965  16.434  24.894  0.00  0.00    +0.000 A 
ATOM     20  C   UNL     1      -2.861  15.192  24.221  0.00  0.00    +0.000 A 
ATOM     21  H   UNL     1       0.192  15.125  22.095  0.00  0.00    +0.000 HD
ENDROOT
BRANCH   1  26
ATOM     22  C   UNL     1       0.660  10.013  18.361  0.00  0.00    +0.000 A 
ATOM     23  C   UNL     1      -0.514   9.736  17.687  0.00  0.00    +0.000 A 
ATOM     24  C   UNL     1      -1.568  10.587  17.890  0.00  0.00    +0.000 A 
ATOM     25  C   UNL     1      -1.506  11.572  18.911  0.00  0.00    +0.000 A 
ATOM     26  C   UNL     1      -0.339  11.926  19.852  0.00  0.00    +0.000 A 
ATOM     27  C   UNL     1       0.808  11.144  19.225  0.00  0.00    +0.000 A 
BRANCH  22  29
ATOM     28  O   UNL     1       1.782   8.389  19.541  0.00  0.00    +0.000 OA
ATOM     29  N   UNL     1       1.647   8.939  18.442  0.00  0.00    +0.000 N 
ATOM     30  O   UNL     1       2.347   8.723  17.445  0.00  0.00    +0.000 OA
ENDBRANCH  22  29
ENDBRANCH   1  26
TORSDOF 2
ENDMDL
MODEL 3
REMARK VINA RESULT:      -6.9      7.664      8.972
REMARK  Name = 
REMARK  2 active torsions:
REMARK  status: ('A' for Active; 'I' for Inactive)
REMARK    1  A    between atoms: N_2  and  C_4
REMARK    2  A    between atoms: C_8  and  C_9
REMARK                            x       y       z     vdW  Elec       q    Type
REMARK                         _______ _______ _______ _____ _____    ______ ____
ROOT
ATOM      1  C   UNL     1       6.910  13.721  23.228  0.00  0.00    +0.000 C 
ATOM      2  N   UNL     1       7.540  15.038  22.941  0.00  0.00    +0.000 N 
ATOM      3  C   UNL     1       8.847  14.620  22.948  0.00  0.00    +0.000 C 
ATOM      4  N   UNL     1       8.683  13.668  24.108  0.00  0.00    +0.000 N 
ATOM      5  C   UNL     1       7.681  11.990  24.008  0.00  0.00    +0.000 C 
ATOM      6  C   UNL     1       5.731  12.139  23.700  0.00  0.00    +0.000 C 
ATOM      7  O   UNL     1       5.019  13.835  24.007  0.00  0.00    +0.000 OA
ATOM      8  C   UNL     1       5.983  15.193  24.757  0.00  0.00    +0.000 C 
ATOM      9  C   UNL     1       7.859  15.069  25.042  0.00  0.00    +0.000 C 
ATOM     10  N   UNL     1       9.180  14.738  21.703  0.00  0.00    +0.000 NA
ATOM     11  C   UNL     1       8.609  13.690  20.971  0.00  0.00    +0.000 A 
ATOM     12  C   UNL     1       7.827  12.817  21.765  0.00  0.00    +0.000 A 
ATOM     13  S   UNL     1       9.237  11.446  21.682  0.00  0.00    +0.000 S 
ATOM     14  C   UNL     1      10.191  12.247  20.482  0.00  0.00    +0.000 A 
ATOM     15  C   UNL     1      11.541  12.059  20.103  0.00  0.00    +0.000 A 
ATOM     16  C   UNL     1      12.071  12.850  19.069  0.00  0.00    +0.000 A 
ATOM     17  C   UNL     1      11.267  13.762  18.402  0.00  0.00    +0.000 A 
ATOM     18 CL   UNL     1      11.928  14.755  17.161  0.00  0.00    +0.000 Cl
ATOM     19  C   UNL     1       9.943  13.962  18.808  0.00  0.00    +0.000 A 
ATOM     20  C   UNL     1       9.404  13.223  19.889  0.00  0.00    +0.000 A 
ATOM     21  H   UNL     1       7.293  15.414  22.028  0.00  0.00    +0.000 HD
ENDROOT
BRANCH   1  26
ATOM     22  C   UNL     1       5.262  12.657  27.375  0.00  0.00    +0.000 A 
ATOM     23  C   UNL     1       6.274  12.004  28.053  0.00  0.00    +0.000 A 
ATOM     24  C   UNL     1       7.531  12.063  27.511  0.00  0.00    +0.000 A 
ATOM     25  C   UNL     1       7.723  12.590  26.207  0.00  0.00    +0.000 A 
ATOM     26  C   UNL     1       6.694  13.225  25.252  0.00  0.00    +0.000 A 
ATOM     27  C   UNL     1       5.487  13.390  26.167  0.00  0.00    +0.000 A 
BRANCH  22  29
ATOM     28  O   UNL     1       3.162  13.216  28.130  0.00  0.00    +0.000 OA
ATOM     29  N   UNL     1       3.890  12.301  27.730  0.00  0.00    +0.000 N 
ATOM     30  O   UNL     1       3.582  11.102  27.707  0.00  0.00    +0.000 OA
ENDBRANCH  22  29
ENDBRANCH   1  26
TORSDOF 2
ENDMDL
MODEL 4
REMARK VINA RESULT:      -6.7      4.324      6.739
REMARK  Name = 
REMARK  2 active torsions:
REMARK  status: ('A' for Active; 'I' for Inactive)
REMARK    1  A    between atoms: N_2  and  C_4
REMARK    2  A    between atoms: C_8  and  C_9
REMARK                            x       y       z     vdW  Elec       q    Type
REMARK                         _______ _______ _______ _____ _____    ______ ____
ROOT
ATOM      1  C   UNL     1      -0.211  12.674  21.800  0.00  0.00    +0.000 C 
ATOM      2  N   UNL     1       0.021  14.099  21.439  0.00  0.00    +0.000 N 
ATOM      3  C   UNL     1      -1.290  14.455  21.250  0.00  0.00    +0.000 C 
ATOM      4  N   UNL     1      -1.690  13.164  20.578  0.00  0.00    +0.000 N 
ATOM      5  C   UNL     1      -1.826  11.447  21.508  0.00  0.00    +0.000 C 
ATOM      6  C   UNL     1      -0.142  10.692  22.224  0.00  0.00    +0.000 C 
ATOM      7  O   UNL     1       1.413  11.455  21.534  0.00  0.00    +0.000 OA
ATOM      8  C   UNL     1       1.402  12.634  20.139  0.00  0.00    +0.000 C 
ATOM      9  C   UNL     1      -0.207  13.380  19.452  0.00  0.00    +0.000 C 
ATOM     10  N   UNL     1      -1.507  15.249  22.248  0.00  0.00    +0.000 NA
ATOM     11  C   UNL     1      -1.641  14.495  23.419  0.00  0.00    +0.000 A 
ATOM     12  C   UNL     1      -1.491  13.103  23.206  0.00  0.00    +0.000 A 
ATOM     13  S   UNL     1      -3.432  12.842  23.404  0.00  0.00    +0.000 S 
ATOM     14  C   UNL     1      -3.768  14.443  23.967  0.00  0.00    +0.000 A 
ATOM     15  C   UNL     1      -4.987  15.158  24.035  0.00  0.00    +0.000 A 
ATOM     16  C   UNL     1      -4.979  16.463  24.558  0.00  0.00    +0.000 A 
ATOM     17  C   UNL     1      -3.804  17.017  25.043  0.00  0.00    +0.000 A 
ATOM     18 CL   UNL     1      -3.789  18.628  25.648  0.00  0.00    +0.000 Cl
ATOM     19  C   UNL     1      -2.599  16.312  24.940  0.00  0.00    +0.000 A 
ATOM     20  C   UNL     1      -2.570  15.021  24.359  0.00  0.00    +0.000 A 
ATOM     21  H   UNL     1       0.432  14.645  22.193  0.00  0.00    +0.000 HD
ENDROOT
BRANCH   1  26
ATOM     22  C   UNL     1      -1.363  10.387  17.993  0.00  0.00    +0.000 A 
ATOM     23  C   UNL     1      -0.228   9.728  17.562  0.00  0.00    +0.000 A 
ATOM     24  C   UNL     1       0.827   9.662  18.434  0.00  0.00    +0.000 A 
ATOM     25  C   UNL     1       0.813  10.423  19.632  0.00  0.00    +0.000 A 
ATOM     26  C   UNL     1      -0.301  11.322  20.202  0.00  0.00    +0.000 A 
ATOM     27  C   UNL     1      -1.474  10.967  19.296  0.00  0.00    +0.000 A 
BRANCH  22  29
ATOM     28  O   UNL     1      -3.170  11.626  17.293  0.00  0.00    +0.000 OA
ATOM     29  N   UNL     1      -2.330  10.778  16.970  0.00  0.00    +0.000 N 
ATOM     30  O   UNL     1      -2.311  10.166  15.895  0.00  0.00    +0.000 OA
ENDBRANCH  22  29
ENDBRANCH   1  26
TORSDOF 2
ENDMDL
MODEL 5
REMARK VINA RESULT:      -6.7      3.381      4.361
REMARK  Name = 
REMARK  2 active torsions:
REMARK  status: ('A' for Active; 'I' for Inactive)
REMARK    1  A    between atoms: N_2  and  C_4
REMARK    2  A    between atoms: C_8  and  C_9
REMARK                            x       y       z     vdW  Elec       q    Type
REMARK                         _______ _______ _______ _____ _____    ______ ____
ROOT
ATOM      1  C   UNL     1      -1.720  13.980  21.760  0.00  0.00    +0.000 C 
ATOM      2  N   UNL     1      -0.936  12.966  22.516  0.00  0.00    +0.000 N 
ATOM      3  C   UNL     1      -1.449  11.849  21.907  0.00  0.00    +0.000 C 
ATOM      4  N   UNL     1      -2.865  12.367  21.835  0.00  0.00    +0.000 N 
ATOM      5  C   UNL     1      -3.436  13.818  20.653  0.00  0.00    +0.000 C 
ATOM      6  C   UNL     1      -2.674  15.608  21.015  0.00  0.00    +0.000 C 
ATOM      7  O   UNL     1      -1.884  15.796  22.694  0.00  0.00    +0.000 OA
ATOM      8  C   UNL     1      -2.007  14.519  23.995  0.00  0.00    +0.000 C 
ATOM      9  C   UNL     1      -2.722  12.790  23.655  0.00  0.00    +0.000 C 
ATOM     10  N   UNL     1      -0.436  11.415  21.229  0.00  0.00    +0.000 NA
ATOM     11  C   UNL     1      -0.252  12.226  20.102  0.00  0.00    +0.000 A 
ATOM     12  C   UNL     1      -1.189  13.285  20.019  0.00  0.00    +0.000 A 
ATOM     13  S   UNL     1      -2.149  12.350  18.577  0.00  0.00    +0.000 S 
ATOM     14  C   UNL     1      -0.952  11.123  18.336  0.00  0.00    +0.000 A 
ATOM     15  C   UNL     1      -1.037   9.871  17.684  0.00  0.00    +0.000 A 
ATOM     16  C   UNL     1       0.110   9.061  17.620  0.00  0.00    +0.000 A 
ATOM     17  C   UNL     1       1.313   9.508  18.145  0.00  0.00    +0.000 A 
ATOM     18 CL   UNL     1       2.708   8.500  18.098  0.00  0.00    +0.000 Cl
ATOM     19  C   UNL     1       1.376  10.734  18.816  0.00  0.00    +0.000 A 
ATOM     20  C   UNL     1       0.219  11.540  18.950  0.00  0.00    +0.000 A 
ATOM     21  H   UNL     1       0.067  13.029  22.355  0.00  0.00    +0.000 HD
ENDROOT
BRANCH   1  26
ATOM     22  C   UNL     1      -5.943  13.844  23.550  0.00  0.00    +0.000 A 
ATOM     23  C   UNL     1      -6.150  15.056  24.180  0.00  0.00    +0.000 A 
ATOM     24  C   UNL     1      -5.256  16.060  23.917  0.00  0.00    +0.000 A 
ATOM     25  C   UNL     1      -4.063  15.785  23.199  0.00  0.00    +0.000 A 
ATOM     26  C   UNL     1      -3.599  14.467  22.550  0.00  0.00    +0.000 A 
ATOM     27  C   UNL     1      -4.863  13.620  22.638  0.00  0.00    +0.000 A 
BRANCH  22  29
ATOM     28  O   UNL     1      -5.954  11.744  24.489  0.00  0.00    +0.000 OA
ATOM     29  N   UNL     1      -6.650  12.686  24.092  0.00  0.00    +0.000 N 
ATOM     30  O   UNL     1      -7.885  12.681  24.021  0.00  0.00    +0.000 OA
ENDBRANCH  22  29
ENDBRANCH   1  26
TORSDOF 2
ENDMDL
MODEL 6
REMARK VINA RESULT:      -6.7      7.738      9.043
REMARK  Name = 
REMARK  2 active torsions:
REMARK  status: ('A' for Active; 'I' for Inactive)
REMARK    1  A    between atoms: N_2  and  C_4
REMARK    2  A    between atoms: C_8  and  C_9
REMARK                            x       y       z     vdW  Elec       q    Type
REMARK                         _______ _______ _______ _____ _____    ______ ____
ROOT
ATOM      1  C   UNL     1       6.838  13.827  22.928  0.00  0.00    +0.000 C 
ATOM      2  N   UNL     1       7.030  15.269  22.617  0.00  0.00    +0.000 N 
ATOM      3  C   UNL     1       8.402  15.277  22.628  0.00  0.00    +0.000 C 
ATOM      4  N   UNL     1       8.537  14.341  23.805  0.00  0.00    +0.000 N 
ATOM      5  C   UNL     1       8.104  12.434  23.737  0.00  0.00    +0.000 C 
ATOM      6  C   UNL     1       6.205  11.966  23.431  0.00  0.00    +0.000 C 
ATOM      7  O   UNL     1       5.002  13.364  23.709  0.00  0.00    +0.000 OA
ATOM      8  C   UNL     1       5.495  14.966  24.433  0.00  0.00    +0.000 C 
ATOM      9  C   UNL     1       7.317  15.435  24.716  0.00  0.00    +0.000 C 
ATOM     10  N   UNL     1       8.687  15.470  21.381  0.00  0.00    +0.000 NA
ATOM     11  C   UNL     1       8.471  14.284  20.668  0.00  0.00    +0.000 A 
ATOM     12  C   UNL     1       7.994  13.225  21.479  0.00  0.00    +0.000 A 
ATOM     13  S   UNL     1       9.760  12.357  21.418  0.00  0.00    +0.000 S 
ATOM     14  C   UNL     1      10.423  13.393  20.201  0.00  0.00    +0.000 A 
ATOM     15  C   UNL     1      11.766  13.625  19.823  0.00  0.00    +0.000 A 
ATOM     16  C   UNL     1      12.029  14.523  18.774  0.00  0.00    +0.000 A 
ATOM     17  C   UNL     1      10.985  15.130  18.092  0.00  0.00    +0.000 A 
ATOM     18 CL   UNL     1      11.310  16.257  16.832  0.00  0.00    +0.000 Cl
ATOM     19  C   UNL     1       9.663  14.918  18.498  0.00  0.00    +0.000 A 
ATOM     20  C   UNL     1       9.375  14.067  19.593  0.00  0.00    +0.000 A 
ATOM     21  H   UNL     1       6.682  15.535  21.698  0.00  0.00    +0.000 HD
ENDROOT
BRANCH   1  26
ATOM     22  C   UNL     1       5.803  12.014  27.013  0.00  0.00    +0.000 A 
ATOM     23  C   UNL     1       6.931  12.134  27.803  0.00  0.00    +0.000 A 
ATOM     24  C   UNL     1       7.930  12.952  27.346  0.00  0.00    +0.000 A 
ATOM     25  C   UNL     1       7.882  13.472  26.026  0.00  0.00    +0.000 A 
ATOM     26  C   UNL     1       6.779  13.324  24.961  0.00  0.00    +0.000 A 
ATOM     27  C   UNL     1       5.644  12.716  25.777  0.00  0.00    +0.000 A 
BRANCH  22  29
ATOM     28  O   UNL     1       5.172  10.211  28.297  0.00  0.00    +0.000 OA
ATOM     29  N   UNL     1       4.914  10.889  27.296  0.00  0.00    +0.000 N 
ATOM     30  O   UNL     1       4.034  10.629  26.465  0.00  0.00    +0.000 OA
ENDBRANCH  22  29
ENDBRANCH   1  26
TORSDOF 2
ENDMDL
MODEL 7
REMARK VINA RESULT:      -6.4      4.164      7.748
REMARK  Name = 
REMARK  2 active torsions:
REMARK  status: ('A' for Active; 'I' for Inactive)
REMARK    1  A    between atoms: N_2  and  C_4
REMARK    2  A    between atoms: C_8  and  C_9
REMARK                            x       y       z     vdW  Elec       q    Type
REMARK                         _______ _______ _______ _____ _____    ______ ____
ROOT
ATOM      1  C   UNL     1       0.619  13.785  21.409  0.00  0.00    +0.000 C 
ATOM      2  N   UNL     1       0.076  14.757  22.396  0.00  0.00    +0.000 N 
ATOM      3  C   UNL     1      -1.047  15.119  21.696  0.00  0.00    +0.000 C 
ATOM      4  N   UNL     1      -0.373  15.129  20.346  0.00  0.00    +0.000 N 
ATOM      5  C   UNL     1       0.229  13.515  19.416  0.00  0.00    +0.000 C 
ATOM      6  C   UNL     1       1.691  12.493  20.271  0.00  0.00    +0.000 C 
ATOM      7  O   UNL     1       2.626  13.422  21.591  0.00  0.00    +0.000 OA
ATOM      8  C   UNL     1       2.380  15.203  21.911  0.00  0.00    +0.000 C 
ATOM      9  C   UNL     1       0.968  16.193  21.109  0.00  0.00    +0.000 C 
ATOM     10  N   UNL     1      -1.996  14.605  22.411  0.00  0.00    +0.000 NA
ATOM     11  C   UNL     1      -2.033  13.221  22.204  0.00  0.00    +0.000 A 
ATOM     12  C   UNL     1      -1.039  12.765  21.304  0.00  0.00    +0.000 A 
ATOM     13  S   UNL     1      -2.395  12.513  19.901  0.00  0.00    +0.000 S 
ATOM     14  C   UNL     1      -3.763  12.760  20.931  0.00  0.00    +0.000 A 
ATOM     15  C   UNL     1      -5.110  13.058  20.618  0.00  0.00    +0.000 A 
ATOM     16  C   UNL     1      -6.036  13.196  21.667  0.00  0.00    +0.000 A 
ATOM     17  C   UNL     1      -5.641  12.994  22.980  0.00  0.00    +0.000 A 
ATOM     18 CL   UNL     1      -6.768  13.199  24.266  0.00  0.00    +0.000 Cl
ATOM     19  C   UNL     1      -4.300  12.733  23.280  0.00  0.00    +0.000 A 
ATOM     20  C   UNL     1      -3.335  12.652  22.246  0.00  0.00    +0.000 A 
ATOM     21  H   UNL     1      -0.182  14.330  23.284  0.00  0.00    +0.000 HD
ENDROOT
BRANCH   1  26
ATOM     22  C   UNL     1       2.444  16.342  18.066  0.00  0.00    +0.000 A 
ATOM     23  C   UNL     1       3.807  16.120  18.090  0.00  0.00    +0.000 A 
ATOM     24  C   UNL     1       4.257  15.064  18.838  0.00  0.00    +0.000 A 
ATOM     25  C   UNL     1       3.371  14.377  19.709  0.00  0.00    +0.000 A 
ATOM     26  C   UNL     1       1.859  14.581  19.919  0.00  0.00    +0.000 A 
ATOM     27  C   UNL     1       1.511  15.512  18.764  0.00  0.00    +0.000 A 
BRANCH  22  29
ATOM     28  O   UNL     1       2.207  17.912  16.401  0.00  0.00    +0.000 OA
ATOM     29  N   UNL     1       1.994  17.649  17.590  0.00  0.00    +0.000 N 
ATOM     30  O   UNL     1       1.530  18.437  18.424  0.00  0.00    +0.000 OA
ENDBRANCH  22  29
ENDBRANCH   1  26
TORSDOF 2
ENDMDL
MODEL 8
REMARK VINA RESULT:      -6.4      1.806      2.005
REMARK  Name = 
REMARK  2 active torsions:
REMARK  status: ('A' for Active; 'I' for Inactive)
REMARK    1  A    between atoms: N_2  and  C_4
REMARK    2  A    between atoms: C_8  and  C_9
REMARK                            x       y       z     vdW  Elec       q    Type
REMARK                         _______ _______ _______ _____ _____    ______ ____
ROOT
ATOM      1  C   UNL     1      -0.246  13.482  21.903  0.00  0.00    +0.000 C 
ATOM      2  N   UNL     1       0.494  12.339  21.302  0.00  0.00    +0.000 N 
ATOM      3  C   UNL     1       0.522  12.800  20.010  0.00  0.00    +0.000 C 
ATOM      4  N   UNL     1      -0.879  13.361  20.031  0.00  0.00    +0.000 N 
ATOM      5  C   UNL     1      -1.405  14.943  21.055  0.00  0.00    +0.000 C 
ATOM      6  C   UNL     1      -1.307  14.796  23.026  0.00  0.00    +0.000 C 
ATOM      7  O   UNL     1      -1.180  13.052  23.674  0.00  0.00    +0.000 OA
ATOM      8  C   UNL     1      -1.370  11.582  22.606  0.00  0.00    +0.000 C 
ATOM      9  C   UNL     1      -1.448  11.709  20.709  0.00  0.00    +0.000 C 
ATOM     10  N   UNL     1       1.777  13.070  19.841  0.00  0.00    +0.000 NA
ATOM     11  C   UNL     1       2.089  14.256  20.515  0.00  0.00    +0.000 A 
ATOM     12  C   UNL     1       0.982  14.819  21.196  0.00  0.00    +0.000 A 
ATOM     13  S   UNL     1       0.825  16.221  19.823  0.00  0.00    +0.000 S 
ATOM     14  C   UNL     1       2.316  15.856  19.026  0.00  0.00    +0.000 A 
ATOM     15  C   UNL     1       2.784  16.213  17.740  0.00  0.00    +0.000 A 
ATOM     16  C   UNL     1       4.063  15.787  17.341  0.00  0.00    +0.000 A 
ATOM     17  C   UNL     1       4.868  15.073  18.215  0.00  0.00    +0.000 A 
ATOM     18 CL   UNL     1       6.419  14.521  17.712  0.00  0.00    +0.000 Cl
ATOM     19  C   UNL     1       4.381  14.697  19.472  0.00  0.00    +0.000 A 
ATOM     20  C   UNL     1       3.072  15.059  19.873  0.00  0.00    +0.000 A 
ATOM     21  H   UNL     1       1.440  12.236  21.663  0.00  0.00    +0.000 HD
ENDROOT
BRANCH   1  26
ATOM     22  C   UNL     1      -4.614  12.779  20.688  0.00  0.00    +0.000 A 
ATOM     23  C   UNL     1      -5.338  12.638  21.857  0.00  0.00    +0.000 A 
ATOM     24  C   UNL     1      -4.717  12.994  23.025  0.00  0.00    +0.000 A 
ATOM     25  C   UNL     1      -3.327  13.287  23.035  0.00  0.00    +0.000 A 
ATOM     26  C   UNL     1      -2.337  13.351  21.857  0.00  0.00    +0.000 A 
ATOM     27  C   UNL     1      -3.279  13.292  20.661  0.00  0.00    +0.000 A 
BRANCH  22  29
ATOM     28  O   UNL     1      -4.352  11.998  18.540  0.00  0.00    +0.000 OA
ATOM     29  N   UNL     1      -5.115  12.074  19.510  0.00  0.00    +0.000 N 
ATOM     30  O   UNL     1      -6.293  11.695  19.524  0.00  0.00    +0.000 OA
ENDBRANCH  22  29
ENDBRANCH   1  26
TORSDOF 2
ENDMDL
MODEL 9
REMARK VINA RESULT:      -6.4      3.041      4.227
REMARK  Name = 
REMARK  2 active torsions:
REMARK  status: ('A' for Active; 'I' for Inactive)
REMARK    1  A    between atoms: N_2  and  C_4
REMARK    2  A    between atoms: C_8  and  C_9
REMARK                            x       y       z     vdW  Elec       q    Type
REMARK                         _______ _______ _______ _____ _____    ______ ____
ROOT
ATOM      1  C   UNL     1      -3.222  14.694  22.658  0.00  0.00    +0.000 C 
ATOM      2  N   UNL     1      -2.243  13.732  22.085  0.00  0.00    +0.000 N 
ATOM      3  C   UNL     1      -2.404  14.072  20.766  0.00  0.00    +0.000 C 
ATOM      4  N   UNL     1      -3.900  14.255  20.850  0.00  0.00    +0.000 N 
ATOM      5  C   UNL     1      -4.766  15.731  21.799  0.00  0.00    +0.000 C 
ATOM      6  C   UNL     1      -4.529  15.783  23.763  0.00  0.00    +0.000 C 
ATOM      7  O   UNL     1      -3.917  14.192  24.519  0.00  0.00    +0.000 OA
ATOM      8  C   UNL     1      -3.772  12.637  23.571  0.00  0.00    +0.000 C 
ATOM      9  C   UNL     1      -3.980  12.576  21.682  0.00  0.00    +0.000 C 
ATOM     10  N   UNL     1      -1.274  14.639  20.487  0.00  0.00    +0.000 NA
ATOM     11  C   UNL     1      -1.247  15.919  21.052  0.00  0.00    +0.000 A 
ATOM     12  C   UNL     1      -2.425  16.236  21.772  0.00  0.00    +0.000 A 
ATOM     13  S   UNL     1      -3.016  17.428  20.321  0.00  0.00    +0.000 S 
ATOM     14  C   UNL     1      -1.525  17.389  19.444  0.00  0.00    +0.000 A 
ATOM     15  C   UNL     1      -1.236  17.743  18.105  0.00  0.00    +0.000 A 
ATOM     16  C   UNL     1       0.087  17.626  17.644  0.00  0.00    +0.000 A 
ATOM     17  C   UNL     1       1.096  17.220  18.504  0.00  0.00    +0.000 A 
ATOM     18 CL   UNL     1       2.708  17.043  17.929  0.00  0.00    +0.000 Cl
ATOM     19  C   UNL     1       0.791  16.842  19.817  0.00  0.00    +0.000 A 
ATOM     20  C   UNL     1      -0.544  16.889  20.287  0.00  0.00    +0.000 A 
ATOM     21  H   UNL     1      -1.285  13.905  22.382  0.00  0.00    +0.000 HD
ENDROOT
BRANCH   1  26
ATOM     22  C   UNL     1      -7.239  12.593  21.945  0.00  0.00    +0.000 A 
ATOM     23  C   UNL     1      -7.916  12.604  23.149  0.00  0.00    +0.000 A 
ATOM     24  C   UNL     1      -7.426  13.418  24.136  0.00  0.00    +0.000 A 
ATOM     25  C   UNL     1      -6.162  14.045  23.984  0.00  0.00    +0.000 A 
ATOM     26  C   UNL     1      -5.206  14.028  22.775  0.00  0.00    +0.000 A 
ATOM     27  C   UNL     1      -6.083  13.401  21.699  0.00  0.00    +0.000 A 
BRANCH  22  29
ATOM     28  O   UNL     1      -7.574  10.355  21.534  0.00  0.00    +0.000 OA
ATOM     29  N   UNL     1      -7.521  11.485  21.036  0.00  0.00    +0.000 N 
ATOM     30  O   UNL     1      -7.584  11.735  19.825  0.00  0.00    +0.000 OA
ENDBRANCH  22  29
ENDBRANCH   1  26
TORSDOF 2
ENDMDL
