MODEL 1
REMARK VINA RESULT:      -6.8      0.000      0.000
REMARK  Name = 
REMARK  8 active torsions:
REMARK  status: ('A' for Active; 'I' for Inactive)
REMARK    1  A    between atoms: C_1  and  C_2
REMARK    2  A    between atoms: C_2  and  C_3
REMARK    3  A    between atoms: C_4  and  C_5
REMARK    4  A    between atoms: C_12  and  C_13
REMARK    5  A    between atoms: N_15  and  C_16
REMARK    6  A    between atoms: C_20  and  C_21
REMARK    7  A    between atoms: C_21  and  O_23
REMARK    8  A    between atoms: O_23  and  C_24
REMARK                            x       y       z     vdW  Elec       q    Type
REMARK                         _______ _______ _______ _____ _____    ______ ____
ROOT
ATOM      1  C   UNL     1      -2.497  11.404  18.538  0.00  0.00    +0.000 A 
ATOM      2  C   UNL     1      -2.339  11.865  19.793  0.00  0.00    +0.000 A 
ATOM      3  C   UNL     1      -3.261  12.863  20.443  0.00  0.00    +0.000 C 
ATOM      4  N   UNL     1      -1.320  11.470  20.612  0.00  0.00    +0.000 NA
ATOM      5  C   UNL     1      -0.461  10.612  20.175  0.00  0.00    +0.000 A 
ATOM      6  N   UNL     1      -0.455  10.090  18.909  0.00  0.00    +0.000 N 
ATOM      7  C   UNL     1      -1.477  10.446  18.036  0.00  0.00    +0.000 A 
ATOM      8  O   UNL     1      -1.569  10.000  16.896  0.00  0.00    +0.000 OA
ATOM      9  C   UNL     1       0.474   9.074  18.403  0.00  0.00    +0.000 C 
ATOM     10  C   UNL     1       1.740   8.823  19.213  0.00  0.00    +0.000 C 
ATOM     11  C   UNL     1       1.359   8.614  20.666  0.00  0.00    +0.000 C 
ATOM     12  S   UNL     1       0.774  10.175  21.328  0.00  0.00    +0.000 S 
ENDROOT
BRANCH  10  13
ATOM     13  C   UNL     1       2.458   7.584  18.685  0.00  0.00    +0.000 C 
ATOM     14  O   UNL     1       2.621   7.392  17.482  0.00  0.00    +0.000 OA
ATOM     15  N   UNL     1       2.801   6.676  19.681  0.00  0.00    +0.000 N 
ATOM     16  H   UNL     1       2.196   6.629  20.492  0.00  0.00    +0.000 HD
BRANCH  15  17
ATOM     17  C   UNL     1       3.398   5.487  19.307  0.00  0.00    +0.000 A 
ATOM     18  S   UNL     1       5.089   5.576  19.177  0.00  0.00    +0.000 S 
ATOM     19  C   UNL     1       5.206   3.894  18.892  0.00  0.00    +0.000 A 
ATOM     20  C   UNL     1       3.963   3.314  18.773  0.00  0.00    +0.000 A 
ATOM     21  C   UNL     1       2.882   4.240  19.005  0.00  0.00    +0.000 A 
BRANCH  21  22
ATOM     22  C   UNL     1       1.458   3.934  18.879  0.00  0.00    +0.000 C 
ATOM     23  O   UNL     1       0.925   3.572  17.833  0.00  0.00    +0.000 OA
BRANCH  22  24
ATOM     24  O   UNL     1       0.805   4.036  20.073  0.00  0.00    +0.000 OA
ATOM     25  C   UNL     1       1.228   3.110  21.075  0.00  0.00    +0.000 C 
ENDBRANCH  22  24
ENDBRANCH  21  22
ENDBRANCH  15  17
ENDBRANCH  10  13
BRANCH   1  27
ATOM     26  C   UNL     1      -4.852  10.854  17.850  0.00  0.00    +0.000 C 
ATOM     27  C   UNL     1      -3.638  11.740  17.617  0.00  0.00    +0.000 C 
ENDBRANCH   1  27
TORSDOF 5
ENDMDL
MODEL 2
REMARK VINA RESULT:      -6.7      1.636      1.925
REMARK  Name = 
REMARK  8 active torsions:
REMARK  status: ('A' for Active; 'I' for Inactive)
REMARK    1  A    between atoms: C_1  and  C_2
REMARK    2  A    between atoms: C_2  and  C_3
REMARK    3  A    between atoms: C_4  and  C_5
REMARK    4  A    between atoms: C_12  and  C_13
REMARK    5  A    between atoms: N_15  and  C_16
REMARK    6  A    between atoms: C_20  and  C_21
REMARK    7  A    between atoms: C_21  and  O_23
REMARK    8  A    between atoms: O_23  and  C_24
REMARK                            x       y       z     vdW  Elec       q    Type
REMARK                         _______ _______ _______ _____ _____    ______ ____
ROOT
ATOM      1  C   UNL     1      -1.512  12.233  20.782  0.00  0.00    +0.000 A 
ATOM      2  C   UNL     1      -1.277  11.957  22.079  0.00  0.00    +0.000 A 
ATOM      3  C   UNL     1      -1.938  12.679  23.224  0.00  0.00    +0.000 C 
ATOM      4  N   UNL     1      -0.411  10.986  22.491  0.00  0.00    +0.000 NA
ATOM      5  C   UNL     1       0.219  10.289  21.606  0.00  0.00    +0.000 A 
ATOM      6  N   UNL     1       0.128  10.482  20.253  0.00  0.00    +0.000 N 
ATOM      7  C   UNL     1      -0.750  11.448  19.775  0.00  0.00    +0.000 A 
ATOM      8  O   UNL     1      -0.920  11.665  18.579  0.00  0.00    +0.000 OA
ATOM      9  C   UNL     1       0.788   9.671  19.224  0.00  0.00    +0.000 C 
ATOM     10  C   UNL     1       1.929   8.769  19.674  0.00  0.00    +0.000 C 
ATOM     11  C   UNL     1       1.469   7.957  20.870  0.00  0.00    +0.000 C 
ATOM     12  S   UNL     1       1.274   9.066  22.266  0.00  0.00    +0.000 S 
ENDROOT
BRANCH  10  13
ATOM     13  C   UNL     1       2.330   7.831  18.538  0.00  0.00    +0.000 C 
ATOM     14  O   UNL     1       1.753   7.843  17.453  0.00  0.00    +0.000 OA
ATOM     15  N   UNL     1       3.317   6.919  18.895  0.00  0.00    +0.000 N 
ATOM     16  H   UNL     1       3.339   6.616  19.861  0.00  0.00    +0.000 HD
BRANCH  15  17
ATOM     17  C   UNL     1       3.710   5.978  17.962  0.00  0.00    +0.000 A 
ATOM     18  S   UNL     1       4.975   6.495  16.954  0.00  0.00    +0.000 S 
ATOM     19  C   UNL     1       5.092   4.952  16.226  0.00  0.00    +0.000 A 
ATOM     20  C   UNL     1       4.094   4.110  16.662  0.00  0.00    +0.000 A 
ATOM     21  C   UNL     1       3.261   4.701  17.680  0.00  0.00    +0.000 A 
BRANCH  21  22
ATOM     22  C   UNL     1       2.082   4.079  18.281  0.00  0.00    +0.000 C 
ATOM     23  O   UNL     1       1.180   3.553  17.635  0.00  0.00    +0.000 OA
BRANCH  22  24
ATOM     24  O   UNL     1       2.134   4.096  19.645  0.00  0.00    +0.000 OA
ATOM     25  C   UNL     1       0.877   3.919  20.301  0.00  0.00    +0.000 C 
ENDBRANCH  22  24
ENDBRANCH  21  22
ENDBRANCH  15  17
ENDBRANCH  10  13
BRANCH   1  27
ATOM     26  C   UNL     1      -3.905  12.647  20.132  0.00  0.00    +0.000 C 
ATOM     27  C   UNL     1      -2.509  13.233  20.264  0.00  0.00    +0.000 C 
ENDBRANCH   1  27
TORSDOF 5
ENDMDL
MODEL 3
REMARK VINA RESULT:      -6.5      2.409      3.258
REMARK  Name = 
REMARK  8 active torsions:
REMARK  status: ('A' for Active; 'I' for Inactive)
REMARK    1  A    between atoms: C_1  and  C_2
REMARK    2  A    between atoms: C_2  and  C_3
REMARK    3  A    between atoms: C_4  and  C_5
REMARK    4  A    between atoms: C_12  and  C_13
REMARK    5  A    between atoms: N_15  and  C_16
REMARK    6  A    between atoms: C_20  and  C_21
REMARK    7  A    between atoms: C_21  and  O_23
REMARK    8  A    between atoms: O_23  and  C_24
REMARK                            x       y       z     vdW  Elec       q    Type
REMARK                         _______ _______ _______ _____ _____    ______ ____
ROOT
ATOM      1  C   UNL     1      -0.920  12.504  20.581  0.00  0.00    +0.000 A 
ATOM      2  C   UNL     1      -0.903  12.272  21.907  0.00  0.00    +0.000 A 
ATOM      3  C   UNL     1      -1.564  13.163  22.925  0.00  0.00    +0.000 C 
ATOM      4  N   UNL     1      -0.281  11.194  22.469  0.00  0.00    +0.000 NA
ATOM      5  C   UNL     1       0.322  10.347  21.703  0.00  0.00    +0.000 A 
ATOM      6  N   UNL     1       0.437  10.470  20.344  0.00  0.00    +0.000 N 
ATOM      7  C   UNL     1      -0.189  11.541  19.716  0.00  0.00    +0.000 A 
ATOM      8  O   UNL     1      -0.166  11.710  18.500  0.00  0.00    +0.000 OA
ATOM      9  C   UNL     1       1.068   9.498  19.444  0.00  0.00    +0.000 C 
ATOM     10  C   UNL     1       1.965   8.444  20.078  0.00  0.00    +0.000 C 
ATOM     11  C   UNL     1       1.223   7.796  21.231  0.00  0.00    +0.000 C 
ATOM     12  S   UNL     1       1.053   9.005  22.544  0.00  0.00    +0.000 S 
ENDROOT
BRANCH  10  13
ATOM     13  C   UNL     1       2.334   7.384  19.042  0.00  0.00    +0.000 C 
ATOM     14  O   UNL     1       2.260   7.604  17.835  0.00  0.00    +0.000 OA
ATOM     15  N   UNL     1       2.649   6.150  19.601  0.00  0.00    +0.000 N 
ATOM     16  H   UNL     1       2.184   5.902  20.466  0.00  0.00    +0.000 HD
BRANCH  15  17
ATOM     17  C   UNL     1       2.934   5.099  18.750  0.00  0.00    +0.000 A 
ATOM     18  S   UNL     1       1.586   4.141  18.362  0.00  0.00    +0.000 S 
ATOM     19  C   UNL     1       2.497   3.223  17.243  0.00  0.00    +0.000 A 
ATOM     20  C   UNL     1       3.830   3.568  17.272  0.00  0.00    +0.000 A 
ATOM     21  C   UNL     1       4.110   4.668  18.163  0.00  0.00    +0.000 A 
BRANCH  21  22
ATOM     22  C   UNL     1       5.437   5.207  18.457  0.00  0.00    +0.000 C 
ATOM     23  O   UNL     1       5.840   5.454  19.590  0.00  0.00    +0.000 OA
BRANCH  22  24
ATOM     24  O   UNL     1       6.195   5.343  17.330  0.00  0.00    +0.000 OA
ATOM     25  C   UNL     1       7.419   4.607  17.332  0.00  0.00    +0.000 C 
ENDBRANCH  22  24
ENDBRANCH  21  22
ENDBRANCH  15  17
ENDBRANCH  10  13
BRANCH   1  27
ATOM     26  C   UNL     1      -0.810  14.888  19.790  0.00  0.00    +0.000 C 
ATOM     27  C   UNL     1      -1.651  13.626  19.897  0.00  0.00    +0.000 C 
ENDBRANCH   1  27
TORSDOF 5
ENDMDL
MODEL 4
REMARK VINA RESULT:      -6.4      2.249      3.062
REMARK  Name = 
REMARK  8 active torsions:
REMARK  status: ('A' for Active; 'I' for Inactive)
REMARK    1  A    between atoms: C_1  and  C_2
REMARK    2  A    between atoms: C_2  and  C_3
REMARK    3  A    between atoms: C_4  and  C_5
REMARK    4  A    between atoms: C_12  and  C_13
REMARK    5  A    between atoms: N_15  and  C_16
REMARK    6  A    between atoms: C_20  and  C_21
REMARK    7  A    between atoms: C_21  and  O_23
REMARK    8  A    between atoms: O_23  and  C_24
REMARK                            x       y       z     vdW  Elec       q    Type
REMARK                         _______ _______ _______ _____ _____    ______ ____
ROOT
ATOM      1  C   UNL     1      -1.422  12.305  20.832  0.00  0.00    +0.000 A 
ATOM      2  C   UNL     1      -1.145  12.140  22.139  0.00  0.00    +0.000 A 
ATOM      3  C   UNL     1      -1.735  12.986  23.236  0.00  0.00    +0.000 C 
ATOM      4  N   UNL     1      -0.294  11.180  22.606  0.00  0.00    +0.000 NA
ATOM      5  C   UNL     1       0.277  10.384  21.766  0.00  0.00    +0.000 A 
ATOM      6  N   UNL     1       0.138  10.456  20.405  0.00  0.00    +0.000 N 
ATOM      7  C   UNL     1      -0.727  11.406  19.873  0.00  0.00    +0.000 A 
ATOM      8  O   UNL     1      -0.938  11.519  18.669  0.00  0.00    +0.000 OA
ATOM      9  C   UNL     1       0.729   9.532  19.431  0.00  0.00    +0.000 C 
ATOM     10  C   UNL     1       1.858   8.634  19.920  0.00  0.00    +0.000 C 
ATOM     11  C   UNL     1       1.421   7.951  21.202  0.00  0.00    +0.000 C 
ATOM     12  S   UNL     1       1.319   9.189  22.495  0.00  0.00    +0.000 S 
ENDROOT
BRANCH  10  13
ATOM     13  C   UNL     1       2.182   7.584  18.860  0.00  0.00    +0.000 C 
ATOM     14  O   UNL     1       1.925   7.760  17.671  0.00  0.00    +0.000 OA
ATOM     15  N   UNL     1       2.687   6.401  19.390  0.00  0.00    +0.000 N 
ATOM     16  H   UNL     1       2.370   6.137  20.315  0.00  0.00    +0.000 HD
BRANCH  15  17
ATOM     17  C   UNL     1       2.954   5.356  18.525  0.00  0.00    +0.000 A 
ATOM     18  S   UNL     1       1.789   4.121  18.557  0.00  0.00    +0.000 S 
ATOM     19  C   UNL     1       2.544   3.307  17.256  0.00  0.00    +0.000 A 
ATOM     20  C   UNL     1       3.730   3.910  16.903  0.00  0.00    +0.000 A 
ATOM     21  C   UNL     1       3.995   5.116  17.647  0.00  0.00    +0.000 A 
BRANCH  21  22
ATOM     22  C   UNL     1       5.205   5.931  17.543  0.00  0.00    +0.000 C 
ATOM     23  O   UNL     1       5.207   7.159  17.554  0.00  0.00    +0.000 OA
BRANCH  22  24
ATOM     24  O   UNL     1       6.334   5.166  17.497  0.00  0.00    +0.000 OA
ATOM     25  C   UNL     1       7.292   5.440  18.520  0.00  0.00    +0.000 C 
ENDBRANCH  22  24
ENDBRANCH  21  22
ENDBRANCH  15  17
ENDBRANCH  10  13
BRANCH   1  27
ATOM     26  C   UNL     1      -3.824  12.741  20.231  0.00  0.00    +0.000 C 
ATOM     27  C   UNL     1      -2.406  13.290  20.261  0.00  0.00    +0.000 C 
ENDBRANCH   1  27
TORSDOF 5
ENDMDL
MODEL 5
REMARK VINA RESULT:      -6.4      2.365      8.256
REMARK  Name = 
REMARK  8 active torsions:
REMARK  status: ('A' for Active; 'I' for Inactive)
REMARK    1  A    between atoms: C_1  and  C_2
REMARK    2  A    between atoms: C_2  and  C_3
REMARK    3  A    between atoms: C_4  and  C_5
REMARK    4  A    between atoms: C_12  and  C_13
REMARK    5  A    between atoms: N_15  and  C_16
REMARK    6  A    between atoms: C_20  and  C_21
REMARK    7  A    between atoms: C_21  and  O_23
REMARK    8  A    between atoms: O_23  and  C_24
REMARK                            x       y       z     vdW  Elec       q    Type
REMARK                         _______ _______ _______ _____ _____    ______ ____
ROOT
ATOM      1  C   UNL     1       4.841   4.704  17.707  0.00  0.00    +0.000 A 
ATOM      2  C   UNL     1       4.357   4.024  18.763  0.00  0.00    +0.000 A 
ATOM      3  C   UNL     1       4.812   2.642  19.151  0.00  0.00    +0.000 C 
ATOM      4  N   UNL     1       3.399   4.522  19.598  0.00  0.00    +0.000 NA
ATOM      5  C   UNL     1       2.926   5.703  19.378  0.00  0.00    +0.000 A 
ATOM      6  N   UNL     1       3.277   6.498  18.319  0.00  0.00    +0.000 N 
ATOM      7  C   UNL     1       4.259   6.047  17.443  0.00  0.00    +0.000 A 
ATOM      8  O   UNL     1       4.658   6.707  16.489  0.00  0.00    +0.000 OA
ATOM      9  C   UNL     1       2.798   7.863  18.074  0.00  0.00    +0.000 C 
ATOM     10  C   UNL     1       1.566   8.317  18.843  0.00  0.00    +0.000 C 
ATOM     11  C   UNL     1       1.765   8.009  20.315  0.00  0.00    +0.000 C 
ATOM     12  S   UNL     1       1.727   6.229  20.531  0.00  0.00    +0.000 S 
ENDROOT
BRANCH  10  13
ATOM     13  C   UNL     1       1.357   9.817  18.654  0.00  0.00    +0.000 C 
ATOM     14  O   UNL     1       1.987  10.459  17.816  0.00  0.00    +0.000 OA
ATOM     15  N   UNL     1       0.482  10.376  19.580  0.00  0.00    +0.000 N 
ATOM     16  H   UNL     1       0.448   9.951  20.498  0.00  0.00    +0.000 HD
BRANCH  15  17
ATOM     17  C   UNL     1       0.272  11.741  19.542  0.00  0.00    +0.000 A 
ATOM     18  S   UNL     1       1.515  12.650  20.256  0.00  0.00    +0.000 S 
ATOM     19  C   UNL     1       0.796  14.120  19.758  0.00  0.00    +0.000 A 
ATOM     20  C   UNL     1      -0.433  13.908  19.173  0.00  0.00    +0.000 A 
ATOM     21  C   UNL     1      -0.765  12.511  19.045  0.00  0.00    +0.000 A 
BRANCH  21  22
ATOM     22  C   UNL     1      -2.027  11.981  18.531  0.00  0.00    +0.000 C 
ATOM     23  O   UNL     1      -3.126  12.243  19.011  0.00  0.00    +0.000 OA
BRANCH  22  24
ATOM     24  O   UNL     1      -1.843  11.212  17.418  0.00  0.00    +0.000 OA
ATOM     25  C   UNL     1      -2.487   9.937  17.451  0.00  0.00    +0.000 C 
ENDBRANCH  22  24
ENDBRANCH  21  22
ENDBRANCH  15  17
ENDBRANCH  10  13
BRANCH   1  27
ATOM     26  C   UNL     1       7.324   4.637  17.316  0.00  0.00    +0.000 C 
ATOM     27  C   UNL     1       5.948   4.244  16.799  0.00  0.00    +0.000 C 
ENDBRANCH   1  27
TORSDOF 5
ENDMDL
MODEL 6
REMARK VINA RESULT:      -6.4      0.703      1.072
REMARK  Name = 
REMARK  8 active torsions:
REMARK  status: ('A' for Active; 'I' for Inactive)
REMARK    1  A    between atoms: C_1  and  C_2
REMARK    2  A    between atoms: C_2  and  C_3
REMARK    3  A    between atoms: C_4  and  C_5
REMARK    4  A    between atoms: C_12  and  C_13
REMARK    5  A    between atoms: N_15  and  C_16
REMARK    6  A    between atoms: C_20  and  C_21
REMARK    7  A    between atoms: C_21  and  O_23
REMARK    8  A    between atoms: O_23  and  C_24
REMARK                            x       y       z     vdW  Elec       q    Type
REMARK                         _______ _______ _______ _____ _____    ______ ____
ROOT
ATOM      1  C   UNL     1      -2.468  11.355  18.515  0.00  0.00    +0.000 A 
ATOM      2  C   UNL     1      -2.303  11.881  19.743  0.00  0.00    +0.000 A 
ATOM      3  C   UNL     1      -3.195  12.943  20.329  0.00  0.00    +0.000 C 
ATOM      4  N   UNL     1      -1.301  11.501  20.590  0.00  0.00    +0.000 NA
ATOM      5  C   UNL     1      -0.466  10.593  20.208  0.00  0.00    +0.000 A 
ATOM      6  N   UNL     1      -0.471  10.001  18.974  0.00  0.00    +0.000 N 
ATOM      7  C   UNL     1      -1.476  10.339  18.075  0.00  0.00    +0.000 A 
ATOM      8  O   UNL     1      -1.575   9.833  16.961  0.00  0.00    +0.000 OA
ATOM      9  C   UNL     1       0.429   8.929  18.533  0.00  0.00    +0.000 C 
ATOM     10  C   UNL     1       1.681   8.685  19.364  0.00  0.00    +0.000 C 
ATOM     11  C   UNL     1       1.286   8.570  20.824  0.00  0.00    +0.000 C 
ATOM     12  S   UNL     1       0.747  10.183  21.393  0.00  0.00    +0.000 S 
ENDROOT
BRANCH  10  13
ATOM     13  C   UNL     1       2.363   7.396  18.912  0.00  0.00    +0.000 C 
ATOM     14  O   UNL     1       2.280   6.989  17.755  0.00  0.00    +0.000 OA
ATOM     15  N   UNL     1       2.980   6.703  19.948  0.00  0.00    +0.000 N 
ATOM     16  H   UNL     1       2.567   6.785  20.869  0.00  0.00    +0.000 HD
BRANCH  15  17
ATOM     17  C   UNL     1       3.572   5.487  19.662  0.00  0.00    +0.000 A 
ATOM     18  S   UNL     1       4.895   5.598  18.603  0.00  0.00    +0.000 S 
ATOM     19  C   UNL     1       5.249   3.935  18.791  0.00  0.00    +0.000 A 
ATOM     20  C   UNL     1       4.291   3.297  19.546  0.00  0.00    +0.000 A 
ATOM     21  C   UNL     1       3.287   4.194  20.063  0.00  0.00    +0.000 A 
BRANCH  21  22
ATOM     22  C   UNL     1       2.110   3.800  20.835  0.00  0.00    +0.000 C 
ATOM     23  O   UNL     1       2.156   3.378  21.987  0.00  0.00    +0.000 OA
BRANCH  22  24
ATOM     24  O   UNL     1       0.951   4.015  20.147  0.00  0.00    +0.000 OA
ATOM     25  C   UNL     1       0.480   2.899  19.390  0.00  0.00    +0.000 C 
ENDBRANCH  22  24
ENDBRANCH  21  22
ENDBRANCH  15  17
ENDBRANCH  10  13
BRANCH   1  27
ATOM     26  C   UNL     1      -4.850  10.873  17.870  0.00  0.00    +0.000 C 
ATOM     27  C   UNL     1      -3.593  11.674  17.568  0.00  0.00    +0.000 C 
ENDBRANCH   1  27
TORSDOF 5
ENDMDL
MODEL 7
REMARK VINA RESULT:      -6.3      2.401      2.768
REMARK  Name = 
REMARK  8 active torsions:
REMARK  status: ('A' for Active; 'I' for Inactive)
REMARK    1  A    between atoms: C_1  and  C_2
REMARK    2  A    between atoms: C_2  and  C_3
REMARK    3  A    between atoms: C_4  and  C_5
REMARK    4  A    between atoms: C_12  and  C_13
REMARK    5  A    between atoms: N_15  and  C_16
REMARK    6  A    between atoms: C_20  and  C_21
REMARK    7  A    between atoms: C_21  and  O_23
REMARK    8  A    between atoms: O_23  and  C_24
REMARK                            x       y       z     vdW  Elec       q    Type
REMARK                         _______ _______ _______ _____ _____    ______ ____
ROOT
ATOM      1  C   UNL     1      -0.456  13.221  21.347  0.00  0.00    +0.000 A 
ATOM      2  C   UNL     1      -0.889  12.721  22.519  0.00  0.00    +0.000 A 
ATOM      3  C   UNL     1      -1.633  13.525  23.552  0.00  0.00    +0.000 C 
ATOM      4  N   UNL     1      -0.697  11.421  22.894  0.00  0.00    +0.000 NA
ATOM      5  C   UNL     1      -0.074  10.623  22.094  0.00  0.00    +0.000 A 
ATOM      6  N   UNL     1       0.470  10.991  20.892  0.00  0.00    +0.000 N 
ATOM      7  C   UNL     1       0.293  12.299  20.453  0.00  0.00    +0.000 A 
ATOM      8  O   UNL     1       0.717  12.705  19.375  0.00  0.00    +0.000 OA
ATOM      9  C   UNL     1       1.133  10.095  19.939  0.00  0.00    +0.000 C 
ATOM     10  C   UNL     1       1.565   8.728  20.453  0.00  0.00    +0.000 C 
ATOM     11  C   UNL     1       0.393   8.080  21.166  0.00  0.00    +0.000 C 
ATOM     12  S   UNL     1       0.082   8.987  22.681  0.00  0.00    +0.000 S 
ENDROOT
BRANCH  10  13
ATOM     13  C   UNL     1       2.008   7.849  19.286  0.00  0.00    +0.000 C 
ATOM     14  O   UNL     1       1.669   8.088  18.129  0.00  0.00    +0.000 OA
ATOM     15  N   UNL     1       2.726   6.725  19.681  0.00  0.00    +0.000 N 
ATOM     16  H   UNL     1       2.501   6.327  20.584  0.00  0.00    +0.000 HD
BRANCH  15  17
ATOM     17  C   UNL     1       3.120   5.825  18.709  0.00  0.00    +0.000 A 
ATOM     18  S   UNL     1       4.452   6.342  17.791  0.00  0.00    +0.000 S 
ATOM     19  C   UNL     1       4.536   4.841  16.975  0.00  0.00    +0.000 A 
ATOM     20  C   UNL     1       3.483   4.021  17.315  0.00  0.00    +0.000 A 
ATOM     21  C   UNL     1       2.630   4.588  18.331  0.00  0.00    +0.000 A 
BRANCH  21  22
ATOM     22  C   UNL     1       1.400   3.985  18.841  0.00  0.00    +0.000 C 
ATOM     23  O   UNL     1       0.680   3.236  18.185  0.00  0.00    +0.000 OA
BRANCH  22  24
ATOM     24  O   UNL     1       1.179   4.304  20.150  0.00  0.00    +0.000 OA
ATOM     25  C   UNL     1       1.677   3.356  21.095  0.00  0.00    +0.000 C 
ENDBRANCH  22  24
ENDBRANCH  21  22
ENDBRANCH  15  17
ENDBRANCH  10  13
BRANCH   1  27
ATOM     26  C   UNL     1       0.390  15.587  21.263  0.00  0.00    +0.000 C 
ATOM     27  C   UNL     1      -0.703  14.617  20.844  0.00  0.00    +0.000 C 
ENDBRANCH   1  27
TORSDOF 5
ENDMDL
MODEL 8
REMARK VINA RESULT:      -6.3      1.912      8.116
REMARK  Name = 
REMARK  8 active torsions:
REMARK  status: ('A' for Active; 'I' for Inactive)
REMARK    1  A    between atoms: C_1  and  C_2
REMARK    2  A    between atoms: C_2  and  C_3
REMARK    3  A    between atoms: C_4  and  C_5
REMARK    4  A    between atoms: C_12  and  C_13
REMARK    5  A    between atoms: N_15  and  C_16
REMARK    6  A    between atoms: C_20  and  C_21
REMARK    7  A    between atoms: C_21  and  O_23
REMARK    8  A    between atoms: O_23  and  C_24
REMARK                            x       y       z     vdW  Elec       q    Type
REMARK                         _______ _______ _______ _____ _____    ______ ____
ROOT
ATOM      1  C   UNL     1       3.097   4.212  19.329  0.00  0.00    +0.000 A 
ATOM      2  C   UNL     1       3.745   4.628  18.225  0.00  0.00    +0.000 A 
ATOM      3  C   UNL     1       4.620   3.741  17.380  0.00  0.00    +0.000 C 
ATOM      4  N   UNL     1       3.672   5.908  17.754  0.00  0.00    +0.000 NA
ATOM      5  C   UNL     1       2.949   6.770  18.387  0.00  0.00    +0.000 A 
ATOM      6  N   UNL     1       2.273   6.515  19.550  0.00  0.00    +0.000 N 
ATOM      7  C   UNL     1       2.300   5.225  20.069  0.00  0.00    +0.000 A 
ATOM      8  O   UNL     1       1.696   4.901  21.087  0.00  0.00    +0.000 OA
ATOM      9  C   UNL     1       1.401   7.458  20.261  0.00  0.00    +0.000 C 
ATOM     10  C   UNL     1       1.516   8.929  19.887  0.00  0.00    +0.000 C 
ATOM     11  C   UNL     1       1.433   9.060  18.378  0.00  0.00    +0.000 C 
ATOM     12  S   UNL     1       2.922   8.359  17.667  0.00  0.00    +0.000 S 
ENDROOT
BRANCH  10  13
ATOM     13  C   UNL     1       0.383   9.721  20.536  0.00  0.00    +0.000 C 
ATOM     14  O   UNL     1      -0.326   9.236  21.416  0.00  0.00    +0.000 OA
ATOM     15  N   UNL     1       0.183  10.972  19.963  0.00  0.00    +0.000 N 
ATOM     16  H   UNL     1       0.396  11.068  18.978  0.00  0.00    +0.000 HD
BRANCH  15  17
ATOM     17  C   UNL     1      -0.862  11.748  20.431  0.00  0.00    +0.000 A 
ATOM     18  S   UNL     1      -0.556  12.482  21.931  0.00  0.00    +0.000 S 
ATOM     19  C   UNL     1      -2.023  13.358  21.858  0.00  0.00    +0.000 A 
ATOM     20  C   UNL     1      -2.779  12.987  20.768  0.00  0.00    +0.000 A 
ATOM     21  C   UNL     1      -2.115  12.031  19.918  0.00  0.00    +0.000 A 
BRANCH  21  22
ATOM     22  C   UNL     1      -2.693  11.401  18.732  0.00  0.00    +0.000 C 
ATOM     23  O   UNL     1      -3.623  11.878  18.087  0.00  0.00    +0.000 OA
BRANCH  22  24
ATOM     24  O   UNL     1      -2.037  10.253  18.390  0.00  0.00    +0.000 OA
ATOM     25  C   UNL     1      -2.055   9.938  16.998  0.00  0.00    +0.000 C 
ENDBRANCH  22  24
ENDBRANCH  21  22
ENDBRANCH  15  17
ENDBRANCH  10  13
BRANCH   1  27
ATOM     26  C   UNL     1       1.939   1.981  19.262  0.00  0.00    +0.000 C 
ATOM     27  C   UNL     1       3.074   2.802  19.853  0.00  0.00    +0.000 C 
ENDBRANCH   1  27
TORSDOF 5
ENDMDL
MODEL 9
REMARK VINA RESULT:      -6.3      2.344      2.536
REMARK  Name = 
REMARK  8 active torsions:
REMARK  status: ('A' for Active; 'I' for Inactive)
REMARK    1  A    between atoms: C_1  and  C_2
REMARK    2  A    between atoms: C_2  and  C_3
REMARK    3  A    between atoms: C_4  and  C_5
REMARK    4  A    between atoms: C_12  and  C_13
REMARK    5  A    between atoms: N_15  and  C_16
REMARK    6  A    between atoms: C_20  and  C_21
REMARK    7  A    between atoms: C_21  and  O_23
REMARK    8  A    between atoms: O_23  and  C_24
REMARK                            x       y       z     vdW  Elec       q    Type
REMARK                         _______ _______ _______ _____ _____    ______ ____
ROOT
ATOM      1  C   UNL     1       0.208  13.032  20.228  0.00  0.00    +0.000 A 
ATOM      2  C   UNL     1      -0.115  12.819  21.517  0.00  0.00    +0.000 A 
ATOM      3  C   UNL     1      -0.721  13.865  22.415  0.00  0.00    +0.000 C 
ATOM      4  N   UNL     1       0.074  11.622  22.147  0.00  0.00    +0.000 NA
ATOM      5  C   UNL     1       0.585  10.638  21.486  0.00  0.00    +0.000 A 
ATOM      6  N   UNL     1       1.011  10.710  20.187  0.00  0.00    +0.000 N 
ATOM      7  C   UNL     1       0.830  11.900  19.490  0.00  0.00    +0.000 A 
ATOM      8  O   UNL     1       1.151  12.042  18.314  0.00  0.00    +0.000 OA
ATOM      9  C   UNL     1       1.543   9.596  19.394  0.00  0.00    +0.000 C 
ATOM     10  C   UNL     1       1.983   8.351  20.152  0.00  0.00    +0.000 C 
ATOM     11  C   UNL     1       0.873   7.934  21.099  0.00  0.00    +0.000 C 
ATOM     12  S   UNL     1       0.750   9.161  22.400  0.00  0.00    +0.000 S 
ENDROOT
BRANCH  10  13
ATOM     13  C   UNL     1       2.274   7.219  19.169  0.00  0.00    +0.000 C 
ATOM     14  O   UNL     1       1.828   7.224  18.024  0.00  0.00    +0.000 OA
ATOM     15  N   UNL     1       2.987   6.166  19.733  0.00  0.00    +0.000 N 
ATOM     16  H   UNL     1       2.842   5.984  20.718  0.00  0.00    +0.000 HD
BRANCH  15  17
ATOM     17  C   UNL     1       3.249   5.058  18.949  0.00  0.00    +0.000 A 
ATOM     18  S   UNL     1       4.587   5.243  17.920  0.00  0.00    +0.000 S 
ATOM     19  C   UNL     1       4.486   3.612  17.414  0.00  0.00    +0.000 A 
ATOM     20  C   UNL     1       3.371   2.991  17.930  0.00  0.00    +0.000 A 
ATOM     21  C   UNL     1       2.622   3.831  18.832  0.00  0.00    +0.000 A 
BRANCH  21  22
ATOM     22  C   UNL     1       1.359   3.473  19.476  0.00  0.00    +0.000 C 
ATOM     23  O   UNL     1       0.488   2.791  18.944  0.00  0.00    +0.000 OA
BRANCH  22  24
ATOM     24  O   UNL     1       1.291   3.934  20.759  0.00  0.00    +0.000 OA
ATOM     25  C   UNL     1       1.867   3.073  21.742  0.00  0.00    +0.000 C 
ENDBRANCH  22  24
ENDBRANCH  21  22
ENDBRANCH  15  17
ENDBRANCH  10  13
BRANCH   1  27
ATOM     26  C   UNL     1       1.120  15.270  19.535  0.00  0.00    +0.000 C 
ATOM     27  C   UNL     1      -0.047  14.298  19.457  0.00  0.00    +0.000 C 
ENDBRANCH   1  27
TORSDOF 5
ENDMDL
