MODEL 1
REMARK VINA RESULT:      -8.0      0.000      0.000
REMARK  Name = 
REMARK  7 active torsions:
REMARK  status: ('A' for Active; 'I' for Inactive)
REMARK    1  A    between atoms: C_1  and  C_2
REMARK    2  A    between atoms: C_4  and  C_5
REMARK    3  A    between atoms: C_5  and  O_6
REMARK    4  A    between atoms: C_14  and  C_15
REMARK    5  A    between atoms: C_15  and  C_16
REMARK    6  A    between atoms: C_16  and  O_17
REMARK    7  A    between atoms: O_17  and  C_18
REMARK                            x       y       z     vdW  Elec       q    Type
REMARK                         _______ _______ _______ _____ _____    ______ ____
ROOT
ATOM      1  C   UNL     1       7.887   5.459  19.738  0.00  0.00    +0.000 C 
ATOM      2  C   UNL     1       6.701   5.815  18.888  0.00  0.00    +0.000 A 
ATOM      3  N   UNL     1       5.508   5.245  19.205  0.00  0.00    +0.000 NA
ATOM      4  C   UNL     1       4.499   5.626  18.399  0.00  0.00    +0.000 A 
ATOM      5  S   UNL     1       5.058   6.686  17.217  0.00  0.00    +0.000 S 
ATOM      6  C   UNL     1       6.649   6.705  17.777  0.00  0.00    +0.000 A 
ENDROOT
BRANCH   4   7
ATOM      7  C   UNL     1       3.064   5.189  18.631  0.00  0.00    +0.000 C 
ATOM      8  C   UNL     1       2.808   3.868  17.869  0.00  0.00    +0.000 C 
ATOM      9  C   UNL     1       1.412   3.257  18.052  0.00  0.00    +0.000 C 
ATOM     10  C   UNL     1       1.225   2.587  19.419  0.00  0.00    +0.000 C 
ATOM     11  N   UNL     1       0.910   3.470  20.549  0.00  0.00    +0.000 NA
ATOM     12  C   UNL     1       1.420   4.845  20.602  0.00  0.00    +0.000 C 
ATOM     13  C   UNL     1       2.879   5.043  20.162  0.00  0.00    +0.000 C 
ATOM     14  H   UNL     1       1.141   2.962  21.435  0.00  0.00    +0.000 HD
BRANCH   7  15
ATOM     15  O   UNL     1       2.187   6.195  18.173  0.00  0.00    +0.000 OA
ATOM     16  H   UNL     1       1.777   5.890  17.322  0.00  0.00    +0.000 HD
ENDBRANCH   7  15
ENDBRANCH   4   7
BRANCH   6  17
ATOM     17  C   UNL     1       7.717   7.586  17.127  0.00  0.00    +0.000 C 
BRANCH  17  18
ATOM     18  C   UNL     1       7.801   8.965  17.761  0.00  0.00    +0.000 C 
BRANCH  18  19
ATOM     19  O   UNL     1       8.665   9.075  18.833  0.00  0.00    +0.000 OA
BRANCH  19  20
ATOM     20  C   UNL     1       9.344  10.240  19.078  0.00  0.00    +0.000 A 
ATOM     21  C   UNL     1       9.852  11.043  18.024  0.00  0.00    +0.000 A 
ATOM     22  C   UNL     1      10.542  12.223  18.295  0.00  0.00    +0.000 A 
ATOM     23  C   UNL     1      10.738  12.627  19.613  0.00  0.00    +0.000 A 
ATOM     24  F   UNL     1      11.412  13.778  19.869  0.00  0.00    +0.000 F 
ATOM     25  C   UNL     1      10.246  11.848  20.665  0.00  0.00    +0.000 A 
ATOM     26  C   UNL     1       9.551  10.659  20.399  0.00  0.00    +0.000 A 
ENDBRANCH  19  20
ENDBRANCH  18  19
ENDBRANCH  17  18
ENDBRANCH   6  17
TORSDOF 6
ENDMDL
MODEL 2
REMARK VINA RESULT:      -7.9      0.530      1.119
REMARK  Name = 
REMARK  7 active torsions:
REMARK  status: ('A' for Active; 'I' for Inactive)
REMARK    1  A    between atoms: C_1  and  C_2
REMARK    2  A    between atoms: C_4  and  C_5
REMARK    3  A    between atoms: C_5  and  O_6
REMARK    4  A    between atoms: C_14  and  C_15
REMARK    5  A    between atoms: C_15  and  C_16
REMARK    6  A    between atoms: C_16  and  O_17
REMARK    7  A    between atoms: O_17  and  C_18
REMARK                            x       y       z     vdW  Elec       q    Type
REMARK                         _______ _______ _______ _____ _____    ______ ____
ROOT
ATOM      1  C   UNL     1       7.874   5.555  19.845  0.00  0.00    +0.000 C 
ATOM      2  C   UNL     1       6.678   5.808  18.972  0.00  0.00    +0.000 A 
ATOM      3  N   UNL     1       5.534   5.134  19.263  0.00  0.00    +0.000 NA
ATOM      4  C   UNL     1       4.512   5.426  18.437  0.00  0.00    +0.000 A 
ATOM      5  S   UNL     1       5.000   6.536  17.269  0.00  0.00    +0.000 S 
ATOM      6  C   UNL     1       6.571   6.694  17.862  0.00  0.00    +0.000 A 
ENDROOT
BRANCH   4   7
ATOM      7  C   UNL     1       3.118   4.864  18.638  0.00  0.00    +0.000 C 
ATOM      8  C   UNL     1       3.075   3.414  18.102  0.00  0.00    +0.000 C 
ATOM      9  C   UNL     1       1.741   2.678  18.288  0.00  0.00    +0.000 C 
ATOM     10  C   UNL     1       1.503   2.225  19.734  0.00  0.00    +0.000 C 
ATOM     11  N   UNL     1       0.994   3.237  20.668  0.00  0.00    +0.000 NA
ATOM     12  C   UNL     1       1.347   4.654  20.517  0.00  0.00    +0.000 C 
ATOM     13  C   UNL     1       2.811   4.952  20.154  0.00  0.00    +0.000 C 
ATOM     14  H   UNL     1       1.196   2.915  21.643  0.00  0.00    +0.000 HD
BRANCH   7  15
ATOM     15  O   UNL     1       2.184   5.667  17.950  0.00  0.00    +0.000 OA
ATOM     16  H   UNL     1       2.630   6.054  17.152  0.00  0.00    +0.000 HD
ENDBRANCH   7  15
ENDBRANCH   4   7
BRANCH   6  17
ATOM     17  C   UNL     1       7.570   7.668  17.235  0.00  0.00    +0.000 C 
BRANCH  17  18
ATOM     18  C   UNL     1       8.366   8.438  18.277  0.00  0.00    +0.000 C 
BRANCH  18  19
ATOM     19  O   UNL     1       8.243   9.813  18.222  0.00  0.00    +0.000 OA
BRANCH  19  20
ATOM     20  C   UNL     1       9.253  10.631  18.658  0.00  0.00    +0.000 A 
ATOM     21  C   UNL     1       9.520  10.815  20.040  0.00  0.00    +0.000 A 
ATOM     22  C   UNL     1      10.549  11.653  20.462  0.00  0.00    +0.000 A 
ATOM     23  C   UNL     1      11.332  12.321  19.524  0.00  0.00    +0.000 A 
ATOM     24  F   UNL     1      12.333  13.137  19.943  0.00  0.00    +0.000 F 
ATOM     25  C   UNL     1      11.083  12.154  18.159  0.00  0.00    +0.000 A 
ATOM     26  C   UNL     1      10.048  11.311  17.726  0.00  0.00    +0.000 A 
ENDBRANCH  19  20
ENDBRANCH  18  19
ENDBRANCH  17  18
ENDBRANCH   6  17
TORSDOF 6
ENDMDL
MODEL 3
REMARK VINA RESULT:      -7.8      1.759      2.336
REMARK  Name = 
REMARK  7 active torsions:
REMARK  status: ('A' for Active; 'I' for Inactive)
REMARK    1  A    between atoms: C_1  and  C_2
REMARK    2  A    between atoms: C_4  and  C_5
REMARK    3  A    between atoms: C_5  and  O_6
REMARK    4  A    between atoms: C_14  and  C_15
REMARK    5  A    between atoms: C_15  and  C_16
REMARK    6  A    between atoms: C_16  and  O_17
REMARK    7  A    between atoms: O_17  and  C_18
REMARK                            x       y       z     vdW  Elec       q    Type
REMARK                         _______ _______ _______ _____ _____    ______ ____
ROOT
ATOM      1  C   UNL     1       5.204   6.725  15.305  0.00  0.00    +0.000 C 
ATOM      2  C   UNL     1       5.518   6.138  16.652  0.00  0.00    +0.000 A 
ATOM      3  N   UNL     1       4.644   5.228  17.159  0.00  0.00    +0.000 NA
ATOM      4  C   UNL     1       5.007   4.748  18.364  0.00  0.00    +0.000 A 
ATOM      5  S   UNL     1       6.441   5.465  18.876  0.00  0.00    +0.000 S 
ATOM      6  C   UNL     1       6.644   6.398  17.485  0.00  0.00    +0.000 A 
ENDROOT
BRANCH   4   7
ATOM      7  C   UNL     1       4.230   3.651  19.069  0.00  0.00    +0.000 C 
ATOM      8  C   UNL     1       3.236   4.296  20.064  0.00  0.00    +0.000 C 
ATOM      9  C   UNL     1       2.326   3.317  20.817  0.00  0.00    +0.000 C 
ATOM     10  C   UNL     1       1.197   2.754  19.945  0.00  0.00    +0.000 C 
ATOM     11  N   UNL     1       1.543   1.638  19.056  0.00  0.00    +0.000 NA
ATOM     12  C   UNL     1       2.887   1.517  18.478  0.00  0.00    +0.000 C 
ATOM     13  C   UNL     1       3.523   2.821  17.969  0.00  0.00    +0.000 C 
ATOM     14  H   UNL     1       0.817   1.581  18.304  0.00  0.00    +0.000 HD
BRANCH   7  15
ATOM     15  O   UNL     1       5.128   2.806  19.754  0.00  0.00    +0.000 OA
ATOM     16  H   UNL     1       4.662   2.426  20.543  0.00  0.00    +0.000 HD
ENDBRANCH   7  15
ENDBRANCH   4   7
BRANCH   6  17
ATOM     17  C   UNL     1       7.874   7.286  17.288  0.00  0.00    +0.000 C 
BRANCH  17  18
ATOM     18  C   UNL     1       7.668   8.694  17.824  0.00  0.00    +0.000 C 
BRANCH  18  19
ATOM     19  O   UNL     1       8.581   9.109  18.774  0.00  0.00    +0.000 OA
BRANCH  19  20
ATOM     20  C   UNL     1       9.101  10.376  18.750  0.00  0.00    +0.000 A 
ATOM     21  C   UNL     1       8.680  11.337  17.793  0.00  0.00    +0.000 A 
ATOM     22  C   UNL     1       9.223  12.620  17.784  0.00  0.00    +0.000 A 
ATOM     23  C   UNL     1      10.188  12.973  18.723  0.00  0.00    +0.000 A 
ATOM     24  F   UNL     1      10.713  14.226  18.709  0.00  0.00    +0.000 F 
ATOM     25  C   UNL     1      10.616  12.041  19.673  0.00  0.00    +0.000 A 
ATOM     26  C   UNL     1      10.074  10.747  19.688  0.00  0.00    +0.000 A 
ENDBRANCH  19  20
ENDBRANCH  18  19
ENDBRANCH  17  18
ENDBRANCH   6  17
TORSDOF 6
ENDMDL
MODEL 4
REMARK VINA RESULT:      -7.7      1.676      2.475
REMARK  Name = 
REMARK  7 active torsions:
REMARK  status: ('A' for Active; 'I' for Inactive)
REMARK    1  A    between atoms: C_1  and  C_2
REMARK    2  A    between atoms: C_4  and  C_5
REMARK    3  A    between atoms: C_5  and  O_6
REMARK    4  A    between atoms: C_14  and  C_15
REMARK    5  A    between atoms: C_15  and  C_16
REMARK    6  A    between atoms: C_16  and  O_17
REMARK    7  A    between atoms: O_17  and  C_18
REMARK                            x       y       z     vdW  Elec       q    Type
REMARK                         _______ _______ _______ _____ _____    ______ ____
ROOT
ATOM      1  C   UNL     1       4.719   7.375  15.763  0.00  0.00    +0.000 C 
ATOM      2  C   UNL     1       5.247   6.528  16.886  0.00  0.00    +0.000 A 
ATOM      3  N   UNL     1       4.410   5.599  17.418  0.00  0.00    +0.000 NA
ATOM      4  C   UNL     1       4.967   4.880  18.411  0.00  0.00    +0.000 A 
ATOM      5  S   UNL     1       6.544   5.394  18.697  0.00  0.00    +0.000 S 
ATOM      6  C   UNL     1       6.545   6.554  17.472  0.00  0.00    +0.000 A 
ENDROOT
BRANCH   4   7
ATOM      7  C   UNL     1       4.246   3.724  19.081  0.00  0.00    +0.000 C 
ATOM      8  C   UNL     1       3.224   4.286  20.097  0.00  0.00    +0.000 C 
ATOM      9  C   UNL     1       2.365   3.239  20.818  0.00  0.00    +0.000 C 
ATOM     10  C   UNL     1       1.263   2.651  19.929  0.00  0.00    +0.000 C 
ATOM     11  N   UNL     1       1.661   1.583  19.004  0.00  0.00    +0.000 NA
ATOM     12  C   UNL     1       3.008   1.547  18.421  0.00  0.00    +0.000 C 
ATOM     13  C   UNL     1       3.579   2.896  17.954  0.00  0.00    +0.000 C 
ATOM     14  H   UNL     1       0.937   1.515  18.250  0.00  0.00    +0.000 HD
BRANCH   7  15
ATOM     15  O   UNL     1       5.186   2.902  19.737  0.00  0.00    +0.000 OA
ATOM     16  H   UNL     1       5.683   2.383  19.052  0.00  0.00    +0.000 HD
ENDBRANCH   7  15
ENDBRANCH   4   7
BRANCH   6  17
ATOM     17  C   UNL     1       7.791   7.381  17.153  0.00  0.00    +0.000 C 
BRANCH  17  18
ATOM     18  C   UNL     1       7.764   8.754  17.807  0.00  0.00    +0.000 C 
BRANCH  18  19
ATOM     19  O   UNL     1       8.689   8.951  18.814  0.00  0.00    +0.000 OA
BRANCH  19  20
ATOM     20  C   UNL     1       9.210  10.194  19.062  0.00  0.00    +0.000 A 
ATOM     21  C   UNL     1       9.465  10.646  20.383  0.00  0.00    +0.000 A 
ATOM     22  C   UNL     1       9.992  11.915  20.613  0.00  0.00    +0.000 A 
ATOM     23  C   UNL     1      10.278  12.755  19.540  0.00  0.00    +0.000 A 
ATOM     24  F   UNL     1      10.791  13.991  19.772  0.00  0.00    +0.000 F 
ATOM     25  C   UNL     1      10.033  12.328  18.232  0.00  0.00    +0.000 A 
ATOM     26  C   UNL     1       9.502  11.051  17.992  0.00  0.00    +0.000 A 
ENDBRANCH  19  20
ENDBRANCH  18  19
ENDBRANCH  17  18
ENDBRANCH   6  17
TORSDOF 6
ENDMDL
MODEL 5
REMARK VINA RESULT:      -7.6      1.787      2.451
REMARK  Name = 
REMARK  7 active torsions:
REMARK  status: ('A' for Active; 'I' for Inactive)
REMARK    1  A    between atoms: C_1  and  C_2
REMARK    2  A    between atoms: C_4  and  C_5
REMARK    3  A    between atoms: C_5  and  O_6
REMARK    4  A    between atoms: C_14  and  C_15
REMARK    5  A    between atoms: C_15  and  C_16
REMARK    6  A    between atoms: C_16  and  O_17
REMARK    7  A    between atoms: O_17  and  C_18
REMARK                            x       y       z     vdW  Elec       q    Type
REMARK                         _______ _______ _______ _____ _____    ______ ____
ROOT
ATOM      1  C   UNL     1       7.434   5.281  15.685  0.00  0.00    +0.000 C 
ATOM      2  C   UNL     1       6.779   5.240  17.036  0.00  0.00    +0.000 A 
ATOM      3  N   UNL     1       5.782   4.334  17.224  0.00  0.00    +0.000 NA
ATOM      4  C   UNL     1       5.258   4.359  18.463  0.00  0.00    +0.000 A 
ATOM      5  S   UNL     1       6.004   5.548  19.393  0.00  0.00    +0.000 S 
ATOM      6  C   UNL     1       7.079   6.027  18.184  0.00  0.00    +0.000 A 
ENDROOT
BRANCH   4   7
ATOM      7  C   UNL     1       4.202   3.370  18.920  0.00  0.00    +0.000 C 
ATOM      8  C   UNL     1       3.312   4.039  19.993  0.00  0.00    +0.000 C 
ATOM      9  C   UNL     1       2.150   3.185  20.516  0.00  0.00    +0.000 C 
ATOM     10  C   UNL     1       0.989   3.076  19.520  0.00  0.00    +0.000 C 
ATOM     11  N   UNL     1       1.135   2.090  18.441  0.00  0.00    +0.000 NA
ATOM     12  C   UNL     1       2.454   1.761  17.888  0.00  0.00    +0.000 C 
ATOM     13  C   UNL     1       3.407   2.946  17.660  0.00  0.00    +0.000 C 
ATOM     14  H   UNL     1       0.472   2.346  17.672  0.00  0.00    +0.000 HD
BRANCH   7  15
ATOM     15  O   UNL     1       4.832   2.225  19.453  0.00  0.00    +0.000 OA
ATOM     16  H   UNL     1       5.484   1.886  18.786  0.00  0.00    +0.000 HD
ENDBRANCH   7  15
ENDBRANCH   4   7
BRANCH   6  17
ATOM     17  C   UNL     1       8.139   7.101  18.435  0.00  0.00    +0.000 C 
BRANCH  17  18
ATOM     18  C   UNL     1       7.994   8.294  17.503  0.00  0.00    +0.000 C 
BRANCH  18  19
ATOM     19  O   UNL     1       7.828   9.517  18.124  0.00  0.00    +0.000 OA
BRANCH  19  20
ATOM     20  C   UNL     1       8.905  10.235  18.571  0.00  0.00    +0.000 A 
ATOM     21  C   UNL     1       9.190  10.369  19.955  0.00  0.00    +0.000 A 
ATOM     22  C   UNL     1      10.290  11.106  20.389  0.00  0.00    +0.000 A 
ATOM     23  C   UNL     1      11.126  11.720  19.460  0.00  0.00    +0.000 A 
ATOM     24  F   UNL     1      12.196  12.438  19.890  0.00  0.00    +0.000 F 
ATOM     25  C   UNL     1      10.862  11.600  18.093  0.00  0.00    +0.000 A 
ATOM     26  C   UNL     1       9.756  10.859  17.649  0.00  0.00    +0.000 A 
ENDBRANCH  19  20
ENDBRANCH  18  19
ENDBRANCH  17  18
ENDBRANCH   6  17
TORSDOF 6
ENDMDL
MODEL 6
REMARK VINA RESULT:      -7.5      1.286      1.834
REMARK  Name = 
REMARK  7 active torsions:
REMARK  status: ('A' for Active; 'I' for Inactive)
REMARK    1  A    between atoms: C_1  and  C_2
REMARK    2  A    between atoms: C_4  and  C_5
REMARK    3  A    between atoms: C_5  and  O_6
REMARK    4  A    between atoms: C_14  and  C_15
REMARK    5  A    between atoms: C_15  and  C_16
REMARK    6  A    between atoms: C_16  and  O_17
REMARK    7  A    between atoms: O_17  and  C_18
REMARK                            x       y       z     vdW  Elec       q    Type
REMARK                         _______ _______ _______ _____ _____    ______ ____
ROOT
ATOM      1  C   UNL     1       8.225   5.644  19.864  0.00  0.00    +0.000 C 
ATOM      2  C   UNL     1       7.039   5.487  18.955  0.00  0.00    +0.000 A 
ATOM      3  N   UNL     1       6.092   4.579  19.311  0.00  0.00    +0.000 NA
ATOM      4  C   UNL     1       5.062   4.510  18.448  0.00  0.00    +0.000 A 
ATOM      5  S   UNL     1       5.298   5.573  17.164  0.00  0.00    +0.000 S 
ATOM      6  C   UNL     1       6.755   6.190  17.750  0.00  0.00    +0.000 A 
ENDROOT
BRANCH   4   7
ATOM      7  C   UNL     1       3.848   3.635  18.699  0.00  0.00    +0.000 C 
ATOM      8  C   UNL     1       3.818   3.227  20.190  0.00  0.00    +0.000 C 
ATOM      9  C   UNL     1       2.610   2.386  20.623  0.00  0.00    +0.000 C 
ATOM     10  C   UNL     1       1.322   3.208  20.750  0.00  0.00    +0.000 C 
ATOM     11  N   UNL     1       0.592   3.488  19.507  0.00  0.00    +0.000 NA
ATOM     12  C   UNL     1       1.300   3.647  18.231  0.00  0.00    +0.000 C 
ATOM     13  C   UNL     1       2.605   4.459  18.278  0.00  0.00    +0.000 C 
ATOM     14  H   UNL     1      -0.040   4.306  19.675  0.00  0.00    +0.000 HD
BRANCH   7  15
ATOM     15  O   UNL     1       3.917   2.489  17.880  0.00  0.00    +0.000 OA
ATOM     16  H   UNL     1       4.532   1.836  18.305  0.00  0.00    +0.000 HD
ENDBRANCH   7  15
ENDBRANCH   4   7
BRANCH   6  17
ATOM     17  C   UNL     1       7.499   7.313  17.025  0.00  0.00    +0.000 C 
BRANCH  17  18
ATOM     18  C   UNL     1       7.494   8.617  17.806  0.00  0.00    +0.000 C 
BRANCH  18  19
ATOM     19  O   UNL     1       8.604   8.840  18.597  0.00  0.00    +0.000 OA
BRANCH  19  20
ATOM     20  C   UNL     1       9.048  10.112  18.850  0.00  0.00    +0.000 A 
ATOM     21  C   UNL     1       9.609  10.471  20.103  0.00  0.00    +0.000 A 
ATOM     22  C   UNL     1      10.051  11.770  20.341  0.00  0.00    +0.000 A 
ATOM     23  C   UNL     1       9.948  12.734  19.341  0.00  0.00    +0.000 A 
ATOM     24  F   UNL     1      10.381  13.999  19.580  0.00  0.00    +0.000 F 
ATOM     25  C   UNL     1       9.398  12.400  18.100  0.00  0.00    +0.000 A 
ATOM     26  C   UNL     1       8.950  11.093  17.854  0.00  0.00    +0.000 A 
ENDBRANCH  19  20
ENDBRANCH  18  19
ENDBRANCH  17  18
ENDBRANCH   6  17
TORSDOF 6
ENDMDL
MODEL 7
REMARK VINA RESULT:      -7.5      1.485      1.881
REMARK  Name = 
REMARK  7 active torsions:
REMARK  status: ('A' for Active; 'I' for Inactive)
REMARK    1  A    between atoms: C_1  and  C_2
REMARK    2  A    between atoms: C_4  and  C_5
REMARK    3  A    between atoms: C_5  and  O_6
REMARK    4  A    between atoms: C_14  and  C_15
REMARK    5  A    between atoms: C_15  and  C_16
REMARK    6  A    between atoms: C_16  and  O_17
REMARK    7  A    between atoms: O_17  and  C_18
REMARK                            x       y       z     vdW  Elec       q    Type
REMARK                         _______ _______ _______ _____ _____    ______ ____
ROOT
ATOM      1  C   UNL     1       8.496   5.851  19.888  0.00  0.00    +0.000 C 
ATOM      2  C   UNL     1       7.269   5.618  19.053  0.00  0.00    +0.000 A 
ATOM      3  N   UNL     1       6.403   4.654  19.465  0.00  0.00    +0.000 NA
ATOM      4  C   UNL     1       5.329   4.518  18.665  0.00  0.00    +0.000 A 
ATOM      5  S   UNL     1       5.421   5.589  17.369  0.00  0.00    +0.000 S 
ATOM      6  C   UNL     1       6.870   6.297  17.867  0.00  0.00    +0.000 A 
ENDROOT
BRANCH   4   7
ATOM      7  C   UNL     1       4.188   3.572  18.990  0.00  0.00    +0.000 C 
ATOM      8  C   UNL     1       3.313   4.196  20.101  0.00  0.00    +0.000 C 
ATOM      9  C   UNL     1       2.074   3.385  20.502  0.00  0.00    +0.000 C 
ATOM     10  C   UNL     1       0.944   3.466  19.469  0.00  0.00    +0.000 C 
ATOM     11  N   UNL     1       1.054   2.586  18.300  0.00  0.00    +0.000 NA
ATOM     12  C   UNL     1       2.364   2.213  17.751  0.00  0.00    +0.000 C 
ATOM     13  C   UNL     1       3.408   3.338  17.672  0.00  0.00    +0.000 C 
ATOM     14  H   UNL     1       0.438   2.967  17.543  0.00  0.00    +0.000 HD
BRANCH   7  15
ATOM     15  O   UNL     1       4.713   2.334  19.418  0.00  0.00    +0.000 OA
ATOM     16  H   UNL     1       5.015   2.430  20.359  0.00  0.00    +0.000 HD
ENDBRANCH   7  15
ENDBRANCH   4   7
BRANCH   6  17
ATOM     17  C   UNL     1       7.498   7.461  17.097  0.00  0.00    +0.000 C 
BRANCH  17  18
ATOM     18  C   UNL     1       7.668   8.704  17.956  0.00  0.00    +0.000 C 
BRANCH  18  19
ATOM     19  O   UNL     1       8.627   9.599  17.524  0.00  0.00    +0.000 OA
BRANCH  19  20
ATOM     20  C   UNL     1       9.114  10.571  18.358  0.00  0.00    +0.000 A 
ATOM     21  C   UNL     1       9.402  11.880  17.889  0.00  0.00    +0.000 A 
ATOM     22  C   UNL     1       9.899  12.854  18.753  0.00  0.00    +0.000 A 
ATOM     23  C   UNL     1      10.115  12.549  20.094  0.00  0.00    +0.000 A 
ATOM     24  F   UNL     1      10.600  13.503  20.930  0.00  0.00    +0.000 F 
ATOM     25  C   UNL     1       9.838  11.265  20.574  0.00  0.00    +0.000 A 
ATOM     26  C   UNL     1       9.337  10.280  19.710  0.00  0.00    +0.000 A 
ENDBRANCH  19  20
ENDBRANCH  18  19
ENDBRANCH  17  18
ENDBRANCH   6  17
TORSDOF 6
ENDMDL
MODEL 8
REMARK VINA RESULT:      -7.5      1.150      1.543
REMARK  Name = 
REMARK  7 active torsions:
REMARK  status: ('A' for Active; 'I' for Inactive)
REMARK    1  A    between atoms: C_1  and  C_2
REMARK    2  A    between atoms: C_4  and  C_5
REMARK    3  A    between atoms: C_5  and  O_6
REMARK    4  A    between atoms: C_14  and  C_15
REMARK    5  A    between atoms: C_15  and  C_16
REMARK    6  A    between atoms: C_16  and  O_17
REMARK    7  A    between atoms: O_17  and  C_18
REMARK                            x       y       z     vdW  Elec       q    Type
REMARK                         _______ _______ _______ _____ _____    ______ ____
ROOT
ATOM      1  C   UNL     1       8.492   5.506  19.829  0.00  0.00    +0.000 C 
ATOM      2  C   UNL     1       7.183   5.721  19.125  0.00  0.00    +0.000 A 
ATOM      3  N   UNL     1       6.120   4.980  19.535  0.00  0.00    +0.000 NA
ATOM      4  C   UNL     1       4.987   5.243  18.857  0.00  0.00    +0.000 A 
ATOM      5  S   UNL     1       5.265   6.410  17.676  0.00  0.00    +0.000 S 
ATOM      6  C   UNL     1       6.891   6.632  18.069  0.00  0.00    +0.000 A 
ENDROOT
BRANCH   4   7
ATOM      7  C   UNL     1       3.658   4.602  19.215  0.00  0.00    +0.000 C 
ATOM      8  C   UNL     1       2.730   4.641  17.978  0.00  0.00    +0.000 C 
ATOM      9  C   UNL     1       1.360   3.972  18.158  0.00  0.00    +0.000 C 
ATOM     10  C   UNL     1       1.434   2.441  18.143  0.00  0.00    +0.000 C 
ATOM     11  N   UNL     1       1.838   1.787  19.394  0.00  0.00    +0.000 NA
ATOM     12  C   UNL     1       2.767   2.438  20.325  0.00  0.00    +0.000 C 
ATOM     13  C   UNL     1       3.967   3.160  19.689  0.00  0.00    +0.000 C 
ATOM     14  H   UNL     1       2.171   0.820  19.165  0.00  0.00    +0.000 HD
BRANCH   7  15
ATOM     15  O   UNL     1       3.072   5.305  20.288  0.00  0.00    +0.000 OA
ATOM     16  H   UNL     1       2.086   5.221  20.217  0.00  0.00    +0.000 HD
ENDBRANCH   7  15
ENDBRANCH   4   7
BRANCH   6  17
ATOM     17  C   UNL     1       7.752   7.675  17.355  0.00  0.00    +0.000 C 
BRANCH  17  18
ATOM     18  C   UNL     1       8.269   8.750  18.298  0.00  0.00    +0.000 C 
BRANCH  18  19
ATOM     19  O   UNL     1       8.639   9.938  17.699  0.00  0.00    +0.000 OA
BRANCH  19  20
ATOM     20  C   UNL     1       9.294  10.912  18.406  0.00  0.00    +0.000 A 
ATOM     21  C   UNL     1       9.772  10.685  19.723  0.00  0.00    +0.000 A 
ATOM     22  C   UNL     1      10.433  11.690  20.426  0.00  0.00    +0.000 A 
ATOM     23  C   UNL     1      10.634  12.934  19.836  0.00  0.00    +0.000 A 
ATOM     24  F   UNL     1      11.279  13.910  20.527  0.00  0.00    +0.000 F 
ATOM     25  C   UNL     1      10.171  13.178  18.539  0.00  0.00    +0.000 A 
ATOM     26  C   UNL     1       9.504  12.170  17.826  0.00  0.00    +0.000 A 
ENDBRANCH  19  20
ENDBRANCH  18  19
ENDBRANCH  17  18
ENDBRANCH   6  17
TORSDOF 6
ENDMDL
MODEL 9
REMARK VINA RESULT:      -7.5      1.699      2.194
REMARK  Name = 
REMARK  7 active torsions:
REMARK  status: ('A' for Active; 'I' for Inactive)
REMARK    1  A    between atoms: C_1  and  C_2
REMARK    2  A    between atoms: C_4  and  C_5
REMARK    3  A    between atoms: C_5  and  O_6
REMARK    4  A    between atoms: C_14  and  C_15
REMARK    5  A    between atoms: C_15  and  C_16
REMARK    6  A    between atoms: C_16  and  O_17
REMARK    7  A    between atoms: O_17  and  C_18
REMARK                            x       y       z     vdW  Elec       q    Type
REMARK                         _______ _______ _______ _____ _____    ______ ____
ROOT
ATOM      1  C   UNL     1       5.169   6.666  15.195  0.00  0.00    +0.000 C 
ATOM      2  C   UNL     1       5.305   5.990  16.530  0.00  0.00    +0.000 A 
ATOM      3  N   UNL     1       4.273   5.208  16.945  0.00  0.00    +0.000 NA
ATOM      4  C   UNL     1       4.482   4.635  18.145  0.00  0.00    +0.000 A 
ATOM      5  S   UNL     1       5.974   5.102  18.769  0.00  0.00    +0.000 S 
ATOM      6  C   UNL     1       6.403   6.042  17.435  0.00  0.00    +0.000 A 
ENDROOT
BRANCH   4   7
ATOM      7  C   UNL     1       3.505   3.647  18.755  0.00  0.00    +0.000 C 
ATOM      8  C   UNL     1       3.763   3.554  20.277  0.00  0.00    +0.000 C 
ATOM      9  C   UNL     1       2.811   2.637  21.056  0.00  0.00    +0.000 C 
ATOM     10  C   UNL     1       1.420   3.250  21.258  0.00  0.00    +0.000 C 
ATOM     11  N   UNL     1       0.483   3.148  20.132  0.00  0.00    +0.000 NA
ATOM     12  C   UNL     1       0.962   3.152  18.745  0.00  0.00    +0.000 C 
ATOM     13  C   UNL     1       2.080   4.155  18.419  0.00  0.00    +0.000 C 
ATOM     14  H   UNL     1      -0.264   3.870  20.261  0.00  0.00    +0.000 HD
BRANCH   7  15
ATOM     15  O   UNL     1       3.677   2.383  18.153  0.00  0.00    +0.000 OA
ATOM     16  H   UNL     1       4.483   2.418  17.574  0.00  0.00    +0.000 HD
ENDBRANCH   7  15
ENDBRANCH   4   7
BRANCH   6  17
ATOM     17  C   UNL     1       7.764   6.735  17.348  0.00  0.00    +0.000 C 
BRANCH  17  18
ATOM     18  C   UNL     1       7.688   8.213  17.696  0.00  0.00    +0.000 C 
BRANCH  18  19
ATOM     19  O   UNL     1       8.581   8.644  18.658  0.00  0.00    +0.000 OA
BRANCH  19  20
ATOM     20  C   UNL     1       8.888   9.973  18.794  0.00  0.00    +0.000 A 
ATOM     21  C   UNL     1       8.620  10.909  17.761  0.00  0.00    +0.000 A 
ATOM     22  C   UNL     1       8.943  12.256  17.918  0.00  0.00    +0.000 A 
ATOM     23  C   UNL     1       9.533  12.696  19.100  0.00  0.00    +0.000 A 
ATOM     24  F   UNL     1       9.846  14.010  19.245  0.00  0.00    +0.000 F 
ATOM     25  C   UNL     1       9.805  11.789  20.128  0.00  0.00    +0.000 A 
ATOM     26  C   UNL     1       9.483  10.432  19.977  0.00  0.00    +0.000 A 
ENDBRANCH  19  20
ENDBRANCH  18  19
ENDBRANCH  17  18
ENDBRANCH   6  17
TORSDOF 6
ENDMDL
