MODEL 1
REMARK VINA RESULT:      -7.5      0.000      0.000
REMARK  Name = 
REMARK  10 active torsions:
REMARK  status: ('A' for Active; 'I' for Inactive)
REMARK    1  A    between atoms: C_1  and  C_2
REMARK    2  A    between atoms: C_2  and  C_4
REMARK    3  A    between atoms: C_6  and  O_7
REMARK    4  A    between atoms: O_7  and  C_8
REMARK    5  A    between atoms: C_8  and  C_9
REMARK    6  A    between atoms: C_18  and  O_19
REMARK    7  A    between atoms: O_19  and  C_20
REMARK    8  A    between atoms: C_20  and  C_21
REMARK    9  A    between atoms: C_21  and  C_22
REMARK   10  A    between atoms: C_22  and  C_23
REMARK                            x       y       z     vdW  Elec       q    Type
REMARK                         _______ _______ _______ _____ _____    ______ ____
ROOT
ATOM      1  C   UNL     1       2.907   6.335  18.180  0.00  0.00    +0.000 A 
ATOM      2  C   UNL     1       4.107   6.618  17.512  0.00  0.00    +0.000 A 
ATOM      3  C   UNL     1       4.852   5.620  16.897  0.00  0.00    +0.000 A 
ATOM      4  C   UNL     1       4.403   4.307  16.950  0.00  0.00    +0.000 A 
ATOM      5  C   UNL     1       3.224   4.002  17.636  0.00  0.00    +0.000 A 
ATOM      6  C   UNL     1       2.448   5.008  18.239  0.00  0.00    +0.000 A 
ENDROOT
BRANCH   1   8
ATOM      7  C   UNL     1       1.852   8.663  17.891  0.00  0.00    +0.000 C 
ATOM      8  C   UNL     1       2.273   7.530  18.803  0.00  0.00    +0.000 C 
ATOM      9  O   UNL     1       2.155   7.626  20.020  0.00  0.00    +0.000 OA
ENDBRANCH   1   8
BRANCH   3  10
ATOM     10  O   UNL     1       6.023   5.842  16.228  0.00  0.00    +0.000 OA
BRANCH  10  11
ATOM     11  C   UNL     1       6.784   4.666  15.939  0.00  0.00    +0.000 C 
BRANCH  11  12
ATOM     12  C   UNL     1       6.880   4.490  14.453  0.00  0.00    +0.000 A 
ATOM     13  C   UNL     1       7.730   5.320  13.706  0.00  0.00    +0.000 A 
ATOM     14  C   UNL     1       7.797   5.206  12.324  0.00  0.00    +0.000 A 
ATOM     15  C   UNL     1       7.005   4.265  11.668  0.00  0.00    +0.000 A 
ATOM     16  C   UNL     1       6.157   3.447  12.406  0.00  0.00    +0.000 A 
ATOM     17  F   UNL     1       5.393   2.549  11.775  0.00  0.00    +0.000 F 
ATOM     18  C   UNL     1       6.084   3.551  13.789  0.00  0.00    +0.000 A 
ENDBRANCH  11  12
ENDBRANCH  10  11
ENDBRANCH   3  10
BRANCH   6  19
ATOM     19  O   UNL     1       1.294   4.509  18.788  0.00  0.00    +0.000 OA
BRANCH  19  20
ATOM     20  C   UNL     1       1.266   4.393  20.202  0.00  0.00    +0.000 C 
BRANCH  20  21
ATOM     21  C   UNL     1       1.265   2.933  20.629  0.00  0.00    +0.000 C 
BRANCH  21  22
ATOM     22  C   UNL     1       2.440   2.713  21.577  0.00  0.00    +0.000 C 
BRANCH  22  23
ATOM     23  C   UNL     1       3.667   2.388  20.847  0.00  0.00    +0.000 C 
ATOM     24  N   UNL     1       4.648   2.157  20.277  0.00  0.00    +0.000 NA
ENDBRANCH  22  23
ENDBRANCH  21  22
ENDBRANCH  20  21
ENDBRANCH  19  20
ENDBRANCH   6  19
TORSDOF 9
ENDMDL
MODEL 2
REMARK VINA RESULT:      -7.4      1.766      3.126
REMARK  Name = 
REMARK  10 active torsions:
REMARK  status: ('A' for Active; 'I' for Inactive)
REMARK    1  A    between atoms: C_1  and  C_2
REMARK    2  A    between atoms: C_2  and  C_4
REMARK    3  A    between atoms: C_6  and  O_7
REMARK    4  A    between atoms: O_7  and  C_8
REMARK    5  A    between atoms: C_8  and  C_9
REMARK    6  A    between atoms: C_18  and  O_19
REMARK    7  A    between atoms: O_19  and  C_20
REMARK    8  A    between atoms: C_20  and  C_21
REMARK    9  A    between atoms: C_21  and  C_22
REMARK   10  A    between atoms: C_22  and  C_23
REMARK                            x       y       z     vdW  Elec       q    Type
REMARK                         _______ _______ _______ _____ _____    ______ ____
ROOT
ATOM      1  C   UNL     1       4.224   4.005  17.616  0.00  0.00    +0.000 A 
ATOM      2  C   UNL     1       5.084   3.762  16.536  0.00  0.00    +0.000 A 
ATOM      3  C   UNL     1       6.261   4.481  16.364  0.00  0.00    +0.000 A 
ATOM      4  C   UNL     1       6.592   5.470  17.281  0.00  0.00    +0.000 A 
ATOM      5  C   UNL     1       5.732   5.744  18.349  0.00  0.00    +0.000 A 
ATOM      6  C   UNL     1       4.552   5.005  18.546  0.00  0.00    +0.000 A 
ENDROOT
BRANCH   1   8
ATOM      7  C   UNL     1       3.093   1.772  18.211  0.00  0.00    +0.000 C 
ATOM      8  C   UNL     1       2.999   3.157  17.607  0.00  0.00    +0.000 C 
ATOM      9  O   UNL     1       1.964   3.540  17.071  0.00  0.00    +0.000 OA
ENDBRANCH   1   8
BRANCH   3  10
ATOM     10  O   UNL     1       7.135   4.280  15.334  0.00  0.00    +0.000 OA
BRANCH  10  11
ATOM     11  C   UNL     1       6.840   5.015  14.142  0.00  0.00    +0.000 C 
BRANCH  11  12
ATOM     12  C   UNL     1       6.330   4.073  13.093  0.00  0.00    +0.000 A 
ATOM     13  C   UNL     1       4.952   3.988  12.844  0.00  0.00    +0.000 A 
ATOM     14  C   UNL     1       4.453   3.088  11.911  0.00  0.00    +0.000 A 
ATOM     15  C   UNL     1       5.330   2.252  11.221  0.00  0.00    +0.000 A 
ATOM     16  C   UNL     1       6.695   2.330  11.471  0.00  0.00    +0.000 A 
ATOM     17  F   UNL     1       7.534   1.523  10.812  0.00  0.00    +0.000 F 
ATOM     18  C   UNL     1       7.203   3.229  12.400  0.00  0.00    +0.000 A 
ENDBRANCH  11  12
ENDBRANCH  10  11
ENDBRANCH   3  10
BRANCH   6  19
ATOM     19  O   UNL     1       3.897   5.379  19.692  0.00  0.00    +0.000 OA
BRANCH  19  20
ATOM     20  C   UNL     1       2.658   6.051  19.520  0.00  0.00    +0.000 C 
BRANCH  20  21
ATOM     21  C   UNL     1       1.712   5.751  20.672  0.00  0.00    +0.000 C 
BRANCH  21  22
ATOM     22  C   UNL     1       1.110   4.367  20.445  0.00  0.00    +0.000 C 
BRANCH  22  23
ATOM     23  C   UNL     1       1.716   3.366  21.324  0.00  0.00    +0.000 C 
ATOM     24  N   UNL     1       2.180   2.553  22.008  0.00  0.00    +0.000 NA
ENDBRANCH  22  23
ENDBRANCH  21  22
ENDBRANCH  20  21
ENDBRANCH  19  20
ENDBRANCH   6  19
TORSDOF 9
ENDMDL
MODEL 3
REMARK VINA RESULT:      -7.3      1.814      2.979
REMARK  Name = 
REMARK  10 active torsions:
REMARK  status: ('A' for Active; 'I' for Inactive)
REMARK    1  A    between atoms: C_1  and  C_2
REMARK    2  A    between atoms: C_2  and  C_4
REMARK    3  A    between atoms: C_6  and  O_7
REMARK    4  A    between atoms: O_7  and  C_8
REMARK    5  A    between atoms: C_8  and  C_9
REMARK    6  A    between atoms: C_18  and  O_19
REMARK    7  A    between atoms: O_19  and  C_20
REMARK    8  A    between atoms: C_20  and  C_21
REMARK    9  A    between atoms: C_21  and  C_22
REMARK   10  A    between atoms: C_22  and  C_23
REMARK                            x       y       z     vdW  Elec       q    Type
REMARK                         _______ _______ _______ _____ _____    ______ ____
ROOT
ATOM      1  C   UNL     1       4.305   3.887  19.017  0.00  0.00    +0.000 A 
ATOM      2  C   UNL     1       4.975   4.218  17.830  0.00  0.00    +0.000 A 
ATOM      3  C   UNL     1       4.891   5.489  17.275  0.00  0.00    +0.000 A 
ATOM      4  C   UNL     1       4.119   6.456  17.906  0.00  0.00    +0.000 A 
ATOM      5  C   UNL     1       3.422   6.136  19.075  0.00  0.00    +0.000 A 
ATOM      6  C   UNL     1       3.522   4.860  19.659  0.00  0.00    +0.000 A 
ENDROOT
BRANCH   1   8
ATOM      7  C   UNL     1       3.859   1.393  18.575  0.00  0.00    +0.000 C 
ATOM      8  C   UNL     1       4.490   2.469  19.433  0.00  0.00    +0.000 C 
ATOM      9  O   UNL     1       5.078   2.181  20.470  0.00  0.00    +0.000 OA
ENDBRANCH   1   8
BRANCH   3  10
ATOM     10  O   UNL     1       5.527   5.864  16.126  0.00  0.00    +0.000 OA
BRANCH  10  11
ATOM     11  C   UNL     1       6.783   5.219  15.894  0.00  0.00    +0.000 C 
BRANCH  11  12
ATOM     12  C   UNL     1       6.869   4.800  14.457  0.00  0.00    +0.000 A 
ATOM     13  C   UNL     1       7.778   5.436  13.599  0.00  0.00    +0.000 A 
ATOM     14  C   UNL     1       7.840   5.098  12.253  0.00  0.00    +0.000 A 
ATOM     15  C   UNL     1       6.982   4.124  11.745  0.00  0.00    +0.000 A 
ATOM     16  C   UNL     1       6.075   3.498  12.593  0.00  0.00    +0.000 A 
ATOM     17  F   UNL     1       5.247   2.568  12.103  0.00  0.00    +0.000 F 
ATOM     18  C   UNL     1       6.007   3.827  13.940  0.00  0.00    +0.000 A 
ENDBRANCH  11  12
ENDBRANCH  10  11
ENDBRANCH   3  10
BRANCH   6  19
ATOM     19  O   UNL     1       2.827   4.780  20.839  0.00  0.00    +0.000 OA
BRANCH  19  20
ATOM     20  C   UNL     1       1.451   4.444  20.741  0.00  0.00    +0.000 C 
BRANCH  20  21
ATOM     21  C   UNL     1       1.260   2.936  20.703  0.00  0.00    +0.000 C 
BRANCH  21  22
ATOM     22  C   UNL     1       0.418   2.594  19.477  0.00  0.00    +0.000 C 
BRANCH  22  23
ATOM     23  C   UNL     1       0.855   3.343  18.298  0.00  0.00    +0.000 C 
ATOM     24  N   UNL     1       1.188   3.916  17.348  0.00  0.00    +0.000 NA
ENDBRANCH  22  23
ENDBRANCH  21  22
ENDBRANCH  20  21
ENDBRANCH  19  20
ENDBRANCH   6  19
TORSDOF 9
ENDMDL
MODEL 4
REMARK VINA RESULT:      -7.2      3.316      7.394
REMARK  Name = 
REMARK  10 active torsions:
REMARK  status: ('A' for Active; 'I' for Inactive)
REMARK    1  A    between atoms: C_1  and  C_2
REMARK    2  A    between atoms: C_2  and  C_4
REMARK    3  A    between atoms: C_6  and  O_7
REMARK    4  A    between atoms: O_7  and  C_8
REMARK    5  A    between atoms: C_8  and  C_9
REMARK    6  A    between atoms: C_18  and  O_19
REMARK    7  A    between atoms: O_19  and  C_20
REMARK    8  A    between atoms: C_20  and  C_21
REMARK    9  A    between atoms: C_21  and  C_22
REMARK   10  A    between atoms: C_22  and  C_23
REMARK                            x       y       z     vdW  Elec       q    Type
REMARK                         _______ _______ _______ _____ _____    ______ ____
ROOT
ATOM      1  C   UNL     1       6.403   5.511  17.673  0.00  0.00    +0.000 A 
ATOM      2  C   UNL     1       5.490   5.745  18.710  0.00  0.00    +0.000 A 
ATOM      3  C   UNL     1       4.252   6.330  18.474  0.00  0.00    +0.000 A 
ATOM      4  C   UNL     1       3.911   6.699  17.179  0.00  0.00    +0.000 A 
ATOM      5  C   UNL     1       4.821   6.499  16.137  0.00  0.00    +0.000 A 
ATOM      6  C   UNL     1       6.065   5.884  16.361  0.00  0.00    +0.000 A 
ENDROOT
BRANCH   1   8
ATOM      7  C   UNL     1       8.257   5.381  19.451  0.00  0.00    +0.000 C 
ATOM      8  C   UNL     1       7.687   4.909  18.130  0.00  0.00    +0.000 C 
ATOM      9  O   UNL     1       8.297   4.107  17.432  0.00  0.00    +0.000 OA
ENDBRANCH   1   8
BRANCH   3  10
ATOM     10  O   UNL     1       3.324   6.575  19.447  0.00  0.00    +0.000 OA
BRANCH  10  11
ATOM     11  C   UNL     1       1.975   6.267  19.084  0.00  0.00    +0.000 C 
BRANCH  11  12
ATOM     12  C   UNL     1       1.710   4.814  19.342  0.00  0.00    +0.000 A 
ATOM     13  C   UNL     1       1.527   3.937  18.263  0.00  0.00    +0.000 A 
ATOM     14  C   UNL     1       1.233   2.597  18.479  0.00  0.00    +0.000 A 
ATOM     15  C   UNL     1       1.107   2.119  19.783  0.00  0.00    +0.000 A 
ATOM     16  C   UNL     1       1.282   2.988  20.853  0.00  0.00    +0.000 A 
ATOM     17  F   UNL     1       1.155   2.530  22.104  0.00  0.00    +0.000 F 
ATOM     18  C   UNL     1       1.578   4.329  20.647  0.00  0.00    +0.000 A 
ENDBRANCH  11  12
ENDBRANCH  10  11
ENDBRANCH   3  10
BRANCH   6  19
ATOM     19  O   UNL     1       6.770   5.710  15.196  0.00  0.00    +0.000 OA
BRANCH  19  20
ATOM     20  C   UNL     1       6.558   4.489  14.505  0.00  0.00    +0.000 C 
BRANCH  20  21
ATOM     21  C   UNL     1       6.912   4.629  13.033  0.00  0.00    +0.000 C 
BRANCH  21  22
ATOM     22  C   UNL     1       6.579   3.312  12.336  0.00  0.00    +0.000 C 
BRANCH  22  23
ATOM     23  C   UNL     1       5.191   3.286  11.871  0.00  0.00    +0.000 C 
ATOM     24  N   UNL     1       4.100   3.281  11.480  0.00  0.00    +0.000 NA
ENDBRANCH  22  23
ENDBRANCH  21  22
ENDBRANCH  20  21
ENDBRANCH  19  20
ENDBRANCH   6  19
TORSDOF 9
ENDMDL
MODEL 5
REMARK VINA RESULT:      -7.2      4.101      7.748
REMARK  Name = 
REMARK  10 active torsions:
REMARK  status: ('A' for Active; 'I' for Inactive)
REMARK    1  A    between atoms: C_1  and  C_2
REMARK    2  A    between atoms: C_2  and  C_4
REMARK    3  A    between atoms: C_6  and  O_7
REMARK    4  A    between atoms: O_7  and  C_8
REMARK    5  A    between atoms: C_8  and  C_9
REMARK    6  A    between atoms: C_18  and  O_19
REMARK    7  A    between atoms: O_19  and  C_20
REMARK    8  A    between atoms: C_20  and  C_21
REMARK    9  A    between atoms: C_21  and  C_22
REMARK   10  A    between atoms: C_22  and  C_23
REMARK                            x       y       z     vdW  Elec       q    Type
REMARK                         _______ _______ _______ _____ _____    ______ ____
ROOT
ATOM      1  C   UNL     1       6.515   5.028  15.411  0.00  0.00    +0.000 A 
ATOM      2  C   UNL     1       5.467   4.101  15.511  0.00  0.00    +0.000 A 
ATOM      3  C   UNL     1       4.725   3.962  16.677  0.00  0.00    +0.000 A 
ATOM      4  C   UNL     1       5.030   4.756  17.775  0.00  0.00    +0.000 A 
ATOM      5  C   UNL     1       6.089   5.666  17.702  0.00  0.00    +0.000 A 
ATOM      6  C   UNL     1       6.830   5.833  16.518  0.00  0.00    +0.000 A 
ENDROOT
BRANCH   1   8
ATOM      7  C   UNL     1       6.709   4.033  13.046  0.00  0.00    +0.000 C 
ATOM      8  C   UNL     1       7.212   5.003  14.095  0.00  0.00    +0.000 C 
ATOM      9  O   UNL     1       8.202   5.696  13.886  0.00  0.00    +0.000 OA
ENDBRANCH   1   8
BRANCH   3  10
ATOM     10  O   UNL     1       3.693   3.080  16.824  0.00  0.00    +0.000 OA
BRANCH  10  11
ATOM     11  C   UNL     1       3.831   2.168  17.919  0.00  0.00    +0.000 C 
BRANCH  11  12
ATOM     12  C   UNL     1       2.779   2.461  18.946  0.00  0.00    +0.000 A 
ATOM     13  C   UNL     1       1.430   2.511  18.567  0.00  0.00    +0.000 A 
ATOM     14  C   UNL     1       0.444   2.829  19.492  0.00  0.00    +0.000 A 
ATOM     15  C   UNL     1       0.799   3.113  20.810  0.00  0.00    +0.000 A 
ATOM     16  C   UNL     1       2.137   3.071  21.186  0.00  0.00    +0.000 A 
ATOM     17  F   UNL     1       2.477   3.350  22.449  0.00  0.00    +0.000 F 
ATOM     18  C   UNL     1       3.129   2.752  20.268  0.00  0.00    +0.000 A 
ENDBRANCH  11  12
ENDBRANCH  10  11
ENDBRANCH   3  10
BRANCH   6  19
ATOM     19  O   UNL     1       7.767   6.828  16.634  0.00  0.00    +0.000 OA
BRANCH  19  20
ATOM     20  C   UNL     1       7.353   8.012  17.299  0.00  0.00    +0.000 C 
BRANCH  20  21
ATOM     21  C   UNL     1       8.447   8.530  18.220  0.00  0.00    +0.000 C 
BRANCH  21  22
ATOM     22  C   UNL     1       8.396  10.055  18.209  0.00  0.00    +0.000 C 
BRANCH  22  23
ATOM     23  C   UNL     1       9.570  10.637  18.863  0.00  0.00    +0.000 C 
ATOM     24  N   UNL     1      10.484  11.121  19.384  0.00  0.00    +0.000 NA
ENDBRANCH  22  23
ENDBRANCH  21  22
ENDBRANCH  20  21
ENDBRANCH  19  20
ENDBRANCH   6  19
TORSDOF 9
ENDMDL
MODEL 6
REMARK VINA RESULT:      -7.2      2.823      7.026
REMARK  Name = 
REMARK  10 active torsions:
REMARK  status: ('A' for Active; 'I' for Inactive)
REMARK    1  A    between atoms: C_1  and  C_2
REMARK    2  A    between atoms: C_2  and  C_4
REMARK    3  A    between atoms: C_6  and  O_7
REMARK    4  A    between atoms: O_7  and  C_8
REMARK    5  A    between atoms: C_8  and  C_9
REMARK    6  A    between atoms: C_18  and  O_19
REMARK    7  A    between atoms: O_19  and  C_20
REMARK    8  A    between atoms: C_20  and  C_21
REMARK    9  A    between atoms: C_21  and  C_22
REMARK   10  A    between atoms: C_22  and  C_23
REMARK                            x       y       z     vdW  Elec       q    Type
REMARK                         _______ _______ _______ _____ _____    ______ ____
ROOT
ATOM      1  C   UNL     1       6.518   5.530  17.484  0.00  0.00    +0.000 A 
ATOM      2  C   UNL     1       5.514   5.955  18.365  0.00  0.00    +0.000 A 
ATOM      3  C   UNL     1       4.338   6.536  17.906  0.00  0.00    +0.000 A 
ATOM      4  C   UNL     1       4.154   6.708  16.541  0.00  0.00    +0.000 A 
ATOM      5  C   UNL     1       5.156   6.316  15.649  0.00  0.00    +0.000 A 
ATOM      6  C   UNL     1       6.339   5.703  16.101  0.00  0.00    +0.000 A 
ENDROOT
BRANCH   1   8
ATOM      7  C   UNL     1       8.148   5.599  19.473  0.00  0.00    +0.000 C 
ATOM      8  C   UNL     1       7.716   4.966  18.167  0.00  0.00    +0.000 C 
ATOM      9  O   UNL     1       8.370   4.061  17.660  0.00  0.00    +0.000 OA
ENDBRANCH   1   8
BRANCH   3  10
ATOM     10  O   UNL     1       3.328   6.960  18.721  0.00  0.00    +0.000 OA
BRANCH  10  11
ATOM     11  C   UNL     1       2.024   6.498  18.356  0.00  0.00    +0.000 C 
BRANCH  11  12
ATOM     12  C   UNL     1       1.868   5.068  18.779  0.00  0.00    +0.000 A 
ATOM     13  C   UNL     1       1.593   4.764  20.121  0.00  0.00    +0.000 A 
ATOM     14  C   UNL     1       1.493   3.445  20.544  0.00  0.00    +0.000 A 
ATOM     15  C   UNL     1       1.677   2.410  19.628  0.00  0.00    +0.000 A 
ATOM     16  C   UNL     1       1.956   2.709  18.300  0.00  0.00    +0.000 A 
ATOM     17  F   UNL     1       2.139   1.715  17.423  0.00  0.00    +0.000 F 
ATOM     18  C   UNL     1       2.056   4.025  17.867  0.00  0.00    +0.000 A 
ENDBRANCH  11  12
ENDBRANCH  10  11
ENDBRANCH   3  10
BRANCH   6  19
ATOM     19  O   UNL     1       7.152   5.325  15.062  0.00  0.00    +0.000 OA
BRANCH  19  20
ATOM     20  C   UNL     1       6.839   4.094  14.429  0.00  0.00    +0.000 C 
BRANCH  20  21
ATOM     21  C   UNL     1       6.790   4.256  12.918  0.00  0.00    +0.000 C 
BRANCH  21  22
ATOM     22  C   UNL     1       5.578   3.491  12.396  0.00  0.00    +0.000 C 
BRANCH  22  23
ATOM     23  C   UNL     1       5.975   2.278  11.678  0.00  0.00    +0.000 C 
ATOM     24  N   UNL     1       6.307   1.313  11.131  0.00  0.00    +0.000 NA
ENDBRANCH  22  23
ENDBRANCH  21  22
ENDBRANCH  20  21
ENDBRANCH  19  20
ENDBRANCH   6  19
TORSDOF 9
ENDMDL
MODEL 7
REMARK VINA RESULT:      -7.1      1.071      1.448
REMARK  Name = 
REMARK  10 active torsions:
REMARK  status: ('A' for Active; 'I' for Inactive)
REMARK    1  A    between atoms: C_1  and  C_2
REMARK    2  A    between atoms: C_2  and  C_4
REMARK    3  A    between atoms: C_6  and  O_7
REMARK    4  A    between atoms: O_7  and  C_8
REMARK    5  A    between atoms: C_8  and  C_9
REMARK    6  A    between atoms: C_18  and  O_19
REMARK    7  A    between atoms: O_19  and  C_20
REMARK    8  A    between atoms: C_20  and  C_21
REMARK    9  A    between atoms: C_21  and  C_22
REMARK   10  A    between atoms: C_22  and  C_23
REMARK                            x       y       z     vdW  Elec       q    Type
REMARK                         _______ _______ _______ _____ _____    ______ ____
ROOT
ATOM      1  C   UNL     1       2.830   6.000  18.342  0.00  0.00    +0.000 A 
ATOM      2  C   UNL     1       4.077   6.248  17.753  0.00  0.00    +0.000 A 
ATOM      3  C   UNL     1       4.764   5.263  17.054  0.00  0.00    +0.000 A 
ATOM      4  C   UNL     1       4.205   3.997  16.941  0.00  0.00    +0.000 A 
ATOM      5  C   UNL     1       2.975   3.723  17.546  0.00  0.00    +0.000 A 
ATOM      6  C   UNL     1       2.259   4.720  18.233  0.00  0.00    +0.000 A 
ENDROOT
BRANCH   1   8
ATOM      7  C   UNL     1       2.073   8.458  18.305  0.00  0.00    +0.000 C 
ATOM      8  C   UNL     1       2.271   7.170  19.076  0.00  0.00    +0.000 C 
ATOM      9  O   UNL     1       2.038   7.115  20.279  0.00  0.00    +0.000 OA
ENDBRANCH   1   8
BRANCH   3  10
ATOM     10  O   UNL     1       5.977   5.454  16.457  0.00  0.00    +0.000 OA
BRANCH  10  11
ATOM     11  C   UNL     1       6.601   4.264  15.965  0.00  0.00    +0.000 C 
BRANCH  11  12
ATOM     12  C   UNL     1       6.764   4.367  14.479  0.00  0.00    +0.000 A 
ATOM     13  C   UNL     1       6.173   3.405  13.645  0.00  0.00    +0.000 A 
ATOM     14  C   UNL     1       6.351   3.453  12.269  0.00  0.00    +0.000 A 
ATOM     15  C   UNL     1       7.134   4.462  11.708  0.00  0.00    +0.000 A 
ATOM     16  C   UNL     1       7.725   5.412  12.533  0.00  0.00    +0.000 A 
ATOM     17  F   UNL     1       8.481   6.375  11.995  0.00  0.00    +0.000 F 
ATOM     18  C   UNL     1       7.551   5.373  13.910  0.00  0.00    +0.000 A 
ENDBRANCH  11  12
ENDBRANCH  10  11
ENDBRANCH   3  10
BRANCH   6  19
ATOM     19  O   UNL     1       1.044   4.266  18.680  0.00  0.00    +0.000 OA
BRANCH  19  20
ATOM     20  C   UNL     1       0.941   4.002  20.071  0.00  0.00    +0.000 C 
BRANCH  20  21
ATOM     21  C   UNL     1       1.473   2.617  20.403  0.00  0.00    +0.000 C 
BRANCH  21  22
ATOM     22  C   UNL     1       2.631   2.774  21.384  0.00  0.00    +0.000 C 
BRANCH  22  23
ATOM     23  C   UNL     1       3.896   2.324  20.800  0.00  0.00    +0.000 C 
ATOM     24  N   UNL     1       4.889   1.942  20.343  0.00  0.00    +0.000 NA
ENDBRANCH  22  23
ENDBRANCH  21  22
ENDBRANCH  20  21
ENDBRANCH  19  20
ENDBRANCH   6  19
TORSDOF 9
ENDMDL
MODEL 8
REMARK VINA RESULT:      -7.1      1.467      1.704
REMARK  Name = 
REMARK  10 active torsions:
REMARK  status: ('A' for Active; 'I' for Inactive)
REMARK    1  A    between atoms: C_1  and  C_2
REMARK    2  A    between atoms: C_2  and  C_4
REMARK    3  A    between atoms: C_6  and  O_7
REMARK    4  A    between atoms: O_7  and  C_8
REMARK    5  A    between atoms: C_8  and  C_9
REMARK    6  A    between atoms: C_18  and  O_19
REMARK    7  A    between atoms: O_19  and  C_20
REMARK    8  A    between atoms: C_20  and  C_21
REMARK    9  A    between atoms: C_21  and  C_22
REMARK   10  A    between atoms: C_22  and  C_23
REMARK                            x       y       z     vdW  Elec       q    Type
REMARK                         _______ _______ _______ _____ _____    ______ ____
ROOT
ATOM      1  C   UNL     1       3.214   6.643  18.718  0.00  0.00    +0.000 A 
ATOM      2  C   UNL     1       4.070   6.718  17.610  0.00  0.00    +0.000 A 
ATOM      3  C   UNL     1       5.095   5.801  17.417  0.00  0.00    +0.000 A 
ATOM      4  C   UNL     1       5.283   4.787  18.347  0.00  0.00    +0.000 A 
ATOM      5  C   UNL     1       4.457   4.714  19.472  0.00  0.00    +0.000 A 
ATOM      6  C   UNL     1       3.399   5.621  19.664  0.00  0.00    +0.000 A 
ENDROOT
BRANCH   1   8
ATOM      7  C   UNL     1       1.674   8.150  20.124  0.00  0.00    +0.000 C 
ATOM      8  C   UNL     1       2.201   7.735  18.766  0.00  0.00    +0.000 C 
ATOM      9  O   UNL     1       1.759   8.238  17.739  0.00  0.00    +0.000 OA
ENDBRANCH   1   8
BRANCH   3  10
ATOM     10  O   UNL     1       5.952   5.826  16.354  0.00  0.00    +0.000 OA
BRANCH  10  11
ATOM     11  C   UNL     1       6.591   4.578  16.065  0.00  0.00    +0.000 C 
BRANCH  11  12
ATOM     12  C   UNL     1       6.770   4.442  14.583  0.00  0.00    +0.000 A 
ATOM     13  C   UNL     1       7.652   5.297  13.906  0.00  0.00    +0.000 A 
ATOM     14  C   UNL     1       7.796   5.222  12.527  0.00  0.00    +0.000 A 
ATOM     15  C   UNL     1       7.049   4.293  11.804  0.00  0.00    +0.000 A 
ATOM     16  C   UNL     1       6.169   3.450  12.472  0.00  0.00    +0.000 A 
ATOM     17  F   UNL     1       5.447   2.564  11.777  0.00  0.00    +0.000 F 
ATOM     18  C   UNL     1       6.019   3.517  13.851  0.00  0.00    +0.000 A 
ENDBRANCH  11  12
ENDBRANCH  10  11
ENDBRANCH   3  10
BRANCH   6  19
ATOM     19  O   UNL     1       2.664   5.326  20.784  0.00  0.00    +0.000 OA
BRANCH  19  20
ATOM     20  C   UNL     1       2.202   3.990  20.903  0.00  0.00    +0.000 C 
BRANCH  20  21
ATOM     21  C   UNL     1       0.859   3.815  20.212  0.00  0.00    +0.000 C 
BRANCH  21  22
ATOM     22  C   UNL     1       0.954   2.606  19.285  0.00  0.00    +0.000 C 
BRANCH  22  23
ATOM     23  C   UNL     1       1.672   2.929  18.051  0.00  0.00    +0.000 C 
ATOM     24  N   UNL     1       2.241   3.157  17.068  0.00  0.00    +0.000 NA
ENDBRANCH  22  23
ENDBRANCH  21  22
ENDBRANCH  20  21
ENDBRANCH  19  20
ENDBRANCH   6  19
TORSDOF 9
ENDMDL
MODEL 9
REMARK VINA RESULT:      -7.0      2.257      3.340
REMARK  Name = 
REMARK  10 active torsions:
REMARK  status: ('A' for Active; 'I' for Inactive)
REMARK    1  A    between atoms: C_1  and  C_2
REMARK    2  A    between atoms: C_2  and  C_4
REMARK    3  A    between atoms: C_6  and  O_7
REMARK    4  A    between atoms: O_7  and  C_8
REMARK    5  A    between atoms: C_8  and  C_9
REMARK    6  A    between atoms: C_18  and  O_19
REMARK    7  A    between atoms: O_19  and  C_20
REMARK    8  A    between atoms: C_20  and  C_21
REMARK    9  A    between atoms: C_21  and  C_22
REMARK   10  A    between atoms: C_22  and  C_23
REMARK                            x       y       z     vdW  Elec       q    Type
REMARK                         _______ _______ _______ _____ _____    ______ ____
ROOT
ATOM      1  C   UNL     1       6.516   5.167  18.305  0.00  0.00    +0.000 A 
ATOM      2  C   UNL     1       7.114   4.826  17.083  0.00  0.00    +0.000 A 
ATOM      3  C   UNL     1       6.407   4.170  16.083  0.00  0.00    +0.000 A 
ATOM      4  C   UNL     1       5.077   3.835  16.300  0.00  0.00    +0.000 A 
ATOM      5  C   UNL     1       4.473   4.142  17.522  0.00  0.00    +0.000 A 
ATOM      6  C   UNL     1       5.171   4.830  18.531  0.00  0.00    +0.000 A 
ENDROOT
BRANCH   1   8
ATOM      7  C   UNL     1       8.176   7.072  18.786  0.00  0.00    +0.000 C 
ATOM      8  C   UNL     1       7.445   5.834  19.260  0.00  0.00    +0.000 C 
ATOM      9  O   UNL     1       7.662   5.362  20.371  0.00  0.00    +0.000 OA
ENDBRANCH   1   8
BRANCH   3  10
ATOM     10  O   UNL     1       6.940   3.821  14.874  0.00  0.00    +0.000 OA
BRANCH  10  11
ATOM     11  C   UNL     1       6.438   4.563  13.758  0.00  0.00    +0.000 C 
BRANCH  11  12
ATOM     12  C   UNL     1       5.931   3.611  12.717  0.00  0.00    +0.000 A 
ATOM     13  C   UNL     1       6.791   2.641  12.181  0.00  0.00    +0.000 A 
ATOM     14  C   UNL     1       6.356   1.781  11.181  0.00  0.00    +0.000 A 
ATOM     15  C   UNL     1       5.053   1.888  10.696  0.00  0.00    +0.000 A 
ATOM     16  C   UNL     1       4.202   2.854  11.221  0.00  0.00    +0.000 A 
ATOM     17  F   UNL     1       2.954   2.960  10.750  0.00  0.00    +0.000 F 
ATOM     18  C   UNL     1       4.627   3.717  12.222  0.00  0.00    +0.000 A 
ENDBRANCH  11  12
ENDBRANCH  10  11
ENDBRANCH   3  10
BRANCH   6  19
ATOM     19  O   UNL     1       4.375   5.101  19.615  0.00  0.00    +0.000 OA
BRANCH  19  20
ATOM     20  C   UNL     1       3.283   5.980  19.392  0.00  0.00    +0.000 C 
BRANCH  20  21
ATOM     21  C   UNL     1       2.091   5.596  20.256  0.00  0.00    +0.000 C 
BRANCH  21  22
ATOM     22  C   UNL     1       1.761   4.131  19.987  0.00  0.00    +0.000 C 
BRANCH  22  23
ATOM     23  C   UNL     1       1.795   3.338  21.217  0.00  0.00    +0.000 C 
ATOM     24  N   UNL     1       1.803   2.692  22.179  0.00  0.00    +0.000 NA
ENDBRANCH  22  23
ENDBRANCH  21  22
ENDBRANCH  20  21
ENDBRANCH  19  20
ENDBRANCH   6  19
TORSDOF 9
ENDMDL
