MODEL 1
REMARK VINA RESULT:      -7.8      0.000      0.000
REMARK  Name = 
REMARK  3 active torsions:
REMARK  status: ('A' for Active; 'I' for Inactive)
REMARK    1  A    between atoms: N_1  and  C_2
REMARK    2  A    between atoms: C_9  and  C_10
REMARK    3  A    between atoms: C_14  and  N_15
REMARK                            x       y       z     vdW  Elec       q    Type
REMARK                         _______ _______ _______ _____ _____    ______ ____
ROOT
ATOM      1  C   UNL     1       2.947   2.740  20.381  0.00  0.00    +0.000 C 
ATOM      2  C   UNL     1       2.211   4.027  20.754  0.00  0.00    +0.000 C 
ATOM      3  C   UNL     1       1.492   4.654  19.556  0.00  0.00    +0.000 C 
ATOM      4  C   UNL     1       2.398   5.507  18.690  0.00  0.00    +0.000 A 
ATOM      5  C   UNL     1       2.175   6.893  18.694  0.00  0.00    +0.000 A 
ATOM      6  C   UNL     1       2.965   7.737  17.921  0.00  0.00    +0.000 A 
ATOM      7  C   UNL     1       3.962   7.196  17.114  0.00  0.00    +0.000 A 
ATOM      8  C   UNL     1       4.230   5.807  17.068  0.00  0.00    +0.000 A 
ATOM      9  C   UNL     1       3.447   4.952  17.900  0.00  0.00    +0.000 A 
ATOM     10  C   UNL     1       3.705   3.459  18.016  0.00  0.00    +0.000 C 
ATOM     11  C   UNL     1       4.099   3.056  19.420  0.00  0.00    +0.000 C 
ATOM     12  O   UNL     1       5.282   3.043  19.774  0.00  0.00    +0.000 OA
ENDROOT
BRANCH   8  13
ATOM     13  C   UNL     1       5.299   5.342  16.140  0.00  0.00    +0.000 A 
ATOM     14  C   UNL     1       6.664   5.463  16.478  0.00  0.00    +0.000 A 
ATOM     15  C   UNL     1       7.681   5.056  15.606  0.00  0.00    +0.000 A 
ATOM     16  C   UNL     1       7.361   4.465  14.388  0.00  0.00    +0.000 A 
ATOM     17  C   UNL     1       6.016   4.326  14.037  0.00  0.00    +0.000 A 
ATOM     18  C   UNL     1       5.001   4.809  14.876  0.00  0.00    +0.000 A 
BRANCH  17  19
ATOM     19  N   UNL     1       5.652   3.632  12.798  0.00  0.00    +0.000 N 
ATOM     20  O   UNL     1       4.451   3.580  12.496  0.00  0.00    +0.000 OA
ATOM     21  O   UNL     1       6.570   3.152  12.116  0.00  0.00    +0.000 OA
ENDBRANCH  17  19
ENDBRANCH   8  13
BRANCH   1  22
ATOM     22  N   UNL     1       3.480   2.067  21.578  0.00  0.00    +0.000 NA
ATOM     23  H   UNL     1       3.392   1.057  21.497  0.00  0.00    +0.000 HD
ATOM     24  H   UNL     1       2.914   2.352  22.382  0.00  0.00    +0.000 HD
ENDBRANCH   1  22
TORSDOF 3
ENDMDL
MODEL 2
REMARK VINA RESULT:      -7.5      3.552      6.526
REMARK  Name = 
REMARK  3 active torsions:
REMARK  status: ('A' for Active; 'I' for Inactive)
REMARK    1  A    between atoms: N_1  and  C_2
REMARK    2  A    between atoms: C_9  and  C_10
REMARK    3  A    between atoms: C_14  and  N_15
REMARK                            x       y       z     vdW  Elec       q    Type
REMARK                         _______ _______ _______ _____ _____    ______ ____
ROOT
ATOM      1  C   UNL     1       2.445   2.451  19.294  0.00  0.00    +0.000 C 
ATOM      2  C   UNL     1       3.688   2.392  18.404  0.00  0.00    +0.000 C 
ATOM      3  C   UNL     1       4.763   3.391  18.842  0.00  0.00    +0.000 C 
ATOM      4  C   UNL     1       4.534   4.793  18.309  0.00  0.00    +0.000 A 
ATOM      5  C   UNL     1       5.435   5.270  17.344  0.00  0.00    +0.000 A 
ATOM      6  C   UNL     1       5.290   6.546  16.814  0.00  0.00    +0.000 A 
ATOM      7  C   UNL     1       4.260   7.366  17.269  0.00  0.00    +0.000 A 
ATOM      8  C   UNL     1       3.324   6.939  18.241  0.00  0.00    +0.000 A 
ATOM      9  C   UNL     1       3.451   5.611  18.746  0.00  0.00    +0.000 A 
ATOM     10  C   UNL     1       2.451   5.001  19.715  0.00  0.00    +0.000 C 
ATOM     11  C   UNL     1       1.743   3.803  19.124  0.00  0.00    +0.000 C 
ATOM     12  O   UNL     1       0.689   3.929  18.492  0.00  0.00    +0.000 OA
ENDROOT
BRANCH   8  13
ATOM     13  C   UNL     1       2.288   7.917  18.675  0.00  0.00    +0.000 A 
ATOM     14  C   UNL     1       1.682   8.798  17.754  0.00  0.00    +0.000 A 
ATOM     15  C   UNL     1       0.725   9.741  18.150  0.00  0.00    +0.000 A 
ATOM     16  C   UNL     1       0.306   9.795  19.475  0.00  0.00    +0.000 A 
ATOM     17  C   UNL     1       0.885   8.925  20.403  0.00  0.00    +0.000 A 
ATOM     18  C   UNL     1       1.901   8.037  20.020  0.00  0.00    +0.000 A 
BRANCH  17  19
ATOM     19  N   UNL     1       0.401   8.904  21.787  0.00  0.00    +0.000 N 
ATOM     20  O   UNL     1      -0.620   8.245  22.032  0.00  0.00    +0.000 OA
ATOM     21  O   UNL     1       1.052   9.534  22.634  0.00  0.00    +0.000 OA
ENDBRANCH  17  19
ENDBRANCH   8  13
BRANCH   1  22
ATOM     22  N   UNL     1       1.504   1.367  18.963  0.00  0.00    +0.000 NA
ATOM     23  H   UNL     1       1.209   1.425  17.991  0.00  0.00    +0.000 HD
ATOM     24  H   UNL     1       0.664   1.488  19.537  0.00  0.00    +0.000 HD
ENDBRANCH   1  22
TORSDOF 3
ENDMDL
MODEL 3
REMARK VINA RESULT:      -7.5      2.153      3.166
REMARK  Name = 
REMARK  3 active torsions:
REMARK  status: ('A' for Active; 'I' for Inactive)
REMARK    1  A    between atoms: N_1  and  C_2
REMARK    2  A    between atoms: C_9  and  C_10
REMARK    3  A    between atoms: C_14  and  N_15
REMARK                            x       y       z     vdW  Elec       q    Type
REMARK                         _______ _______ _______ _____ _____    ______ ____
ROOT
ATOM      1  C   UNL     1       2.160   7.031  20.351  0.00  0.00    +0.000 C 
ATOM      2  C   UNL     1       1.300   5.810  20.678  0.00  0.00    +0.000 C 
ATOM      3  C   UNL     1       2.146   4.584  21.037  0.00  0.00    +0.000 C 
ATOM      4  C   UNL     1       2.642   3.821  19.823  0.00  0.00    +0.000 A 
ATOM      5  C   UNL     1       2.099   2.546  19.597  0.00  0.00    +0.000 A 
ATOM      6  C   UNL     1       2.510   1.788  18.507  0.00  0.00    +0.000 A 
ATOM      7  C   UNL     1       3.490   2.287  17.653  0.00  0.00    +0.000 A 
ATOM      8  C   UNL     1       4.074   3.564  17.833  0.00  0.00    +0.000 A 
ATOM      9  C   UNL     1       3.613   4.356  18.927  0.00  0.00    +0.000 A 
ATOM     10  C   UNL     1       4.087   5.780  19.166  0.00  0.00    +0.000 C 
ATOM     11  C   UNL     1       2.957   6.781  19.066  0.00  0.00    +0.000 C 
ATOM     12  O   UNL     1       2.668   7.314  17.990  0.00  0.00    +0.000 OA
ENDROOT
BRANCH   8  13
ATOM     13  C   UNL     1       5.138   3.975  16.876  0.00  0.00    +0.000 A 
ATOM     14  C   UNL     1       6.340   4.562  17.326  0.00  0.00    +0.000 A 
ATOM     15  C   UNL     1       7.339   4.979  16.438  0.00  0.00    +0.000 A 
ATOM     16  C   UNL     1       7.187   4.772  15.071  0.00  0.00    +0.000 A 
ATOM     17  C   UNL     1       6.010   4.184  14.602  0.00  0.00    +0.000 A 
ATOM     18  C   UNL     1       4.976   3.842  15.488  0.00  0.00    +0.000 A 
BRANCH  17  19
ATOM     19  N   UNL     1       5.861   3.878  13.177  0.00  0.00    +0.000 N 
ATOM     20  O   UNL     1       4.723   3.634  12.753  0.00  0.00    +0.000 OA
ATOM     21  O   UNL     1       6.884   3.900  12.474  0.00  0.00    +0.000 OA
ENDBRANCH  17  19
ENDBRANCH   8  13
BRANCH   1  22
ATOM     22  N   UNL     1       1.329   8.236  20.183  0.00  0.00    +0.000 NA
ATOM     23  H   UNL     1       1.351   8.813  21.020  0.00  0.00    +0.000 HD
ATOM     24  H   UNL     1       0.357   7.936  20.054  0.00  0.00    +0.000 HD
ENDBRANCH   1  22
TORSDOF 3
ENDMDL
MODEL 4
REMARK VINA RESULT:      -7.4      3.817      7.113
REMARK  Name = 
REMARK  3 active torsions:
REMARK  status: ('A' for Active; 'I' for Inactive)
REMARK    1  A    between atoms: N_1  and  C_2
REMARK    2  A    between atoms: C_9  and  C_10
REMARK    3  A    between atoms: C_14  and  N_15
REMARK                            x       y       z     vdW  Elec       q    Type
REMARK                         _______ _______ _______ _____ _____    ______ ____
ROOT
ATOM      1  C   UNL     1       6.099   5.463  16.014  0.00  0.00    +0.000 C 
ATOM      2  C   UNL     1       6.041   4.150  16.795  0.00  0.00    +0.000 C 
ATOM      3  C   UNL     1       4.612   3.615  16.928  0.00  0.00    +0.000 C 
ATOM      4  C   UNL     1       3.837   4.246  18.069  0.00  0.00    +0.000 A 
ATOM      5  C   UNL     1       3.529   3.428  19.168  0.00  0.00    +0.000 A 
ATOM      6  C   UNL     1       2.818   3.937  20.248  0.00  0.00    +0.000 A 
ATOM      7  C   UNL     1       2.383   5.260  20.222  0.00  0.00    +0.000 A 
ATOM      8  C   UNL     1       2.663   6.129  19.141  0.00  0.00    +0.000 A 
ATOM      9  C   UNL     1       3.433   5.613  18.057  0.00  0.00    +0.000 A 
ATOM     10  C   UNL     1       3.885   6.473  16.888  0.00  0.00    +0.000 C 
ATOM     11  C   UNL     1       5.392   6.572  16.802  0.00  0.00    +0.000 C 
ATOM     12  O   UNL     1       6.009   7.468  17.387  0.00  0.00    +0.000 OA
ENDROOT
BRANCH   8  13
ATOM     13  C   UNL     1       2.115   7.513  19.210  0.00  0.00    +0.000 A 
ATOM     14  C   UNL     1       2.140   8.366  18.087  0.00  0.00    +0.000 A 
ATOM     15  C   UNL     1       1.654   9.678  18.143  0.00  0.00    +0.000 A 
ATOM     16  C   UNL     1       1.077  10.159  19.314  0.00  0.00    +0.000 A 
ATOM     17  C   UNL     1       1.032   9.328  20.436  0.00  0.00    +0.000 A 
ATOM     18  C   UNL     1       1.594   8.043  20.402  0.00  0.00    +0.000 A 
BRANCH  17  19
ATOM     19  N   UNL     1       0.356   9.781  21.655  0.00  0.00    +0.000 N 
ATOM     20  O   UNL     1      -0.449   9.006  22.191  0.00  0.00    +0.000 OA
ATOM     21  O   UNL     1       0.642  10.908  22.087  0.00  0.00    +0.000 OA
ENDBRANCH  17  19
ENDBRANCH   8  13
BRANCH   1  22
ATOM     22  N   UNL     1       7.491   5.863  15.751  0.00  0.00    +0.000 NA
ATOM     23  H   UNL     1       7.926   5.242  15.072  0.00  0.00    +0.000 HD
ATOM     24  H   UNL     1       8.021   5.767  16.623  0.00  0.00    +0.000 HD
ENDBRANCH   1  22
TORSDOF 3
ENDMDL
MODEL 5
REMARK VINA RESULT:      -7.2      3.260      4.157
REMARK  Name = 
REMARK  3 active torsions:
REMARK  status: ('A' for Active; 'I' for Inactive)
REMARK    1  A    between atoms: N_1  and  C_2
REMARK    2  A    between atoms: C_9  and  C_10
REMARK    3  A    between atoms: C_14  and  N_15
REMARK                            x       y       z     vdW  Elec       q    Type
REMARK                         _______ _______ _______ _____ _____    ______ ____
ROOT
ATOM      1  C   UNL     1       1.733   6.577  20.800  0.00  0.00    +0.000 C 
ATOM      2  C   UNL     1       0.822   5.351  20.729  0.00  0.00    +0.000 C 
ATOM      3  C   UNL     1       1.599   4.040  20.887  0.00  0.00    +0.000 C 
ATOM      4  C   UNL     1       2.232   3.557  19.596  0.00  0.00    +0.000 A 
ATOM      5  C   UNL     1       1.704   2.394  19.016  0.00  0.00    +0.000 A 
ATOM      6  C   UNL     1       2.236   1.890  17.835  0.00  0.00    +0.000 A 
ATOM      7  C   UNL     1       3.323   2.530  17.243  0.00  0.00    +0.000 A 
ATOM      8  C   UNL     1       3.897   3.705  17.785  0.00  0.00    +0.000 A 
ATOM      9  C   UNL     1       3.315   4.242  18.971  0.00  0.00    +0.000 A 
ATOM     10  C   UNL     1       3.775   5.552  19.591  0.00  0.00    +0.000 C 
ATOM     11  C   UNL     1       2.681   6.596  19.595  0.00  0.00    +0.000 C 
ATOM     12  O   UNL     1       2.535   7.375  18.648  0.00  0.00    +0.000 OA
ENDROOT
BRANCH   8  13
ATOM     13  C   UNL     1       5.078   4.281  17.082  0.00  0.00    +0.000 A 
ATOM     14  C   UNL     1       5.444   3.846  15.791  0.00  0.00    +0.000 A 
ATOM     15  C   UNL     1       6.567   4.357  15.127  0.00  0.00    +0.000 A 
ATOM     16  C   UNL     1       7.328   5.361  15.718  0.00  0.00    +0.000 A 
ATOM     17  C   UNL     1       6.979   5.814  16.992  0.00  0.00    +0.000 A 
ATOM     18  C   UNL     1       5.902   5.242  17.688  0.00  0.00    +0.000 A 
BRANCH  17  19
ATOM     19  N   UNL     1       7.713   6.927  17.600  0.00  0.00    +0.000 N 
ATOM     20  O   UNL     1       7.827   7.972  16.942  0.00  0.00    +0.000 OA
ATOM     21  O   UNL     1       8.163   6.764  18.744  0.00  0.00    +0.000 OA
ENDBRANCH  17  19
ENDBRANCH   8  13
BRANCH   1  22
ATOM     22  N   UNL     1       0.946   7.822  20.822  0.00  0.00    +0.000 NA
ATOM     23  H   UNL     1      -0.040   7.633  20.655  0.00  0.00    +0.000 HD
ATOM     24  H   UNL     1       1.269   8.416  20.053  0.00  0.00    +0.000 HD
ENDBRANCH   1  22
TORSDOF 3
ENDMDL
MODEL 6
REMARK VINA RESULT:      -7.1      5.344      7.881
REMARK  Name = 
REMARK  3 active torsions:
REMARK  status: ('A' for Active; 'I' for Inactive)
REMARK    1  A    between atoms: N_1  and  C_2
REMARK    2  A    between atoms: C_9  and  C_10
REMARK    3  A    between atoms: C_14  and  N_15
REMARK                            x       y       z     vdW  Elec       q    Type
REMARK                         _______ _______ _______ _____ _____    ______ ____
ROOT
ATOM      1  C   UNL     1      -2.149  11.949  18.239  0.00  0.00    +0.000 C 
ATOM      2  C   UNL     1      -2.549  12.178  19.697  0.00  0.00    +0.000 C 
ATOM      3  C   UNL     1      -1.336  12.441  20.597  0.00  0.00    +0.000 C 
ATOM      4  C   UNL     1      -0.646  11.173  21.059  0.00  0.00    +0.000 A 
ATOM      5  C   UNL     1      -0.742  10.847  22.421  0.00  0.00    +0.000 A 
ATOM      6  C   UNL     1      -0.130   9.702  22.918  0.00  0.00    +0.000 A 
ATOM      7  C   UNL     1       0.609   8.891  22.060  0.00  0.00    +0.000 A 
ATOM      8  C   UNL     1       0.741   9.171  20.679  0.00  0.00    +0.000 A 
ATOM      9  C   UNL     1       0.072  10.322  20.168  0.00  0.00    +0.000 A 
ATOM     10  C   UNL     1       0.053  10.672  18.689  0.00  0.00    +0.000 C 
ATOM     11  C   UNL     1      -1.346  10.649  18.115  0.00  0.00    +0.000 C 
ATOM     12  O   UNL     1      -1.822   9.618  17.630  0.00  0.00    +0.000 OA
ENDROOT
BRANCH   8  13
ATOM     13  C   UNL     1       1.586   8.250  19.868  0.00  0.00    +0.000 A 
ATOM     14  C   UNL     1       2.098   8.642  18.613  0.00  0.00    +0.000 A 
ATOM     15  C   UNL     1       2.871   7.779  17.826  0.00  0.00    +0.000 A 
ATOM     16  C   UNL     1       3.200   6.512  18.297  0.00  0.00    +0.000 A 
ATOM     17  C   UNL     1       2.712   6.106  19.542  0.00  0.00    +0.000 A 
ATOM     18  C   UNL     1       1.870   6.942  20.291  0.00  0.00    +0.000 A 
BRANCH  17  19
ATOM     19  N   UNL     1       3.113   4.810  20.097  0.00  0.00    +0.000 N 
ATOM     20  O   UNL     1       2.458   4.362  21.049  0.00  0.00    +0.000 OA
ATOM     21  O   UNL     1       4.073   4.230  19.568  0.00  0.00    +0.000 OA
ENDBRANCH  17  19
ENDBRANCH   8  13
BRANCH   1  22
ATOM     22  N   UNL     1      -3.336  11.874  17.370  0.00  0.00    +0.000 NA
ATOM     23  H   UNL     1      -3.208  12.432  16.529  0.00  0.00    +0.000 HD
ATOM     24  H   UNL     1      -4.129  12.279  17.877  0.00  0.00    +0.000 HD
ENDBRANCH   1  22
TORSDOF 3
ENDMDL
MODEL 7
REMARK VINA RESULT:      -7.0      3.891      6.797
REMARK  Name = 
REMARK  3 active torsions:
REMARK  status: ('A' for Active; 'I' for Inactive)
REMARK    1  A    between atoms: N_1  and  C_2
REMARK    2  A    between atoms: C_9  and  C_10
REMARK    3  A    between atoms: C_14  and  N_15
REMARK                            x       y       z     vdW  Elec       q    Type
REMARK                         _______ _______ _______ _____ _____    ______ ____
ROOT
ATOM      1  C   UNL     1       2.746   3.021  20.541  0.00  0.00    +0.000 C 
ATOM      2  C   UNL     1       3.777   2.847  19.425  0.00  0.00    +0.000 C 
ATOM      3  C   UNL     1       4.823   3.967  19.420  0.00  0.00    +0.000 C 
ATOM      4  C   UNL     1       4.359   5.218  18.699  0.00  0.00    +0.000 A 
ATOM      5  C   UNL     1       4.992   5.535  17.487  0.00  0.00    +0.000 A 
ATOM      6  C   UNL     1       4.622   6.669  16.774  0.00  0.00    +0.000 A 
ATOM      7  C   UNL     1       3.638   7.511  17.285  0.00  0.00    +0.000 A 
ATOM      8  C   UNL     1       2.967   7.243  18.502  0.00  0.00    +0.000 A 
ATOM      9  C   UNL     1       3.319   6.052  19.205  0.00  0.00    +0.000 A 
ATOM     10  C   UNL     1       2.602   5.601  20.467  0.00  0.00    +0.000 C 
ATOM     11  C   UNL     1       1.901   4.274  20.281  0.00  0.00    +0.000 C 
ATOM     12  O   UNL     1       0.733   4.217  19.886  0.00  0.00    +0.000 OA
ENDROOT
BRANCH   8  13
ATOM     13  C   UNL     1       1.957   8.235  18.965  0.00  0.00    +0.000 A 
ATOM     14  C   UNL     1       1.363   9.147  18.067  0.00  0.00    +0.000 A 
ATOM     15  C   UNL     1       0.431  10.103  18.490  0.00  0.00    +0.000 A 
ATOM     16  C   UNL     1       0.026  10.140  19.820  0.00  0.00    +0.000 A 
ATOM     17  C   UNL     1       0.593   9.240  20.726  0.00  0.00    +0.000 A 
ATOM     18  C   UNL     1       1.586   8.338  20.315  0.00  0.00    +0.000 A 
BRANCH  17  19
ATOM     19  N   UNL     1       0.122   9.204  22.113  0.00  0.00    +0.000 N 
ATOM     20  O   UNL     1       0.617  10.009  22.914  0.00  0.00    +0.000 OA
ATOM     21  O   UNL     1      -0.759   8.379  22.400  0.00  0.00    +0.000 OA
ENDBRANCH  17  19
ENDBRANCH   8  13
BRANCH   1  22
ATOM     22  N   UNL     1       1.862   1.847  20.634  0.00  0.00    +0.000 NA
ATOM     23  H   UNL     1       0.898   2.129  20.801  0.00  0.00    +0.000 HD
ATOM     24  H   UNL     1       2.154   1.292  21.444  0.00  0.00    +0.000 HD
ENDBRANCH   1  22
TORSDOF 3
ENDMDL
MODEL 8
REMARK VINA RESULT:      -6.9      4.247      6.406
REMARK  Name = 
REMARK  3 active torsions:
REMARK  status: ('A' for Active; 'I' for Inactive)
REMARK    1  A    between atoms: N_1  and  C_2
REMARK    2  A    between atoms: C_9  and  C_10
REMARK    3  A    between atoms: C_14  and  N_15
REMARK                            x       y       z     vdW  Elec       q    Type
REMARK                         _______ _______ _______ _____ _____    ______ ____
ROOT
ATOM      1  C   UNL     1       2.712   2.436  19.195  0.00  0.00    +0.000 C 
ATOM      2  C   UNL     1       3.720   2.542  18.050  0.00  0.00    +0.000 C 
ATOM      3  C   UNL     1       4.813   3.577  18.333  0.00  0.00    +0.000 C 
ATOM      4  C   UNL     1       4.396   4.997  18.005  0.00  0.00    +0.000 A 
ATOM      5  C   UNL     1       5.027   5.618  16.915  0.00  0.00    +0.000 A 
ATOM      6  C   UNL     1       4.699   6.921  16.558  0.00  0.00    +0.000 A 
ATOM      7  C   UNL     1       3.759   7.622  17.309  0.00  0.00    +0.000 A 
ATOM      8  C   UNL     1       3.093   7.048  18.418  0.00  0.00    +0.000 A 
ATOM      9  C   UNL     1       3.401   5.695  18.749  0.00  0.00    +0.000 A 
ATOM     10  C   UNL     1       2.681   4.936  19.852  0.00  0.00    +0.000 C 
ATOM     11  C   UNL     1       1.920   3.743  19.319  0.00  0.00    +0.000 C 
ATOM     12  O   UNL     1       0.745   3.844  18.953  0.00  0.00    +0.000 OA
ENDROOT
BRANCH   8  13
ATOM     13  C   UNL     1       2.134   7.908  19.166  0.00  0.00    +0.000 A 
ATOM     14  C   UNL     1       1.801   7.637  20.510  0.00  0.00    +0.000 A 
ATOM     15  C   UNL     1       0.881   8.419  21.219  0.00  0.00    +0.000 A 
ATOM     16  C   UNL     1       0.304   9.532  20.617  0.00  0.00    +0.000 A 
ATOM     17  C   UNL     1       0.626   9.827  19.290  0.00  0.00    +0.000 A 
ATOM     18  C   UNL     1       1.485   8.994  18.557  0.00  0.00    +0.000 A 
BRANCH  17  19
ATOM     19  N   UNL     1       0.096  11.041  18.662  0.00  0.00    +0.000 N 
ATOM     20  O   UNL     1       0.801  12.060  18.689  0.00  0.00    +0.000 OA
ATOM     21  O   UNL     1      -1.019  10.971  18.123  0.00  0.00    +0.000 OA
ENDBRANCH  17  19
ENDBRANCH   8  13
BRANCH   1  22
ATOM     22  N   UNL     1       1.778   1.318  18.977  0.00  0.00    +0.000 NA
ATOM     23  H   UNL     1       1.082   1.274  19.719  0.00  0.00    +0.000 HD
ATOM     24  H   UNL     1       2.312   0.444  19.019  0.00  0.00    +0.000 HD
ENDBRANCH   1  22
TORSDOF 3
ENDMDL
MODEL 9
REMARK VINA RESULT:      -6.7      3.836      6.571
REMARK  Name = 
REMARK  3 active torsions:
REMARK  status: ('A' for Active; 'I' for Inactive)
REMARK    1  A    between atoms: N_1  and  C_2
REMARK    2  A    between atoms: C_9  and  C_10
REMARK    3  A    between atoms: C_14  and  N_15
REMARK                            x       y       z     vdW  Elec       q    Type
REMARK                         _______ _______ _______ _____ _____    ______ ____
ROOT
ATOM      1  C   UNL     1       6.129   5.714  16.046  0.00  0.00    +0.000 C 
ATOM      2  C   UNL     1       6.023   4.230  16.395  0.00  0.00    +0.000 C 
ATOM      3  C   UNL     1       4.580   3.718  16.323  0.00  0.00    +0.000 C 
ATOM      4  C   UNL     1       3.780   3.998  17.580  0.00  0.00    +0.000 A 
ATOM      5  C   UNL     1       3.421   2.898  18.374  0.00  0.00    +0.000 A 
ATOM      6  C   UNL     1       2.683   3.078  19.538  0.00  0.00    +0.000 A 
ATOM      7  C   UNL     1       2.273   4.359  19.899  0.00  0.00    +0.000 A 
ATOM      8  C   UNL     1       2.603   5.505  19.136  0.00  0.00    +0.000 A 
ATOM      9  C   UNL     1       3.400   5.317  17.969  0.00  0.00    +0.000 A 
ATOM     10  C   UNL     1       3.906   6.475  17.124  0.00  0.00    +0.000 C 
ATOM     11  C   UNL     1       5.416   6.555  17.112  0.00  0.00    +0.000 C 
ATOM     12  O   UNL     1       6.029   7.217  17.955  0.00  0.00    +0.000 OA
ENDROOT
BRANCH   8  13
ATOM     13  C   UNL     1       2.078   6.818  19.603  0.00  0.00    +0.000 A 
ATOM     14  C   UNL     1       1.605   6.990  20.922  0.00  0.00    +0.000 A 
ATOM     15  C   UNL     1       1.083   8.210  21.369  0.00  0.00    +0.000 A 
ATOM     16  C   UNL     1       1.068   9.313  20.523  0.00  0.00    +0.000 A 
ATOM     17  C   UNL     1       1.540   9.170  19.215  0.00  0.00    +0.000 A 
ATOM     18  C   UNL     1       1.986   7.925  18.745  0.00  0.00    +0.000 A 
BRANCH  17  19
ATOM     19  N   UNL     1       1.612  10.337  18.332  0.00  0.00    +0.000 N 
ATOM     20  O   UNL     1       2.432  10.309  17.403  0.00  0.00    +0.000 OA
ATOM     21  O   UNL     1       0.835  11.277  18.555  0.00  0.00    +0.000 OA
ENDBRANCH  17  19
ENDBRANCH   8  13
BRANCH   1  22
ATOM     22  N   UNL     1       7.537   6.138  15.952  0.00  0.00    +0.000 NA
ATOM     23  H   UNL     1       7.742   6.517  15.030  0.00  0.00    +0.000 HD
ATOM     24  H   UNL     1       8.127   5.309  16.070  0.00  0.00    +0.000 HD
ENDBRANCH   1  22
TORSDOF 3
ENDMDL
