MODEL 1
REMARK VINA RESULT:      -6.9      0.000      0.000
REMARK  Name = 
REMARK  4 active torsions:
REMARK  status: ('A' for Active; 'I' for Inactive)
REMARK    1  A    between atoms: N_12  and  C_13
REMARK    2  A    between atoms: C_13  and  C_14
REMARK    3  A    between atoms: C_14  and  O_15
REMARK    4  A    between atoms: O_15  and  N_16
REMARK                            x       y       z     vdW  Elec       q    Type
REMARK                         _______ _______ _______ _____ _____    ______ ____
ROOT
ATOM      1  O   UNL     1       3.255   7.222  18.161  0.00  0.00    +0.000 OA
ATOM      2  C   UNL     1       3.781   6.269  17.602  0.00  0.00    +0.000 C 
ATOM      3  C   UNL     1       3.282   4.889  17.805  0.00  0.00    +0.000 A 
ATOM      4  C   UNL     1       2.172   4.648  18.617  0.00  0.00    +0.000 A 
ATOM      5  C   UNL     1       1.858   3.333  18.960  0.00  0.00    +0.000 A 
ATOM      6 CL   UNL     1       0.532   3.017  20.009  0.00  0.00    +0.000 Cl
ATOM      7  C   UNL     1       2.633   2.269  18.492  0.00  0.00    +0.000 A 
ATOM      8  C   UNL     1       3.737   2.517  17.673  0.00  0.00    +0.000 A 
ATOM      9  C   UNL     1       4.060   3.828  17.332  0.00  0.00    +0.000 A 
ATOM     10  O   UNL     1       5.200   4.013  16.596  0.00  0.00    +0.000 OA
ATOM     11  C   UNL     1       5.206   5.273  15.933  0.00  0.00    +0.000 C 
ATOM     12  N   UNL     1       4.947   6.354  16.857  0.00  0.00    +0.000 N 
ENDROOT
BRANCH  12  13
ATOM     13  C   UNL     1       5.972   7.297  17.306  0.00  0.00    +0.000 C 
BRANCH  13  14
ATOM     14  C   UNL     1       7.426   6.855  17.156  0.00  0.00    +0.000 C 
BRANCH  14  15
ATOM     15  O   UNL     1       8.009   6.715  18.452  0.00  0.00    +0.000 OA
BRANCH  15  16
ATOM     16  N   UNL     1       7.796   5.419  18.988  0.00  0.00    +0.000 N 
ATOM     17  O   UNL     1       8.016   4.459  18.254  0.00  0.00    +0.000 OA
ATOM     18  O   UNL     1       7.402   5.448  20.156  0.00  0.00    +0.000 OA
ENDBRANCH  15  16
ENDBRANCH  14  15
ENDBRANCH  13  14
ENDBRANCH  12  13
TORSDOF 4
ENDMDL
MODEL 2
REMARK VINA RESULT:      -6.9      3.834      5.745
REMARK  Name = 
REMARK  4 active torsions:
REMARK  status: ('A' for Active; 'I' for Inactive)
REMARK    1  A    between atoms: N_12  and  C_13
REMARK    2  A    between atoms: C_13  and  C_14
REMARK    3  A    between atoms: C_14  and  O_15
REMARK    4  A    between atoms: O_15  and  N_16
REMARK                            x       y       z     vdW  Elec       q    Type
REMARK                         _______ _______ _______ _____ _____    ______ ____
ROOT
ATOM      1  O   UNL     1       3.030   2.816  17.294  0.00  0.00    +0.000 OA
ATOM      2  C   UNL     1       3.926   3.478  17.799  0.00  0.00    +0.000 C 
ATOM      3  C   UNL     1       5.029   4.031  16.980  0.00  0.00    +0.000 A 
ATOM      4  C   UNL     1       5.052   3.835  15.597  0.00  0.00    +0.000 A 
ATOM      5  C   UNL     1       6.201   4.178  14.885  0.00  0.00    +0.000 A 
ATOM      6 CL   UNL     1       6.274   3.889  13.191  0.00  0.00    +0.000 Cl
ATOM      7  C   UNL     1       7.312   4.718  15.539  0.00  0.00    +0.000 A 
ATOM      8  C   UNL     1       7.278   4.919  16.920  0.00  0.00    +0.000 A 
ATOM      9  C   UNL     1       6.136   4.573  17.639  0.00  0.00    +0.000 A 
ATOM     10  O   UNL     1       6.194   4.715  19.000  0.00  0.00    +0.000 OA
ATOM     11  C   UNL     1       4.896   4.776  19.584  0.00  0.00    +0.000 C 
ATOM     12  N   UNL     1       4.080   3.658  19.165  0.00  0.00    +0.000 N 
ENDROOT
BRANCH  12  13
ATOM     13  C   UNL     1       3.732   2.539  20.041  0.00  0.00    +0.000 C 
BRANCH  13  14
ATOM     14  C   UNL     1       2.769   2.838  21.189  0.00  0.00    +0.000 C 
BRANCH  14  15
ATOM     15  O   UNL     1       1.494   2.267  20.892  0.00  0.00    +0.000 OA
BRANCH  15  16
ATOM     16  N   UNL     1       0.757   3.069  19.984  0.00  0.00    +0.000 N 
ATOM     17  O   UNL     1       0.683   4.272  20.222  0.00  0.00    +0.000 OA
ATOM     18  O   UNL     1       0.277   2.416  19.055  0.00  0.00    +0.000 OA
ENDBRANCH  15  16
ENDBRANCH  14  15
ENDBRANCH  13  14
ENDBRANCH  12  13
TORSDOF 4
ENDMDL
MODEL 3
REMARK VINA RESULT:      -6.9      3.364      4.884
REMARK  Name = 
REMARK  4 active torsions:
REMARK  status: ('A' for Active; 'I' for Inactive)
REMARK    1  A    between atoms: N_12  and  C_13
REMARK    2  A    between atoms: C_13  and  C_14
REMARK    3  A    between atoms: C_14  and  O_15
REMARK    4  A    between atoms: O_15  and  N_16
REMARK                            x       y       z     vdW  Elec       q    Type
REMARK                         _______ _______ _______ _____ _____    ______ ____
ROOT
ATOM      1  O   UNL     1       1.673   3.861  17.051  0.00  0.00    +0.000 OA
ATOM      2  C   UNL     1       2.439   4.437  17.812  0.00  0.00    +0.000 C 
ATOM      3  C   UNL     1       3.854   4.671  17.446  0.00  0.00    +0.000 A 
ATOM      4  C   UNL     1       4.342   4.267  16.201  0.00  0.00    +0.000 A 
ATOM      5  C   UNL     1       5.716   4.304  15.967  0.00  0.00    +0.000 A 
ATOM      6 CL   UNL     1       6.343   3.753  14.464  0.00  0.00    +0.000 Cl
ATOM      7  C   UNL     1       6.596   4.748  16.958  0.00  0.00    +0.000 A 
ATOM      8  C   UNL     1       6.102   5.160  18.197  0.00  0.00    +0.000 A 
ATOM      9  C   UNL     1       4.731   5.119  18.439  0.00  0.00    +0.000 A 
ATOM     10  O   UNL     1       4.314   5.455  19.700  0.00  0.00    +0.000 OA
ATOM     11  C   UNL     1       2.936   5.815  19.726  0.00  0.00    +0.000 C 
ATOM     12  N   UNL     1       2.115   4.796  19.112  0.00  0.00    +0.000 N 
ENDROOT
BRANCH  12  13
ATOM     13  C   UNL     1       1.244   3.895  19.867  0.00  0.00    +0.000 C 
BRANCH  13  14
ATOM     14  C   UNL     1       1.755   2.474  20.095  0.00  0.00    +0.000 C 
BRANCH  14  15
ATOM     15  O   UNL     1       3.032   2.532  20.733  0.00  0.00    +0.000 OA
BRANCH  15  16
ATOM     16  N   UNL     1       4.046   1.945  19.933  0.00  0.00    +0.000 N 
ATOM     17  O   UNL     1       3.700   1.406  18.885  0.00  0.00    +0.000 OA
ATOM     18  O   UNL     1       5.169   2.065  20.429  0.00  0.00    +0.000 OA
ENDBRANCH  15  16
ENDBRANCH  14  15
ENDBRANCH  13  14
ENDBRANCH  12  13
TORSDOF 4
ENDMDL
MODEL 4
REMARK VINA RESULT:      -6.6      2.459      3.276
REMARK  Name = 
REMARK  4 active torsions:
REMARK  status: ('A' for Active; 'I' for Inactive)
REMARK    1  A    between atoms: N_12  and  C_13
REMARK    2  A    between atoms: C_13  and  C_14
REMARK    3  A    between atoms: C_14  and  O_15
REMARK    4  A    between atoms: O_15  and  N_16
REMARK                            x       y       z     vdW  Elec       q    Type
REMARK                         _______ _______ _______ _____ _____    ______ ____
ROOT
ATOM      1  O   UNL     1       6.130   4.501  19.909  0.00  0.00    +0.000 OA
ATOM      2  C   UNL     1       5.391   4.816  18.986  0.00  0.00    +0.000 C 
ATOM      3  C   UNL     1       3.935   4.552  19.043  0.00  0.00    +0.000 A 
ATOM      4  C   UNL     1       3.364   3.964  20.174  0.00  0.00    +0.000 A 
ATOM      5  C   UNL     1       2.039   3.535  20.117  0.00  0.00    +0.000 A 
ATOM      6 CL   UNL     1       1.335   2.753  21.477  0.00  0.00    +0.000 Cl
ATOM      7  C   UNL     1       1.286   3.696  18.950  0.00  0.00    +0.000 A 
ATOM      8  C   UNL     1       1.860   4.292  17.826  0.00  0.00    +0.000 A 
ATOM      9  C   UNL     1       3.185   4.719  17.874  0.00  0.00    +0.000 A 
ATOM     10  O   UNL     1       3.718   5.219  16.715  0.00  0.00    +0.000 OA
ATOM     11  C   UNL     1       4.871   6.017  16.962  0.00  0.00    +0.000 C 
ATOM     12  N   UNL     1       5.838   5.308  17.769  0.00  0.00    +0.000 N 
ENDROOT
BRANCH  12  13
ATOM     13  C   UNL     1       7.096   4.776  17.243  0.00  0.00    +0.000 C 
BRANCH  13  14
ATOM     14  C   UNL     1       7.125   4.423  15.757  0.00  0.00    +0.000 C 
BRANCH  14  15
ATOM     15  O   UNL     1       7.555   5.564  15.013  0.00  0.00    +0.000 OA
BRANCH  15  16
ATOM     16  N   UNL     1       7.694   5.270  13.632  0.00  0.00    +0.000 N 
ATOM     17  O   UNL     1       6.896   4.476  13.140  0.00  0.00    +0.000 OA
ATOM     18  O   UNL     1       8.632   5.876  13.110  0.00  0.00    +0.000 OA
ENDBRANCH  15  16
ENDBRANCH  14  15
ENDBRANCH  13  14
ENDBRANCH  12  13
TORSDOF 4
ENDMDL
MODEL 5
REMARK VINA RESULT:      -6.5      2.907      3.744
REMARK  Name = 
REMARK  4 active torsions:
REMARK  status: ('A' for Active; 'I' for Inactive)
REMARK    1  A    between atoms: N_12  and  C_13
REMARK    2  A    between atoms: C_13  and  C_14
REMARK    3  A    between atoms: C_14  and  O_15
REMARK    4  A    between atoms: O_15  and  N_16
REMARK                            x       y       z     vdW  Elec       q    Type
REMARK                         _______ _______ _______ _____ _____    ______ ____
ROOT
ATOM      1  O   UNL     1       4.569   6.713  16.688  0.00  0.00    +0.000 OA
ATOM      2  C   UNL     1       4.254   5.634  17.173  0.00  0.00    +0.000 C 
ATOM      3  C   UNL     1       3.329   5.552  18.326  0.00  0.00    +0.000 A 
ATOM      4  C   UNL     1       2.766   6.709  18.868  0.00  0.00    +0.000 A 
ATOM      5  C   UNL     1       2.075   6.623  20.076  0.00  0.00    +0.000 A 
ATOM      6 CL   UNL     1       1.426   8.046  20.793  0.00  0.00    +0.000 Cl
ATOM      7  C   UNL     1       1.937   5.398  20.734  0.00  0.00    +0.000 A 
ATOM      8  C   UNL     1       2.496   4.243  20.183  0.00  0.00    +0.000 A 
ATOM      9  C   UNL     1       3.192   4.323  18.979  0.00  0.00    +0.000 A 
ATOM     10  O   UNL     1       3.788   3.174  18.531  0.00  0.00    +0.000 OA
ATOM     11  C   UNL     1       4.072   3.231  17.136  0.00  0.00    +0.000 C 
ATOM     12  N   UNL     1       4.818   4.423  16.801  0.00  0.00    +0.000 N 
ENDROOT
BRANCH  12  13
ATOM     13  C   UNL     1       6.237   4.415  16.447  0.00  0.00    +0.000 C 
BRANCH  13  14
ATOM     14  C   UNL     1       6.576   4.350  14.960  0.00  0.00    +0.000 C 
BRANCH  14  15
ATOM     15  O   UNL     1       7.641   5.260  14.681  0.00  0.00    +0.000 OA
BRANCH  15  16
ATOM     16  N   UNL     1       7.946   5.305  13.296  0.00  0.00    +0.000 N 
ATOM     17  O   UNL     1       7.276   4.599  12.546  0.00  0.00    +0.000 OA
ATOM     18  O   UNL     1       8.876   6.072  13.040  0.00  0.00    +0.000 OA
ENDBRANCH  15  16
ENDBRANCH  14  15
ENDBRANCH  13  14
ENDBRANCH  12  13
TORSDOF 4
ENDMDL
MODEL 6
REMARK VINA RESULT:      -6.4      3.698      5.488
REMARK  Name = 
REMARK  4 active torsions:
REMARK  status: ('A' for Active; 'I' for Inactive)
REMARK    1  A    between atoms: N_12  and  C_13
REMARK    2  A    between atoms: C_13  and  C_14
REMARK    3  A    between atoms: C_14  and  O_15
REMARK    4  A    between atoms: O_15  and  N_16
REMARK                            x       y       z     vdW  Elec       q    Type
REMARK                         _______ _______ _______ _____ _____    ______ ____
ROOT
ATOM      1  O   UNL     1       4.859   2.358  19.936  0.00  0.00    +0.000 OA
ATOM      2  C   UNL     1       4.358   2.842  18.930  0.00  0.00    +0.000 C 
ATOM      3  C   UNL     1       4.959   4.021  18.264  0.00  0.00    +0.000 A 
ATOM      4  C   UNL     1       6.136   4.590  18.755  0.00  0.00    +0.000 A 
ATOM      5  C   UNL     1       6.558   5.817  18.245  0.00  0.00    +0.000 A 
ATOM      6 CL   UNL     1       7.971   6.566  18.879  0.00  0.00    +0.000 Cl
ATOM      7  C   UNL     1       5.823   6.467  17.250  0.00  0.00    +0.000 A 
ATOM      8  C   UNL     1       4.652   5.889  16.757  0.00  0.00    +0.000 A 
ATOM      9  C   UNL     1       4.221   4.666  17.267  0.00  0.00    +0.000 A 
ATOM     10  O   UNL     1       3.022   4.190  16.805  0.00  0.00    +0.000 OA
ATOM     11  C   UNL     1       2.889   2.788  17.020  0.00  0.00    +0.000 C 
ATOM     12  N   UNL     1       3.140   2.443  18.401  0.00  0.00    +0.000 N 
ENDROOT
BRANCH  12  13
ATOM     13  C   UNL     1       2.090   2.048  19.339  0.00  0.00    +0.000 C 
BRANCH  13  14
ATOM     14  C   UNL     1       0.951   3.042  19.556  0.00  0.00    +0.000 C 
BRANCH  14  15
ATOM     15  O   UNL     1       0.782   3.263  20.956  0.00  0.00    +0.000 OA
BRANCH  15  16
ATOM     16  N   UNL     1       1.962   3.773  21.555  0.00  0.00    +0.000 N 
ATOM     17  O   UNL     1       2.511   3.077  22.406  0.00  0.00    +0.000 OA
ATOM     18  O   UNL     1       2.273   4.884  21.121  0.00  0.00    +0.000 OA
ENDBRANCH  15  16
ENDBRANCH  14  15
ENDBRANCH  13  14
ENDBRANCH  12  13
TORSDOF 4
ENDMDL
MODEL 7
REMARK VINA RESULT:      -6.4      3.244      4.876
REMARK  Name = 
REMARK  4 active torsions:
REMARK  status: ('A' for Active; 'I' for Inactive)
REMARK    1  A    between atoms: N_12  and  C_13
REMARK    2  A    between atoms: C_13  and  C_14
REMARK    3  A    between atoms: C_14  and  O_15
REMARK    4  A    between atoms: O_15  and  N_16
REMARK                            x       y       z     vdW  Elec       q    Type
REMARK                         _______ _______ _______ _____ _____    ______ ____
ROOT
ATOM      1  O   UNL     1       1.967   3.135  17.322  0.00  0.00    +0.000 OA
ATOM      2  C   UNL     1       2.439   4.154  17.809  0.00  0.00    +0.000 C 
ATOM      3  C   UNL     1       3.671   4.768  17.262  0.00  0.00    +0.000 A 
ATOM      4  C   UNL     1       4.307   4.212  16.150  0.00  0.00    +0.000 A 
ATOM      5  C   UNL     1       5.571   4.679  15.791  0.00  0.00    +0.000 A 
ATOM      6 CL   UNL     1       6.399   3.967  14.462  0.00  0.00    +0.000 Cl
ATOM      7  C   UNL     1       6.192   5.694  16.524  0.00  0.00    +0.000 A 
ATOM      8  C   UNL     1       5.547   6.251  17.630  0.00  0.00    +0.000 A 
ATOM      9  C   UNL     1       4.287   5.786  17.998  0.00  0.00    +0.000 A 
ATOM     10  O   UNL     1       3.741   6.312  19.139  0.00  0.00    +0.000 OA
ATOM     11  C   UNL     1       2.329   6.130  19.185  0.00  0.00    +0.000 C 
ATOM     12  N   UNL     1       1.970   4.746  18.972  0.00  0.00    +0.000 N 
ENDROOT
BRANCH  12  13
ATOM     13  C   UNL     1       1.484   3.864  20.034  0.00  0.00    +0.000 C 
BRANCH  13  14
ATOM     14  C   UNL     1       2.531   3.288  20.983  0.00  0.00    +0.000 C 
BRANCH  14  15
ATOM     15  O   UNL     1       3.159   2.165  20.363  0.00  0.00    +0.000 OA
BRANCH  15  16
ATOM     16  N   UNL     1       4.570   2.207  20.501  0.00  0.00    +0.000 N 
ATOM     17  O   UNL     1       5.074   1.505  21.374  0.00  0.00    +0.000 OA
ATOM     18  O   UNL     1       5.103   2.974  19.697  0.00  0.00    +0.000 OA
ENDBRANCH  15  16
ENDBRANCH  14  15
ENDBRANCH  13  14
ENDBRANCH  12  13
TORSDOF 4
ENDMDL
MODEL 8
REMARK VINA RESULT:      -6.4      1.859      2.877
REMARK  Name = 
REMARK  4 active torsions:
REMARK  status: ('A' for Active; 'I' for Inactive)
REMARK    1  A    between atoms: N_12  and  C_13
REMARK    2  A    between atoms: C_13  and  C_14
REMARK    3  A    between atoms: C_14  and  O_15
REMARK    4  A    between atoms: O_15  and  N_16
REMARK                            x       y       z     vdW  Elec       q    Type
REMARK                         _______ _______ _______ _____ _____    ______ ____
ROOT
ATOM      1  O   UNL     1       6.158   5.028  20.072  0.00  0.00    +0.000 OA
ATOM      2  C   UNL     1       5.430   5.414  19.168  0.00  0.00    +0.000 C 
ATOM      3  C   UNL     1       4.022   4.965  19.071  0.00  0.00    +0.000 A 
ATOM      4  C   UNL     1       3.482   4.110  20.035  0.00  0.00    +0.000 A 
ATOM      5  C   UNL     1       2.232   3.536  19.806  0.00  0.00    +0.000 A 
ATOM      6 CL   UNL     1       1.576   2.433  20.951  0.00  0.00    +0.000 Cl
ATOM      7  C   UNL     1       1.522   3.816  18.635  0.00  0.00    +0.000 A 
ATOM      8  C   UNL     1       2.064   4.678  17.680  0.00  0.00    +0.000 A 
ATOM      9  C   UNL     1       3.314   5.250  17.899  0.00  0.00    +0.000 A 
ATOM     10  O   UNL     1       3.830   6.020  16.890  0.00  0.00    +0.000 OA
ATOM     11  C   UNL     1       4.850   6.896  17.358  0.00  0.00    +0.000 C 
ATOM     12  N   UNL     1       5.864   6.176  18.094  0.00  0.00    +0.000 N 
ENDROOT
BRANCH  12  13
ATOM     13  C   UNL     1       7.206   5.913  17.575  0.00  0.00    +0.000 C 
BRANCH  13  14
ATOM     14  C   UNL     1       7.513   4.477  17.155  0.00  0.00    +0.000 C 
BRANCH  14  15
ATOM     15  O   UNL     1       7.879   4.460  15.775  0.00  0.00    +0.000 OA
BRANCH  15  16
ATOM     16  N   UNL     1       6.747   4.570  14.928  0.00  0.00    +0.000 N 
ATOM     17  O   UNL     1       6.772   5.437  14.058  0.00  0.00    +0.000 OA
ATOM     18  O   UNL     1       5.868   3.750  15.202  0.00  0.00    +0.000 OA
ENDBRANCH  15  16
ENDBRANCH  14  15
ENDBRANCH  13  14
ENDBRANCH  12  13
TORSDOF 4
ENDMDL
MODEL 9
REMARK VINA RESULT:      -6.4      1.948      2.595
REMARK  Name = 
REMARK  4 active torsions:
REMARK  status: ('A' for Active; 'I' for Inactive)
REMARK    1  A    between atoms: N_12  and  C_13
REMARK    2  A    between atoms: C_13  and  C_14
REMARK    3  A    between atoms: C_14  and  O_15
REMARK    4  A    between atoms: O_15  and  N_16
REMARK                            x       y       z     vdW  Elec       q    Type
REMARK                         _______ _______ _______ _____ _____    ______ ____
ROOT
ATOM      1  O   UNL     1       4.596   6.649  16.431  0.00  0.00    +0.000 OA
ATOM      2  C   UNL     1       4.317   5.600  16.995  0.00  0.00    +0.000 C 
ATOM      3  C   UNL     1       3.418   5.574  18.171  0.00  0.00    +0.000 A 
ATOM      4  C   UNL     1       2.838   6.752  18.646  0.00  0.00    +0.000 A 
ATOM      5  C   UNL     1       2.174   6.733  19.872  0.00  0.00    +0.000 A 
ATOM      6 CL   UNL     1       1.505   8.186  20.505  0.00  0.00    +0.000 Cl
ATOM      7  C   UNL     1       2.079   5.553  20.614  0.00  0.00    +0.000 A 
ATOM      8  C   UNL     1       2.654   4.376  20.129  0.00  0.00    +0.000 A 
ATOM      9  C   UNL     1       3.324   4.389  18.908  0.00  0.00    +0.000 A 
ATOM     10  O   UNL     1       3.938   3.226  18.525  0.00  0.00    +0.000 OA
ATOM     11  C   UNL     1       4.192   3.196  17.124  0.00  0.00    +0.000 C 
ATOM     12  N   UNL     1       4.902   4.379  16.693  0.00  0.00    +0.000 N 
ENDROOT
BRANCH  12  13
ATOM     13  C   UNL     1       6.314   4.380  16.310  0.00  0.00    +0.000 C 
BRANCH  13  14
ATOM     14  C   UNL     1       7.252   5.256  17.138  0.00  0.00    +0.000 C 
BRANCH  14  15
ATOM     15  O   UNL     1       7.309   4.751  18.472  0.00  0.00    +0.000 OA
BRANCH  15  16
ATOM     16  N   UNL     1       7.853   5.703  19.372  0.00  0.00    +0.000 N 
ATOM     17  O   UNL     1       8.269   6.757  18.898  0.00  0.00    +0.000 OA
ATOM     18  O   UNL     1       7.833   5.315  20.543  0.00  0.00    +0.000 OA
ENDBRANCH  15  16
ENDBRANCH  14  15
ENDBRANCH  13  14
ENDBRANCH  12  13
TORSDOF 4
ENDMDL
