MODEL 1
REMARK VINA RESULT:      -7.9      0.000      0.000
REMARK  Name = 
REMARK  6 active torsions:
REMARK  status: ('A' for Active; 'I' for Inactive)
REMARK    1  A    between atoms: C_1  and  C_2
REMARK    2  A    between atoms: C_2  and  N_3
REMARK    3  A    between atoms: C_11  and  C_12
REMARK    4  A    between atoms: C_19  and  C_20
REMARK    5  A    between atoms: N_22  and  C_23
REMARK    6  A    between atoms: C_23  and  C_24
REMARK                            x       y       z     vdW  Elec       q    Type
REMARK                         _______ _______ _______ _____ _____    ______ ____
ROOT
ATOM      1  N   UNL     1       0.735   9.464  21.430  0.00  0.00    +0.000 N 
ATOM      2  C   UNL     1       1.354   8.382  20.832  0.00  0.00    +0.000 C 
ATOM      3  O   UNL     1       1.603   7.368  21.475  0.00  0.00    +0.000 OA
ATOM      4  N   UNL     1       1.690   8.615  19.519  0.00  0.00    +0.000 N 
ATOM      5  C   UNL     1       2.359   7.674  18.776  0.00  0.00    +0.000 A 
ATOM      6  N   UNL     1       3.042   8.037  17.645  0.00  0.00    +0.000 NA
ATOM      7  C   UNL     1       3.629   6.915  17.272  0.00  0.00    +0.000 A 
ATOM      8  C   UNL     1       4.536   6.602  16.213  0.00  0.00    +0.000 A 
ATOM      9  C   UNL     1       4.992   5.337  16.055  0.00  0.00    +0.000 A 
ATOM     10  C   UNL     1       4.541   4.280  16.970  0.00  0.00    +0.000 A 
ATOM     11  C   UNL     1       3.686   4.563  17.976  0.00  0.00    +0.000 A 
ATOM     12  N   UNL     1       3.245   5.876  18.123  0.00  0.00    +0.000 N 
ATOM     13  N   UNL     1       2.414   6.378  19.057  0.00  0.00    +0.000 NA
ATOM     14  H   UNL     1       0.238  10.122  20.849  0.00  0.00    +0.000 HD
ATOM     15  H   UNL     1       1.729   9.552  19.162  0.00  0.00    +0.000 HD
ENDROOT
BRANCH   9  16
ATOM     16  C   UNL     1       5.907   5.046  14.933  0.00  0.00    +0.000 A 
ATOM     17  C   UNL     1       5.572   4.093  13.966  0.00  0.00    +0.000 A 
ATOM     18  C   UNL     1       6.462   3.806  12.931  0.00  0.00    +0.000 A 
ATOM     19  C   UNL     1       7.668   4.483  12.892  0.00  0.00    +0.000 A 
ATOM     20  N   UNL     1       8.033   5.409  13.807  0.00  0.00    +0.000 NA
ATOM     21  C   UNL     1       7.151   5.663  14.804  0.00  0.00    +0.000 A 
ENDBRANCH   9  16
BRANCH  11  22
ATOM     22  C   UNL     1       3.247   3.442  18.869  0.00  0.00    +0.000 C 
ATOM     23  O   UNL     1       4.037   2.574  19.222  0.00  0.00    +0.000 OA
ATOM     24  N   UNL     1       1.923   3.441  19.242  0.00  0.00    +0.000 N 
ATOM     25  H   UNL     1       1.320   4.217  18.961  0.00  0.00    +0.000 HD
BRANCH  24  26
ATOM     26  C   UNL     1       1.351   2.427  20.105  0.00  0.00    +0.000 C 
ATOM     27  C   UNL     1       1.389   2.839  21.566  0.00  0.00    +0.000 C 
ENDBRANCH  24  26
ENDBRANCH  11  22
BRANCH   1  29
ATOM     28  C   UNL     1      -0.857  10.144  23.213  0.00  0.00    +0.000 C 
ATOM     29  C   UNL     1       0.435   9.428  22.853  0.00  0.00    +0.000 C 
ENDBRANCH   1  29
TORSDOF 4
ENDMDL
MODEL 2
REMARK VINA RESULT:      -7.7      3.987      6.445
REMARK  Name = 
REMARK  6 active torsions:
REMARK  status: ('A' for Active; 'I' for Inactive)
REMARK    1  A    between atoms: C_1  and  C_2
REMARK    2  A    between atoms: C_2  and  N_3
REMARK    3  A    between atoms: C_11  and  C_12
REMARK    4  A    between atoms: C_19  and  C_20
REMARK    5  A    between atoms: N_22  and  C_23
REMARK    6  A    between atoms: C_23  and  C_24
REMARK                            x       y       z     vdW  Elec       q    Type
REMARK                         _______ _______ _______ _____ _____    ______ ____
ROOT
ATOM      1  N   UNL     1       2.641  14.344  17.587  0.00  0.00    +0.000 N 
ATOM      2  C   UNL     1       2.406  13.213  18.347  0.00  0.00    +0.000 C 
ATOM      3  O   UNL     1       2.414  13.268  19.573  0.00  0.00    +0.000 OA
ATOM      4  N   UNL     1       2.242  12.080  17.585  0.00  0.00    +0.000 N 
ATOM      5  C   UNL     1       2.052  10.850  18.167  0.00  0.00    +0.000 A 
ATOM      6  N   UNL     1       2.297   9.702  17.462  0.00  0.00    +0.000 NA
ATOM      7  C   UNL     1       2.111   8.750  18.358  0.00  0.00    +0.000 A 
ATOM      8  C   UNL     1       2.262   7.330  18.309  0.00  0.00    +0.000 A 
ATOM      9  C   UNL     1       1.996   6.576  19.402  0.00  0.00    +0.000 A 
ATOM     10  C   UNL     1       1.538   7.222  20.639  0.00  0.00    +0.000 A 
ATOM     11  C   UNL     1       1.393   8.563  20.700  0.00  0.00    +0.000 A 
ATOM     12  N   UNL     1       1.689   9.314  19.565  0.00  0.00    +0.000 N 
ATOM     13  N   UNL     1       1.632  10.651  19.409  0.00  0.00    +0.000 NA
ATOM     14  H   UNL     1       2.301  14.370  16.637  0.00  0.00    +0.000 HD
ATOM     15  H   UNL     1       2.547  12.060  16.629  0.00  0.00    +0.000 HD
ENDROOT
BRANCH   9  16
ATOM     16  C   UNL     1       2.137   5.109  19.305  0.00  0.00    +0.000 A 
ATOM     17  C   UNL     1       1.950   4.452  18.085  0.00  0.00    +0.000 A 
ATOM     18  C   UNL     1       2.054   3.062  18.018  0.00  0.00    +0.000 A 
ATOM     19  C   UNL     1       2.343   2.366  19.178  0.00  0.00    +0.000 A 
ATOM     20  N   UNL     1       2.529   2.961  20.378  0.00  0.00    +0.000 NA
ATOM     21  C   UNL     1       2.416   4.311  20.414  0.00  0.00    +0.000 A 
ENDBRANCH   9  16
BRANCH  11  22
ATOM     22  C   UNL     1       0.906   9.166  21.982  0.00  0.00    +0.000 C 
ATOM     23  O   UNL     1       1.624   9.191  22.976  0.00  0.00    +0.000 OA
ATOM     24  N   UNL     1      -0.376   9.661  21.977  0.00  0.00    +0.000 N 
ATOM     25  H   UNL     1      -0.912   9.661  21.106  0.00  0.00    +0.000 HD
BRANCH  24  26
ATOM     26  C   UNL     1      -0.985  10.278  23.138  0.00  0.00    +0.000 C 
ATOM     27  C   UNL     1      -1.174  11.773  22.952  0.00  0.00    +0.000 C 
ENDBRANCH  24  26
ENDBRANCH  11  22
BRANCH   1  29
ATOM     28  C   UNL     1       2.975  16.789  17.297  0.00  0.00    +0.000 C 
ATOM     29  C   UNL     1       2.965  15.600  18.244  0.00  0.00    +0.000 C 
ENDBRANCH   1  29
TORSDOF 4
ENDMDL
MODEL 3
REMARK VINA RESULT:      -7.5      1.737      7.755
REMARK  Name = 
REMARK  6 active torsions:
REMARK  status: ('A' for Active; 'I' for Inactive)
REMARK    1  A    between atoms: C_1  and  C_2
REMARK    2  A    between atoms: C_2  and  N_3
REMARK    3  A    between atoms: C_11  and  C_12
REMARK    4  A    between atoms: C_19  and  C_20
REMARK    5  A    between atoms: N_22  and  C_23
REMARK    6  A    between atoms: C_23  and  C_24
REMARK                            x       y       z     vdW  Elec       q    Type
REMARK                         _______ _______ _______ _____ _____    ______ ____
ROOT
ATOM      1  N   UNL     1       6.122   5.033  14.337  0.00  0.00    +0.000 N 
ATOM      2  C   UNL     1       5.330   5.093  15.470  0.00  0.00    +0.000 C 
ATOM      3  O   UNL     1       4.818   4.079  15.931  0.00  0.00    +0.000 OA
ATOM      4  N   UNL     1       5.155   6.376  15.934  0.00  0.00    +0.000 N 
ATOM      5  C   UNL     1       4.356   6.639  17.020  0.00  0.00    +0.000 A 
ATOM      6  N   UNL     1       3.858   7.898  17.228  0.00  0.00    +0.000 NA
ATOM      7  C   UNL     1       3.071   7.743  18.276  0.00  0.00    +0.000 A 
ATOM      8  C   UNL     1       2.202   8.636  18.976  0.00  0.00    +0.000 A 
ATOM      9  C   UNL     1       1.495   8.203  20.047  0.00  0.00    +0.000 A 
ATOM     10  C   UNL     1       1.633   6.812  20.497  0.00  0.00    +0.000 A 
ATOM     11  C   UNL     1       2.449   5.957  19.844  0.00  0.00    +0.000 A 
ATOM     12  N   UNL     1       3.153   6.426  18.737  0.00  0.00    +0.000 N 
ATOM     13  N   UNL     1       3.999   5.750  17.937  0.00  0.00    +0.000 NA
ATOM     14  H   UNL     1       6.794   5.768  14.175  0.00  0.00    +0.000 HD
ATOM     15  H   UNL     1       5.348   7.163  15.342  0.00  0.00    +0.000 HD
ENDROOT
BRANCH   9  16
ATOM     16  C   UNL     1       0.628   9.161  20.761  0.00  0.00    +0.000 A 
ATOM     17  C   UNL     1       0.364   9.008  22.125  0.00  0.00    +0.000 A 
ATOM     18  C   UNL     1      -0.485   9.903  22.778  0.00  0.00    +0.000 A 
ATOM     19  C   UNL     1      -1.048  10.931  22.043  0.00  0.00    +0.000 A 
ATOM     20  N   UNL     1      -0.821  11.116  20.723  0.00  0.00    +0.000 NA
ATOM     21  C   UNL     1       0.002  10.227  20.115  0.00  0.00    +0.000 A 
ENDBRANCH   9  16
BRANCH  11  22
ATOM     22  C   UNL     1       2.565   4.554  20.358  0.00  0.00    +0.000 C 
ATOM     23  O   UNL     1       2.338   4.297  21.536  0.00  0.00    +0.000 OA
ATOM     24  N   UNL     1       2.952   3.599  19.448  0.00  0.00    +0.000 N 
ATOM     25  H   UNL     1       3.077   3.860  18.468  0.00  0.00    +0.000 HD
BRANCH  24  26
ATOM     26  C   UNL     1       3.101   2.200  19.793  0.00  0.00    +0.000 C 
ATOM     27  C   UNL     1       3.511   1.361  18.597  0.00  0.00    +0.000 C 
ENDBRANCH  24  26
ENDBRANCH  11  22
BRANCH   1  29
ATOM     28  C   UNL     1       5.418   3.627  12.414  0.00  0.00    +0.000 C 
ATOM     29  C   UNL     1       6.297   3.766  13.646  0.00  0.00    +0.000 C 
ENDBRANCH   1  29
TORSDOF 4
ENDMDL
MODEL 4
REMARK VINA RESULT:      -7.5      4.112      6.738
REMARK  Name = 
REMARK  6 active torsions:
REMARK  status: ('A' for Active; 'I' for Inactive)
REMARK    1  A    between atoms: C_1  and  C_2
REMARK    2  A    between atoms: C_2  and  N_3
REMARK    3  A    between atoms: C_11  and  C_12
REMARK    4  A    between atoms: C_19  and  C_20
REMARK    5  A    between atoms: N_22  and  C_23
REMARK    6  A    between atoms: C_23  and  C_24
REMARK                            x       y       z     vdW  Elec       q    Type
REMARK                         _______ _______ _______ _____ _____    ______ ____
ROOT
ATOM      1  N   UNL     1       2.678  14.253  17.511  0.00  0.00    +0.000 N 
ATOM      2  C   UNL     1       2.397  13.175  18.329  0.00  0.00    +0.000 C 
ATOM      3  O   UNL     1       2.350  13.308  19.548  0.00  0.00    +0.000 OA
ATOM      4  N   UNL     1       2.255  11.997  17.634  0.00  0.00    +0.000 N 
ATOM      5  C   UNL     1       2.024  10.808  18.283  0.00  0.00    +0.000 A 
ATOM      6  N   UNL     1       2.288   9.615  17.663  0.00  0.00    +0.000 NA
ATOM      7  C   UNL     1       2.052   8.725  18.608  0.00  0.00    +0.000 A 
ATOM      8  C   UNL     1       2.188   7.303  18.655  0.00  0.00    +0.000 A 
ATOM      9  C   UNL     1       1.865   6.622  19.780  0.00  0.00    +0.000 A 
ATOM     10  C   UNL     1       1.359   7.349  20.952  0.00  0.00    +0.000 A 
ATOM     11  C   UNL     1       1.227   8.692  20.922  0.00  0.00    +0.000 A 
ATOM     12  N   UNL     1       1.582   9.367  19.756  0.00  0.00    +0.000 N 
ATOM     13  N   UNL     1       1.547  10.692  19.515  0.00  0.00    +0.000 NA
ATOM     14  H   UNL     1       2.382  14.221  16.547  0.00  0.00    +0.000 HD
ATOM     15  H   UNL     1       2.601  11.913  16.696  0.00  0.00    +0.000 HD
ENDROOT
BRANCH   9  16
ATOM     16  C   UNL     1       1.993   5.151  19.783  0.00  0.00    +0.000 A 
ATOM     17  C   UNL     1       2.168   4.450  20.980  0.00  0.00    +0.000 A 
ATOM     18  C   UNL     1       2.321   3.063  20.962  0.00  0.00    +0.000 A 
ATOM     19  C   UNL     1       2.296   2.414  19.740  0.00  0.00    +0.000 A 
ATOM     20  N   UNL     1       2.132   3.052  18.560  0.00  0.00    +0.000 NA
ATOM     21  C   UNL     1       1.992   4.399  18.608  0.00  0.00    +0.000 A 
ENDBRANCH   9  16
BRANCH  11  22
ATOM     22  C   UNL     1       0.690   9.379  22.140  0.00  0.00    +0.000 C 
ATOM     23  O   UNL     1       1.293   9.327  23.207  0.00  0.00    +0.000 OA
ATOM     24  N   UNL     1      -0.506  10.041  21.992  0.00  0.00    +0.000 N 
ATOM     25  H   UNL     1      -0.939  10.097  21.067  0.00  0.00    +0.000 HD
BRANCH  24  26
ATOM     26  C   UNL     1      -1.148  10.757  23.076  0.00  0.00    +0.000 C 
ATOM     27  C   UNL     1      -1.734  12.079  22.615  0.00  0.00    +0.000 C 
ENDBRANCH  24  26
ENDBRANCH  11  22
BRANCH   1  29
ATOM     28  C   UNL     1       3.420  16.585  17.080  0.00  0.00    +0.000 C 
ATOM     29  C   UNL     1       2.987  15.545  18.101  0.00  0.00    +0.000 C 
ENDBRANCH   1  29
TORSDOF 4
ENDMDL
MODEL 5
REMARK VINA RESULT:      -7.3      0.870      1.144
REMARK  Name = 
REMARK  6 active torsions:
REMARK  status: ('A' for Active; 'I' for Inactive)
REMARK    1  A    between atoms: C_1  and  C_2
REMARK    2  A    between atoms: C_2  and  N_3
REMARK    3  A    between atoms: C_11  and  C_12
REMARK    4  A    between atoms: C_19  and  C_20
REMARK    5  A    between atoms: N_22  and  C_23
REMARK    6  A    between atoms: C_23  and  C_24
REMARK                            x       y       z     vdW  Elec       q    Type
REMARK                         _______ _______ _______ _____ _____    ______ ____
ROOT
ATOM      1  N   UNL     1       1.028   9.354  21.387  0.00  0.00    +0.000 N 
ATOM      2  C   UNL     1       1.481   8.252  20.685  0.00  0.00    +0.000 C 
ATOM      3  O   UNL     1       1.470   7.136  21.193  0.00  0.00    +0.000 OA
ATOM      4  N   UNL     1       1.978   8.576  19.443  0.00  0.00    +0.000 N 
ATOM      5  C   UNL     1       2.521   7.620  18.621  0.00  0.00    +0.000 A 
ATOM      6  N   UNL     1       3.364   7.977  17.601  0.00  0.00    +0.000 NA
ATOM      7  C   UNL     1       3.758   6.815  17.113  0.00  0.00    +0.000 A 
ATOM      8  C   UNL     1       4.684   6.461  16.084  0.00  0.00    +0.000 A 
ATOM      9  C   UNL     1       4.903   5.160  15.779  0.00  0.00    +0.000 A 
ATOM     10  C   UNL     1       4.174   4.110  16.503  0.00  0.00    +0.000 A 
ATOM     11  C   UNL     1       3.298   4.430  17.479  0.00  0.00    +0.000 A 
ATOM     12  N   UNL     1       3.105   5.776  17.781  0.00  0.00    +0.000 N 
ATOM     13  N   UNL     1       2.301   6.315  18.718  0.00  0.00    +0.000 NA
ATOM     14  H   UNL     1       0.722  10.166  20.873  0.00  0.00    +0.000 HD
ATOM     15  H   UNL     1       2.229   9.523  19.226  0.00  0.00    +0.000 HD
ENDROOT
BRANCH   9  16
ATOM     16  C   UNL     1       5.846   4.833  14.691  0.00  0.00    +0.000 A 
ATOM     17  C   UNL     1       7.075   5.491  14.589  0.00  0.00    +0.000 A 
ATOM     18  C   UNL     1       7.941   5.195  13.535  0.00  0.00    +0.000 A 
ATOM     19  C   UNL     1       7.550   4.244  12.610  0.00  0.00    +0.000 A 
ATOM     20  N   UNL     1       6.371   3.585  12.670  0.00  0.00    +0.000 NA
ATOM     21  C   UNL     1       5.548   3.898  13.700  0.00  0.00    +0.000 A 
ENDBRANCH   9  16
BRANCH  11  22
ATOM     22  C   UNL     1       2.570   3.319  18.172  0.00  0.00    +0.000 C 
ATOM     23  O   UNL     1       2.112   2.376  17.535  0.00  0.00    +0.000 OA
ATOM     24  N   UNL     1       2.436   3.432  19.535  0.00  0.00    +0.000 N 
ATOM     25  H   UNL     1       2.883   4.213  20.022  0.00  0.00    +0.000 HD
BRANCH  24  26
ATOM     26  C   UNL     1       1.763   2.436  20.344  0.00  0.00    +0.000 C 
ATOM     27  C   UNL     1       1.806   2.782  21.822  0.00  0.00    +0.000 C 
ENDBRANCH  24  26
ENDBRANCH  11  22
BRANCH   1  29
ATOM     28  C   UNL     1      -0.651  10.006  23.098  0.00  0.00    +0.000 C 
ATOM     29  C   UNL     1       0.594   9.200  22.766  0.00  0.00    +0.000 C 
ENDBRANCH   1  29
TORSDOF 4
ENDMDL
MODEL 6
REMARK VINA RESULT:      -7.3      1.757      2.221
REMARK  Name = 
REMARK  6 active torsions:
REMARK  status: ('A' for Active; 'I' for Inactive)
REMARK    1  A    between atoms: C_1  and  C_2
REMARK    2  A    between atoms: C_2  and  N_3
REMARK    3  A    between atoms: C_11  and  C_12
REMARK    4  A    between atoms: C_19  and  C_20
REMARK    5  A    between atoms: N_22  and  C_23
REMARK    6  A    between atoms: C_23  and  C_24
REMARK                            x       y       z     vdW  Elec       q    Type
REMARK                         _______ _______ _______ _____ _____    ______ ____
ROOT
ATOM      1  N   UNL     1      -0.217  11.915  20.834  0.00  0.00    +0.000 N 
ATOM      2  C   UNL     1       0.355  10.678  20.597  0.00  0.00    +0.000 C 
ATOM      3  O   UNL     1       0.417   9.834  21.485  0.00  0.00    +0.000 OA
ATOM      4  N   UNL     1       0.871  10.562  19.327  0.00  0.00    +0.000 N 
ATOM      5  C   UNL     1       1.525   9.423  18.924  0.00  0.00    +0.000 A 
ATOM      6  N   UNL     1       2.375   9.452  17.850  0.00  0.00    +0.000 NA
ATOM      7  C   UNL     1       2.883   8.234  17.833  0.00  0.00    +0.000 A 
ATOM      8  C   UNL     1       3.876   7.610  17.016  0.00  0.00    +0.000 A 
ATOM      9  C   UNL     1       4.214   6.315  17.220  0.00  0.00    +0.000 A 
ATOM     10  C   UNL     1       3.548   5.546  18.280  0.00  0.00    +0.000 A 
ATOM     11  C   UNL     1       2.610   6.124  19.061  0.00  0.00    +0.000 A 
ATOM     12  N   UNL     1       2.293   7.462  18.837  0.00  0.00    +0.000 N 
ATOM     13  N   UNL     1       1.411   8.234  19.500  0.00  0.00    +0.000 NA
ATOM     14  H   UNL     1      -0.568  12.445  20.052  0.00  0.00    +0.000 HD
ATOM     15  H   UNL     1       1.051  11.379  18.773  0.00  0.00    +0.000 HD
ENDROOT
BRANCH   9  16
ATOM     16  C   UNL     1       5.224   5.696  16.338  0.00  0.00    +0.000 A 
ATOM     17  C   UNL     1       4.883   4.634  15.496  0.00  0.00    +0.000 A 
ATOM     18  C   UNL     1       5.857   4.038  14.693  0.00  0.00    +0.000 A 
ATOM     19  C   UNL     1       7.151   4.525  14.757  0.00  0.00    +0.000 A 
ATOM     20  N   UNL     1       7.524   5.548  15.558  0.00  0.00    +0.000 NA
ATOM     21  C   UNL     1       6.558   6.103  16.331  0.00  0.00    +0.000 A 
ENDBRANCH   9  16
BRANCH  11  22
ATOM     22  C   UNL     1       1.951   5.287  20.114  0.00  0.00    +0.000 C 
ATOM     23  O   UNL     1       1.662   5.766  21.206  0.00  0.00    +0.000 OA
ATOM     24  N   UNL     1       1.714   3.972  19.791  0.00  0.00    +0.000 N 
ATOM     25  H   UNL     1       1.928   3.639  18.848  0.00  0.00    +0.000 HD
BRANCH  24  26
ATOM     26  C   UNL     1       1.080   3.041  20.703  0.00  0.00    +0.000 C 
ATOM     27  C   UNL     1       2.063   2.475  21.711  0.00  0.00    +0.000 C 
ENDBRANCH  24  26
ENDBRANCH  11  22
BRANCH   1  29
ATOM     28  C   UNL     1      -0.696  13.738  22.452  0.00  0.00    +0.000 C 
ATOM     29  C   UNL     1      -0.691  12.245  22.169  0.00  0.00    +0.000 C 
ENDBRANCH   1  29
TORSDOF 4
ENDMDL
MODEL 7
REMARK VINA RESULT:      -7.3      3.659     10.440
REMARK  Name = 
REMARK  6 active torsions:
REMARK  status: ('A' for Active; 'I' for Inactive)
REMARK    1  A    between atoms: C_1  and  C_2
REMARK    2  A    between atoms: C_2  and  N_3
REMARK    3  A    between atoms: C_11  and  C_12
REMARK    4  A    between atoms: C_19  and  C_20
REMARK    5  A    between atoms: N_22  and  C_23
REMARK    6  A    between atoms: C_23  and  C_24
REMARK                            x       y       z     vdW  Elec       q    Type
REMARK                         _______ _______ _______ _____ _____    ______ ____
ROOT
ATOM      1  N   UNL     1       3.311   6.042  19.683  0.00  0.00    +0.000 N 
ATOM      2  C   UNL     1       2.452   7.125  19.644  0.00  0.00    +0.000 C 
ATOM      3  O   UNL     1       2.349   7.809  18.631  0.00  0.00    +0.000 OA
ATOM      4  N   UNL     1       1.822   7.352  20.846  0.00  0.00    +0.000 N 
ATOM      5  C   UNL     1       0.970   8.416  21.015  0.00  0.00    +0.000 A 
ATOM      6  N   UNL     1       0.676   8.878  22.271  0.00  0.00    +0.000 NA
ATOM      7  C   UNL     1      -0.065   9.944  22.035  0.00  0.00    +0.000 A 
ATOM      8  C   UNL     1      -0.651  10.925  22.893  0.00  0.00    +0.000 A 
ATOM      9  C   UNL     1      -1.384  11.939  22.373  0.00  0.00    +0.000 A 
ATOM     10  C   UNL     1      -1.585  12.021  20.920  0.00  0.00    +0.000 A 
ATOM     11  C   UNL     1      -1.036  11.101  20.098  0.00  0.00    +0.000 A 
ATOM     12  N   UNL     1      -0.275  10.079  20.660  0.00  0.00    +0.000 N 
ATOM     13  N   UNL     1       0.372   9.078  20.034  0.00  0.00    +0.000 NA
ATOM     14  H   UNL     1       3.140   5.310  20.355  0.00  0.00    +0.000 HD
ATOM     15  H   UNL     1       2.179   6.948  21.693  0.00  0.00    +0.000 HD
ENDROOT
BRANCH   9  16
ATOM     16  C   UNL     1      -1.997  12.919  23.292  0.00  0.00    +0.000 A 
ATOM     17  C   UNL     1      -3.301  12.739  23.763  0.00  0.00    +0.000 A 
ATOM     18  C   UNL     1      -3.877  13.691  24.604  0.00  0.00    +0.000 A 
ATOM     19  C   UNL     1      -3.129  14.802  24.952  0.00  0.00    +0.000 A 
ATOM     20  N   UNL     1      -1.866  15.016  24.519  0.00  0.00    +0.000 NA
ATOM     21  C   UNL     1      -1.335  14.077  23.698  0.00  0.00    +0.000 A 
ENDBRANCH   9  16
BRANCH  11  22
ATOM     22  C   UNL     1      -1.289  11.225  18.626  0.00  0.00    +0.000 C 
ATOM     23  O   UNL     1      -0.977  12.243  18.019  0.00  0.00    +0.000 OA
ATOM     24  N   UNL     1      -1.899  10.152  18.019  0.00  0.00    +0.000 N 
ATOM     25  H   UNL     1      -2.091   9.308  18.563  0.00  0.00    +0.000 HD
BRANCH  24  26
ATOM     26  C   UNL     1      -2.204  10.121  16.602  0.00  0.00    +0.000 C 
ATOM     27  C   UNL     1      -3.594  10.656  16.309  0.00  0.00    +0.000 C 
ENDBRANCH  24  26
ENDBRANCH  11  22
BRANCH   1  29
ATOM     28  C   UNL     1       3.860   4.395  17.906  0.00  0.00    +0.000 C 
ATOM     29  C   UNL     1       4.152   5.748  18.533  0.00  0.00    +0.000 C 
ENDBRANCH   1  29
TORSDOF 4
ENDMDL
MODEL 8
REMARK VINA RESULT:      -7.3      3.822     10.585
REMARK  Name = 
REMARK  6 active torsions:
REMARK  status: ('A' for Active; 'I' for Inactive)
REMARK    1  A    between atoms: C_1  and  C_2
REMARK    2  A    between atoms: C_2  and  N_3
REMARK    3  A    between atoms: C_11  and  C_12
REMARK    4  A    between atoms: C_19  and  C_20
REMARK    5  A    between atoms: N_22  and  C_23
REMARK    6  A    between atoms: C_23  and  C_24
REMARK                            x       y       z     vdW  Elec       q    Type
REMARK                         _______ _______ _______ _____ _____    ______ ____
ROOT
ATOM      1  N   UNL     1       3.111   6.115  19.965  0.00  0.00    +0.000 N 
ATOM      2  C   UNL     1       2.273   7.211  19.874  0.00  0.00    +0.000 C 
ATOM      3  O   UNL     1       2.190   7.853  18.832  0.00  0.00    +0.000 OA
ATOM      4  N   UNL     1       1.640   7.501  21.060  0.00  0.00    +0.000 N 
ATOM      5  C   UNL     1       0.807   8.587  21.177  0.00  0.00    +0.000 A 
ATOM      6  N   UNL     1       0.514   9.108  22.410  0.00  0.00    +0.000 NA
ATOM      7  C   UNL     1      -0.206  10.177  22.123  0.00  0.00    +0.000 A 
ATOM      8  C   UNL     1      -0.779  11.205  22.934  0.00  0.00    +0.000 A 
ATOM      9  C   UNL     1      -1.489  12.209  22.365  0.00  0.00    +0.000 A 
ATOM     10  C   UNL     1      -1.679  12.232  20.909  0.00  0.00    +0.000 A 
ATOM     11  C   UNL     1      -1.142  11.268  20.131  0.00  0.00    +0.000 A 
ATOM     12  N   UNL     1      -0.404  10.257  20.742  0.00  0.00    +0.000 N 
ATOM     13  N   UNL     1       0.228   9.217  20.164  0.00  0.00    +0.000 NA
ATOM     14  H   UNL     1       2.922   5.416  20.667  0.00  0.00    +0.000 HD
ATOM     15  H   UNL     1       1.983   7.128  21.926  0.00  0.00    +0.000 HD
ENDROOT
BRANCH   9  16
ATOM     16  C   UNL     1      -2.089  13.238  23.237  0.00  0.00    +0.000 A 
ATOM     17  C   UNL     1      -1.296  14.230  23.822  0.00  0.00    +0.000 A 
ATOM     18  C   UNL     1      -1.874  15.175  24.671  0.00  0.00    +0.000 A 
ATOM     19  C   UNL     1      -3.235  15.100  24.911  0.00  0.00    +0.000 A 
ATOM     20  N   UNL     1      -4.037  14.158  24.368  0.00  0.00    +0.000 NA
ATOM     21  C   UNL     1      -3.447  13.249  23.553  0.00  0.00    +0.000 A 
ENDBRANCH   9  16
BRANCH  11  22
ATOM     22  C   UNL     1      -1.383  11.332  18.654  0.00  0.00    +0.000 C 
ATOM     23  O   UNL     1      -1.135  12.354  18.021  0.00  0.00    +0.000 OA
ATOM     24  N   UNL     1      -1.907  10.203  18.070  0.00  0.00    +0.000 N 
ATOM     25  H   UNL     1      -2.046   9.363  18.635  0.00  0.00    +0.000 HD
BRANCH  24  26
ATOM     26  C   UNL     1      -2.190  10.111  16.651  0.00  0.00    +0.000 C 
ATOM     27  C   UNL     1      -3.606  10.549  16.325  0.00  0.00    +0.000 C 
ENDBRANCH  24  26
ENDBRANCH  11  22
BRANCH   1  29
ATOM     28  C   UNL     1       5.362   5.353  19.240  0.00  0.00    +0.000 C 
ATOM     29  C   UNL     1       3.954   5.756  18.835  0.00  0.00    +0.000 C 
ENDBRANCH   1  29
TORSDOF 4
ENDMDL
MODEL 9
REMARK VINA RESULT:      -7.2      3.668      5.733
REMARK  Name = 
REMARK  6 active torsions:
REMARK  status: ('A' for Active; 'I' for Inactive)
REMARK    1  A    between atoms: C_1  and  C_2
REMARK    2  A    between atoms: C_2  and  N_3
REMARK    3  A    between atoms: C_11  and  C_12
REMARK    4  A    between atoms: C_19  and  C_20
REMARK    5  A    between atoms: N_22  and  C_23
REMARK    6  A    between atoms: C_23  and  C_24
REMARK                            x       y       z     vdW  Elec       q    Type
REMARK                         _______ _______ _______ _____ _____    ______ ____
ROOT
ATOM      1  N   UNL     1       1.822  14.475  18.282  0.00  0.00    +0.000 N 
ATOM      2  C   UNL     1       1.668  13.207  18.810  0.00  0.00    +0.000 C 
ATOM      3  O   UNL     1       1.388  13.050  19.994  0.00  0.00    +0.000 OA
ATOM      4  N   UNL     1       1.924  12.211  17.896  0.00  0.00    +0.000 N 
ATOM      5  C   UNL     1       1.872  10.886  18.252  0.00  0.00    +0.000 A 
ATOM      6  N   UNL     1       2.508   9.937  17.495  0.00  0.00    +0.000 NA
ATOM      7  C   UNL     1       2.331   8.828  18.188  0.00  0.00    +0.000 A 
ATOM      8  C   UNL     1       2.787   7.486  18.002  0.00  0.00    +0.000 A 
ATOM      9  C   UNL     1       2.448   6.520  18.888  0.00  0.00    +0.000 A 
ATOM     10  C   UNL     1       1.598   6.852  20.039  0.00  0.00    +0.000 A 
ATOM     11  C   UNL     1       1.162   8.116  20.228  0.00  0.00    +0.000 A 
ATOM     12  N   UNL     1       1.539   9.092  19.308  0.00  0.00    +0.000 N 
ATOM     13  N   UNL     1       1.236  10.404  19.312  0.00  0.00    +0.000 NA
ATOM     14  H   UNL     1       1.707  14.605  17.288  0.00  0.00    +0.000 HD
ATOM     15  H   UNL     1       2.432  12.410  17.055  0.00  0.00    +0.000 HD
ENDROOT
BRANCH   9  16
ATOM     16  C   UNL     1       2.915   5.139  18.648  0.00  0.00    +0.000 A 
ATOM     17  C   UNL     1       2.207   4.282  17.801  0.00  0.00    +0.000 A 
ATOM     18  C   UNL     1       2.643   2.970  17.611  0.00  0.00    +0.000 A 
ATOM     19  C   UNL     1       3.780   2.552  18.278  0.00  0.00    +0.000 A 
ATOM     20  N   UNL     1       4.494   3.346  19.107  0.00  0.00    +0.000 NA
ATOM     21  C   UNL     1       4.043   4.613  19.277  0.00  0.00    +0.000 A 
ENDBRANCH   9  16
BRANCH  11  22
ATOM     22  C   UNL     1       0.283   8.393  21.409  0.00  0.00    +0.000 C 
ATOM     23  O   UNL     1      -0.769   7.783  21.566  0.00  0.00    +0.000 OA
ATOM     24  N   UNL     1       0.714   9.370  22.276  0.00  0.00    +0.000 N 
ATOM     25  H   UNL     1       1.624   9.811  22.125  0.00  0.00    +0.000 HD
BRANCH  24  26
ATOM     26  C   UNL     1      -0.024   9.746  23.465  0.00  0.00    +0.000 C 
ATOM     27  C   UNL     1      -1.087  10.788  23.167  0.00  0.00    +0.000 C 
ENDBRANCH  24  26
ENDBRANCH  11  22
BRANCH   1  29
ATOM     28  C   UNL     1       1.207  16.877  18.438  0.00  0.00    +0.000 C 
ATOM     29  C   UNL     1       1.717  15.636  19.151  0.00  0.00    +0.000 C 
ENDBRANCH   1  29
TORSDOF 4
ENDMDL
