MODEL 1
REMARK VINA RESULT:      -6.5      0.000      0.000
REMARK  Name = 
REMARK  5 active torsions:
REMARK  status: ('A' for Active; 'I' for Inactive)
REMARK    1  A    between atoms: C_1  and  N_2
REMARK    2  A    between atoms: C_6  and  C_7
REMARK    3  A    between atoms: C_7  and  C_8
REMARK    4  A    between atoms: N_10  and  N_11
REMARK    5  A    between atoms: C_12  and  C_13
REMARK                            x       y       z     vdW  Elec       q    Type
REMARK                         _______ _______ _______ _____ _____    ______ ____
ROOT
ATOM      1  C   UNL     1       4.331   5.048  18.085  0.00  0.00    +0.000 C 
ATOM      2  O   UNL     1       3.479   5.505  17.320  0.00  0.00    +0.000 OA
ATOM      3  N   UNL     1       5.517   4.459  17.663  0.00  0.00    +0.000 N 
ATOM      4  H   UNL     1       6.157   4.016  18.312  0.00  0.00    +0.000 HD
ENDROOT
BRANCH   3   5
ATOM      5  N   UNL     1       5.730   4.423  16.317  0.00  0.00    +0.000 NA
ATOM      6  C   UNL     1       6.839   4.845  15.813  0.00  0.00    +0.000 C 
BRANCH   6   7
ATOM      7  C   UNL     1       6.996   4.747  14.386  0.00  0.00    +0.000 A 
ATOM      8  C   UNL     1       6.395   3.899  13.472  0.00  0.00    +0.000 A 
ATOM      9  C   UNL     1       6.956   4.191  12.209  0.00  0.00    +0.000 A 
ATOM     10  C   UNL     1       7.855   5.210  12.424  0.00  0.00    +0.000 A 
ATOM     11  O   UNL     1       7.882   5.562  13.739  0.00  0.00    +0.000 OA
ENDBRANCH   6   7
ENDBRANCH   3   5
BRANCH   1  12
ATOM     12  C   UNL     1       4.153   5.197  19.580  0.00  0.00    +0.000 C 
BRANCH  12  18
ATOM     13  C   UNL     1       4.318   2.154  20.290  0.00  0.00    +0.000 C 
ATOM     14  N   UNL     1       3.158   3.006  20.453  0.00  0.00    +0.000 N 
ATOM     15  C   UNL     1       1.926   2.542  20.849  0.00  0.00    +0.000 A 
ATOM     16  C   UNL     1       1.037   3.588  20.826  0.00  0.00    +0.000 A 
ATOM     17  C   UNL     1       1.755   4.732  20.414  0.00  0.00    +0.000 A 
ATOM     18  C   UNL     1       3.071   4.357  20.177  0.00  0.00    +0.000 A 
ENDBRANCH  12  18
ENDBRANCH   1  12
TORSDOF 4
ENDMDL
MODEL 2
REMARK VINA RESULT:      -6.3      0.801      1.015
REMARK  Name = 
REMARK  5 active torsions:
REMARK  status: ('A' for Active; 'I' for Inactive)
REMARK    1  A    between atoms: C_1  and  N_2
REMARK    2  A    between atoms: C_6  and  C_7
REMARK    3  A    between atoms: C_7  and  C_8
REMARK    4  A    between atoms: N_10  and  N_11
REMARK    5  A    between atoms: C_12  and  C_13
REMARK                            x       y       z     vdW  Elec       q    Type
REMARK                         _______ _______ _______ _____ _____    ______ ____
ROOT
ATOM      1  C   UNL     1       4.519   4.702  17.907  0.00  0.00    +0.000 C 
ATOM      2  O   UNL     1       3.606   4.947  17.115  0.00  0.00    +0.000 OA
ATOM      3  N   UNL     1       5.756   4.193  17.530  0.00  0.00    +0.000 N 
ATOM      4  H   UNL     1       6.456   3.923  18.212  0.00  0.00    +0.000 HD
ENDROOT
BRANCH   3   5
ATOM      5  N   UNL     1       5.946   3.987  16.196  0.00  0.00    +0.000 NA
ATOM      6  C   UNL     1       6.624   4.826  15.488  0.00  0.00    +0.000 C 
BRANCH   6   7
ATOM      7  C   UNL     1       6.802   4.521  14.093  0.00  0.00    +0.000 A 
ATOM      8  C   UNL     1       7.626   5.101  13.145  0.00  0.00    +0.000 A 
ATOM      9  C   UNL     1       7.360   4.454  11.918  0.00  0.00    +0.000 A 
ATOM     10  C   UNL     1       6.401   3.506  12.192  0.00  0.00    +0.000 A 
ATOM     11  O   UNL     1       6.062   3.531  13.511  0.00  0.00    +0.000 OA
ENDBRANCH   6   7
ENDBRANCH   3   5
BRANCH   1  12
ATOM     12  C   UNL     1       4.355   5.045  19.371  0.00  0.00    +0.000 C 
BRANCH  12  18
ATOM     13  C   UNL     1       4.337   2.064  20.324  0.00  0.00    +0.000 C 
ATOM     14  N   UNL     1       3.244   3.008  20.451  0.00  0.00    +0.000 N 
ATOM     15  C   UNL     1       1.999   2.665  20.920  0.00  0.00    +0.000 A 
ATOM     16  C   UNL     1       1.183   3.766  20.838  0.00  0.00    +0.000 A 
ATOM     17  C   UNL     1       1.962   4.819  20.311  0.00  0.00    +0.000 A 
ATOM     18  C   UNL     1       3.240   4.334  20.067  0.00  0.00    +0.000 A 
ENDBRANCH  12  18
ENDBRANCH   1  12
TORSDOF 4
ENDMDL
MODEL 3
REMARK VINA RESULT:      -6.2      1.042      1.628
REMARK  Name = 
REMARK  5 active torsions:
REMARK  status: ('A' for Active; 'I' for Inactive)
REMARK    1  A    between atoms: C_1  and  N_2
REMARK    2  A    between atoms: C_6  and  C_7
REMARK    3  A    between atoms: C_7  and  C_8
REMARK    4  A    between atoms: N_10  and  N_11
REMARK    5  A    between atoms: C_12  and  C_13
REMARK                            x       y       z     vdW  Elec       q    Type
REMARK                         _______ _______ _______ _____ _____    ______ ____
ROOT
ATOM      1  C   UNL     1       5.055   4.823  18.177  0.00  0.00    +0.000 C 
ATOM      2  O   UNL     1       4.465   5.639  17.465  0.00  0.00    +0.000 OA
ATOM      3  N   UNL     1       6.168   4.099  17.766  0.00  0.00    +0.000 N 
ATOM      4  H   UNL     1       6.580   3.374  18.344  0.00  0.00    +0.000 HD
ENDROOT
BRANCH   3   5
ATOM      5  N   UNL     1       6.622   4.348  16.506  0.00  0.00    +0.000 NA
ATOM      6  C   UNL     1       6.018   3.856  15.478  0.00  0.00    +0.000 C 
BRANCH   6   7
ATOM      7  C   UNL     1       6.545   4.190  14.180  0.00  0.00    +0.000 A 
ATOM      8  C   UNL     1       6.264   3.659  12.934  0.00  0.00    +0.000 A 
ATOM      9  C   UNL     1       7.107   4.313  12.009  0.00  0.00    +0.000 A 
ATOM     10  C   UNL     1       7.842   5.215  12.743  0.00  0.00    +0.000 A 
ATOM     11  O   UNL     1       7.503   5.156  14.061  0.00  0.00    +0.000 OA
ENDBRANCH   6   7
ENDBRANCH   3   5
BRANCH   1  12
ATOM     12  C   UNL     1       4.628   4.636  19.616  0.00  0.00    +0.000 C 
BRANCH  12  18
ATOM     13  C   UNL     1       2.115   6.445  20.065  0.00  0.00    +0.000 C 
ATOM     14  N   UNL     1       2.129   4.996  20.033  0.00  0.00    +0.000 N 
ATOM     15  C   UNL     1       1.028   4.221  20.310  0.00  0.00    +0.000 A 
ATOM     16  C   UNL     1       1.401   2.901  20.268  0.00  0.00    +0.000 A 
ATOM     17  C   UNL     1       2.774   2.870  19.941  0.00  0.00    +0.000 A 
ATOM     18  C   UNL     1       3.218   4.179  19.805  0.00  0.00    +0.000 A 
ENDBRANCH  12  18
ENDBRANCH   1  12
TORSDOF 4
ENDMDL
MODEL 4
REMARK VINA RESULT:      -6.2      5.760      7.068
REMARK  Name = 
REMARK  5 active torsions:
REMARK  status: ('A' for Active; 'I' for Inactive)
REMARK    1  A    between atoms: C_1  and  N_2
REMARK    2  A    between atoms: C_6  and  C_7
REMARK    3  A    between atoms: C_7  and  C_8
REMARK    4  A    between atoms: N_10  and  N_11
REMARK    5  A    between atoms: C_12  and  C_13
REMARK                            x       y       z     vdW  Elec       q    Type
REMARK                         _______ _______ _______ _____ _____    ______ ____
ROOT
ATOM      1  C   UNL     1       7.809   7.415  17.966  0.00  0.00    +0.000 C 
ATOM      2  O   UNL     1       7.235   7.875  16.977  0.00  0.00    +0.000 OA
ATOM      3  N   UNL     1       8.612   8.166  18.815  0.00  0.00    +0.000 N 
ATOM      4  H   UNL     1       9.139   7.742  19.571  0.00  0.00    +0.000 HD
ENDROOT
BRANCH   3   5
ATOM      5  N   UNL     1       8.730   9.492  18.523  0.00  0.00    +0.000 NA
ATOM      6  C   UNL     1       9.350  10.292  19.322  0.00  0.00    +0.000 C 
BRANCH   6   7
ATOM      7  C   UNL     1       9.455  11.672  18.926  0.00  0.00    +0.000 A 
ATOM      8  C   UNL     1       9.967  12.239  17.773  0.00  0.00    +0.000 A 
ATOM      9  C   UNL     1       9.878  13.640  17.928  0.00  0.00    +0.000 A 
ATOM     10  C   UNL     1       9.301  13.845  19.160  0.00  0.00    +0.000 A 
ATOM     11  O   UNL     1       9.031  12.658  19.771  0.00  0.00    +0.000 OA
ENDBRANCH   6   7
ENDBRANCH   3   5
BRANCH   1  12
ATOM     12  C   UNL     1       7.581   5.973  18.362  0.00  0.00    +0.000 C 
BRANCH  12  18
ATOM     13  C   UNL     1       4.569   5.300  18.881  0.00  0.00    +0.000 C 
ATOM     14  N   UNL     1       5.349   4.893  17.729  0.00  0.00    +0.000 N 
ATOM     15  C   UNL     1       4.874   4.051  16.752  0.00  0.00    +0.000 A 
ATOM     16  C   UNL     1       5.884   3.810  15.854  0.00  0.00    +0.000 A 
ATOM     17  C   UNL     1       7.009   4.541  16.293  0.00  0.00    +0.000 A 
ATOM     18  C   UNL     1       6.667   5.205  17.463  0.00  0.00    +0.000 A 
ENDBRANCH  12  18
ENDBRANCH   1  12
TORSDOF 4
ENDMDL
MODEL 5
REMARK VINA RESULT:      -6.2      1.375      1.858
REMARK  Name = 
REMARK  5 active torsions:
REMARK  status: ('A' for Active; 'I' for Inactive)
REMARK    1  A    between atoms: C_1  and  N_2
REMARK    2  A    between atoms: C_6  and  C_7
REMARK    3  A    between atoms: C_7  and  C_8
REMARK    4  A    between atoms: N_10  and  N_11
REMARK    5  A    between atoms: C_12  and  C_13
REMARK                            x       y       z     vdW  Elec       q    Type
REMARK                         _______ _______ _______ _____ _____    ______ ____
ROOT
ATOM      1  C   UNL     1       5.390   4.772  18.345  0.00  0.00    +0.000 C 
ATOM      2  O   UNL     1       6.561   4.387  18.360  0.00  0.00    +0.000 OA
ATOM      3  N   UNL     1       4.746   5.247  17.209  0.00  0.00    +0.000 N 
ATOM      4  H   UNL     1       3.810   5.637  17.246  0.00  0.00    +0.000 HD
ENDROOT
BRANCH   3   5
ATOM      5  N   UNL     1       5.472   5.250  16.056  0.00  0.00    +0.000 NA
ATOM      6  C   UNL     1       5.432   4.247  15.247  0.00  0.00    +0.000 C 
BRANCH   6   7
ATOM      7  C   UNL     1       6.206   4.341  14.038  0.00  0.00    +0.000 A 
ATOM      8  C   UNL     1       6.151   3.592  12.876  0.00  0.00    +0.000 A 
ATOM      9  C   UNL     1       7.177   4.070  12.030  0.00  0.00    +0.000 A 
ATOM     10  C   UNL     1       7.787   5.092  12.719  0.00  0.00    +0.000 A 
ATOM     11  O   UNL     1       7.201   5.272  13.936  0.00  0.00    +0.000 OA
ENDBRANCH   6   7
ENDBRANCH   3   5
BRANCH   1  12
ATOM     12  C   UNL     1       4.546   4.655  19.594  0.00  0.00    +0.000 C 
BRANCH  12  18
ATOM     13  C   UNL     1       1.683   5.366  20.641  0.00  0.00    +0.000 C 
ATOM     14  N   UNL     1       2.061   4.151  19.947  0.00  0.00    +0.000 N 
ATOM     15  C   UNL     1       1.208   3.091  19.756  0.00  0.00    +0.000 A 
ATOM     16  C   UNL     1       1.900   2.078  19.139  0.00  0.00    +0.000 A 
ATOM     17  C   UNL     1       3.217   2.543  18.935  0.00  0.00    +0.000 A 
ATOM     18  C   UNL     1       3.308   3.830  19.449  0.00  0.00    +0.000 A 
ENDBRANCH  12  18
ENDBRANCH   1  12
TORSDOF 4
ENDMDL
MODEL 6
REMARK VINA RESULT:      -6.2      4.749      5.668
REMARK  Name = 
REMARK  5 active torsions:
REMARK  status: ('A' for Active; 'I' for Inactive)
REMARK    1  A    between atoms: C_1  and  N_2
REMARK    2  A    between atoms: C_6  and  C_7
REMARK    3  A    between atoms: C_7  and  C_8
REMARK    4  A    between atoms: N_10  and  N_11
REMARK    5  A    between atoms: C_12  and  C_13
REMARK                            x       y       z     vdW  Elec       q    Type
REMARK                         _______ _______ _______ _____ _____    ______ ____
ROOT
ATOM      1  C   UNL     1       7.198   5.852  18.589  0.00  0.00    +0.000 C 
ATOM      2  O   UNL     1       7.731   5.678  19.687  0.00  0.00    +0.000 OA
ATOM      3  N   UNL     1       7.395   6.980  17.802  0.00  0.00    +0.000 N 
ATOM      4  H   UNL     1       6.877   7.134  16.944  0.00  0.00    +0.000 HD
ENDROOT
BRANCH   3   5
ATOM      5  N   UNL     1       8.254   7.918  18.292  0.00  0.00    +0.000 NA
ATOM      6  C   UNL     1       8.138   9.158  17.958  0.00  0.00    +0.000 C 
BRANCH   6   7
ATOM      7  C   UNL     1       9.068  10.089  18.540  0.00  0.00    +0.000 A 
ATOM      8  C   UNL     1       9.323  10.393  19.866  0.00  0.00    +0.000 A 
ATOM      9  C   UNL     1      10.290  11.422  19.874  0.00  0.00    +0.000 A 
ATOM     10  C   UNL     1      10.579  11.676  18.553  0.00  0.00    +0.000 A 
ATOM     11  O   UNL     1       9.851  10.866  17.735  0.00  0.00    +0.000 OA
ENDBRANCH   6   7
ENDBRANCH   3   5
BRANCH   1  12
ATOM     12  C   UNL     1       6.341   4.759  17.989  0.00  0.00    +0.000 C 
BRANCH  12  18
ATOM     13  C   UNL     1       4.487   2.851  19.636  0.00  0.00    +0.000 C 
ATOM     14  N   UNL     1       4.068   4.037  18.916  0.00  0.00    +0.000 N 
ATOM     15  C   UNL     1       2.754   4.416  18.780  0.00  0.00    +0.000 A 
ATOM     16  C   UNL     1       2.701   5.532  17.981  0.00  0.00    +0.000 A 
ATOM     17  C   UNL     1       4.031   5.851  17.630  0.00  0.00    +0.000 A 
ATOM     18  C   UNL     1       4.871   4.911  18.211  0.00  0.00    +0.000 A 
ENDBRANCH  12  18
ENDBRANCH   1  12
TORSDOF 4
ENDMDL
MODEL 7
REMARK VINA RESULT:      -6.1      5.663      6.814
REMARK  Name = 
REMARK  5 active torsions:
REMARK  status: ('A' for Active; 'I' for Inactive)
REMARK    1  A    between atoms: C_1  and  N_2
REMARK    2  A    between atoms: C_6  and  C_7
REMARK    3  A    between atoms: C_7  and  C_8
REMARK    4  A    between atoms: N_10  and  N_11
REMARK    5  A    between atoms: C_12  and  C_13
REMARK                            x       y       z     vdW  Elec       q    Type
REMARK                         _______ _______ _______ _____ _____    ______ ____
ROOT
ATOM      1  C   UNL     1       7.827   7.323  17.991  0.00  0.00    +0.000 C 
ATOM      2  O   UNL     1       7.357   7.710  16.918  0.00  0.00    +0.000 OA
ATOM      3  N   UNL     1       8.565   8.129  18.849  0.00  0.00    +0.000 N 
ATOM      4  H   UNL     1       9.010   7.759  19.682  0.00  0.00    +0.000 HD
ENDROOT
BRANCH   3   5
ATOM      5  N   UNL     1       8.740   9.424  18.464  0.00  0.00    +0.000 NA
ATOM      6  C   UNL     1       9.383  10.254  19.213  0.00  0.00    +0.000 C 
BRANCH   6   7
ATOM      7  C   UNL     1       9.548  11.597  18.721  0.00  0.00    +0.000 A 
ATOM      8  C   UNL     1      10.326  12.084  17.686  0.00  0.00    +0.000 A 
ATOM      9  C   UNL     1      10.160  13.487  17.672  0.00  0.00    +0.000 A 
ATOM     10  C   UNL     1       9.280  13.771  18.690  0.00  0.00    +0.000 A 
ATOM     11  O   UNL     1       8.894  12.631  19.328  0.00  0.00    +0.000 OA
ENDBRANCH   6   7
ENDBRANCH   3   5
BRANCH   1  12
ATOM     12  C   UNL     1       7.530   5.922  18.477  0.00  0.00    +0.000 C 
BRANCH  12  18
ATOM     13  C   UNL     1       6.942   4.363  15.828  0.00  0.00    +0.000 C 
ATOM     14  N   UNL     1       5.973   4.706  16.850  0.00  0.00    +0.000 N 
ATOM     15  C   UNL     1       4.624   4.474  16.723  0.00  0.00    +0.000 A 
ATOM     16  C   UNL     1       3.987   4.986  17.827  0.00  0.00    +0.000 A 
ATOM     17  C   UNL     1       4.985   5.537  18.660  0.00  0.00    +0.000 A 
ATOM     18  C   UNL     1       6.215   5.364  18.040  0.00  0.00    +0.000 A 
ENDBRANCH  12  18
ENDBRANCH   1  12
TORSDOF 4
ENDMDL
MODEL 8
REMARK VINA RESULT:      -6.1      1.765      7.470
REMARK  Name = 
REMARK  5 active torsions:
REMARK  status: ('A' for Active; 'I' for Inactive)
REMARK    1  A    between atoms: C_1  and  N_2
REMARK    2  A    between atoms: C_6  and  C_7
REMARK    3  A    between atoms: C_7  and  C_8
REMARK    4  A    between atoms: N_10  and  N_11
REMARK    5  A    between atoms: C_12  and  C_13
REMARK                            x       y       z     vdW  Elec       q    Type
REMARK                         _______ _______ _______ _____ _____    ______ ____
ROOT
ATOM      1  C   UNL     1       5.639   5.025  16.404  0.00  0.00    +0.000 C 
ATOM      2  O   UNL     1       4.759   5.884  16.308  0.00  0.00    +0.000 OA
ATOM      3  N   UNL     1       5.549   3.914  17.233  0.00  0.00    +0.000 N 
ATOM      4  H   UNL     1       6.324   3.271  17.354  0.00  0.00    +0.000 HD
ENDROOT
BRANCH   3   5
ATOM      5  N   UNL     1       4.398   3.783  17.950  0.00  0.00    +0.000 NA
ATOM      6  C   UNL     1       4.427   3.407  19.183  0.00  0.00    +0.000 C 
BRANCH   6   7
ATOM      7  C   UNL     1       3.169   3.321  19.877  0.00  0.00    +0.000 A 
ATOM      8  C   UNL     1       1.926   3.832  19.550  0.00  0.00    +0.000 A 
ATOM      9  C   UNL     1       1.054   3.505  20.612  0.00  0.00    +0.000 A 
ATOM     10  C   UNL     1       1.812   2.800  21.518  0.00  0.00    +0.000 A 
ATOM     11  O   UNL     1       3.096   2.674  21.078  0.00  0.00    +0.000 OA
ENDBRANCH   6   7
ENDBRANCH   3   5
BRANCH   1  12
ATOM     12  C   UNL     1       6.863   5.104  15.519  0.00  0.00    +0.000 C 
BRANCH  12  18
ATOM     13  C   UNL     1       8.523   5.767  12.950  0.00  0.00    +0.000 C 
ATOM     14  N   UNL     1       7.436   4.812  13.041  0.00  0.00    +0.000 N 
ATOM     15  C   UNL     1       6.920   4.145  11.956  0.00  0.00    +0.000 A 
ATOM     16  C   UNL     1       5.858   3.384  12.376  0.00  0.00    +0.000 A 
ATOM     17  C   UNL     1       5.730   3.584  13.767  0.00  0.00    +0.000 A 
ATOM     18  C   UNL     1       6.711   4.481  14.169  0.00  0.00    +0.000 A 
ENDBRANCH  12  18
ENDBRANCH   1  12
TORSDOF 4
ENDMDL
MODEL 9
REMARK VINA RESULT:      -6.1      5.187      6.156
REMARK  Name = 
REMARK  5 active torsions:
REMARK  status: ('A' for Active; 'I' for Inactive)
REMARK    1  A    between atoms: C_1  and  N_2
REMARK    2  A    between atoms: C_6  and  C_7
REMARK    3  A    between atoms: C_7  and  C_8
REMARK    4  A    between atoms: N_10  and  N_11
REMARK    5  A    between atoms: C_12  and  C_13
REMARK                            x       y       z     vdW  Elec       q    Type
REMARK                         _______ _______ _______ _____ _____    ______ ____
ROOT
ATOM      1  C   UNL     1       7.203   6.769  17.831  0.00  0.00    +0.000 C 
ATOM      2  O   UNL     1       7.928   6.248  18.682  0.00  0.00    +0.000 OA
ATOM      3  N   UNL     1       7.359   8.071  17.372  0.00  0.00    +0.000 N 
ATOM      4  H   UNL     1       6.696   8.498  16.735  0.00  0.00    +0.000 HD
ENDROOT
BRANCH   3   5
ATOM      5  N   UNL     1       8.400   8.778  17.896  0.00  0.00    +0.000 NA
ATOM      6  C   UNL     1       8.305  10.050  18.085  0.00  0.00    +0.000 C 
BRANCH   6   7
ATOM      7  C   UNL     1       9.438  10.717  18.669  0.00  0.00    +0.000 A 
ATOM      8  C   UNL     1       9.738  10.988  19.992  0.00  0.00    +0.000 A 
ATOM      9  C   UNL     1      10.946  11.720  19.999  0.00  0.00    +0.000 A 
ATOM     10  C   UNL     1      11.321  11.840  18.680  0.00  0.00    +0.000 A 
ATOM     11  O   UNL     1      10.418  11.227  17.864  0.00  0.00    +0.000 OA
ENDBRANCH   6   7
ENDBRANCH   3   5
BRANCH   1  12
ATOM     12  C   UNL     1       6.125   5.947  17.160  0.00  0.00    +0.000 C 
BRANCH  12  18
ATOM     13  C   UNL     1       4.838   3.848  19.092  0.00  0.00    +0.000 C 
ATOM     14  N   UNL     1       4.217   5.071  18.624  0.00  0.00    +0.000 N 
ATOM     15  C   UNL     1       2.913   5.411  18.896  0.00  0.00    +0.000 A 
ATOM     16  C   UNL     1       2.622   6.584  18.244  0.00  0.00    +0.000 A 
ATOM     17  C   UNL     1       3.794   6.978  17.562  0.00  0.00    +0.000 A 
ATOM     18  C   UNL     1       4.777   6.027  17.799  0.00  0.00    +0.000 A 
ENDBRANCH  12  18
ENDBRANCH   1  12
TORSDOF 4
ENDMDL
