MODEL 1
REMARK VINA RESULT:      -8.1      0.000      0.000
REMARK  Name = 
REMARK  7 active torsions:
REMARK  status: ('A' for Active; 'I' for Inactive)
REMARK    1  A    between atoms: C_1  and  C_2
REMARK    2  A    between atoms: C_3  and  O_4
REMARK    3  A    between atoms: C_7  and  C_8
REMARK    4  A    between atoms: C_8  and  C_10
REMARK    5  A    between atoms: C_11  and  C_12
REMARK    6  A    between atoms: C_15  and  C_16
REMARK    7  A    between atoms: C_22  and  O_23
REMARK                            x       y       z     vdW  Elec       q    Type
REMARK                         _______ _______ _______ _____ _____    ______ ____
ROOT
ATOM      1  C   UNL     1       7.127   6.661  17.193  0.00  0.00    +0.000 C 
ATOM      2  O   UNL     1       7.590   6.225  16.143  0.00  0.00    +0.000 OA
ENDROOT
BRANCH   1   8
ATOM      3  C   UNL     1       4.331   3.114  19.503  0.00  0.00    +0.000 C 
ATOM      4  C   UNL     1       4.408   4.437  18.791  0.00  0.00    +0.000 A 
ATOM      5  C   UNL     1       3.295   5.244  18.524  0.00  0.00    +0.000 A 
ATOM      6  C   UNL     1       3.436   6.468  17.870  0.00  0.00    +0.000 A 
ATOM      7  C   UNL     1       4.694   6.912  17.466  0.00  0.00    +0.000 A 
ATOM      8  C   UNL     1       5.831   6.132  17.705  0.00  0.00    +0.000 A 
ATOM      9  C   UNL     1       5.670   4.892  18.348  0.00  0.00    +0.000 A 
BRANCH   5  10
ATOM     10  O   UNL     1       2.012   4.917  18.853  0.00  0.00    +0.000 OA
ATOM     11  H   UNL     1       1.740   4.102  18.410  0.00  0.00    +0.000 HD
ENDBRANCH   5  10
BRANCH   9  12
ATOM     12  O   UNL     1       6.731   4.044  18.534  0.00  0.00    +0.000 OA
ATOM     13  H   UNL     1       7.525   4.534  18.254  0.00  0.00    +0.000 HD
ENDBRANCH   9  12
ENDBRANCH   1   8
BRANCH   1  14
ATOM     14  C   UNL     1       7.825   7.722  17.961  0.00  0.00    +0.000 C 
ATOM     15  C   UNL     1       7.797   8.990  17.515  0.00  0.00    +0.000 C 
BRANCH  15  16
ATOM     16  C   UNL     1       8.532  10.053  18.200  0.00  0.00    +0.000 A 
ATOM     17  C   UNL     1       8.554  11.342  17.659  0.00  0.00    +0.000 A 
ATOM     18  C   UNL     1       9.268  12.363  18.293  0.00  0.00    +0.000 A 
ATOM     19  C   UNL     1       9.971  12.108  19.479  0.00  0.00    +0.000 A 
ATOM     20  C   UNL     1       9.944  10.812  20.017  0.00  0.00    +0.000 A 
ATOM     21  C   UNL     1       9.230   9.790  19.382  0.00  0.00    +0.000 A 
BRANCH  19  22
ATOM     22  C   UNL     1      10.748  13.200  20.171  0.00  0.00    +0.000 C 
ATOM     23  F   UNL     1      10.580  14.431  19.609  0.00  0.00    +0.000 F 
ATOM     24  F   UNL     1      10.402  13.339  21.482  0.00  0.00    +0.000 F 
ATOM     25  F   UNL     1      12.092  12.971  20.163  0.00  0.00    +0.000 F 
ENDBRANCH  19  22
ENDBRANCH  15  16
ENDBRANCH   1  14
TORSDOF 6
ENDMDL
MODEL 2
REMARK VINA RESULT:      -8.0      0.189      1.265
REMARK  Name = 
REMARK  7 active torsions:
REMARK  status: ('A' for Active; 'I' for Inactive)
REMARK    1  A    between atoms: C_1  and  C_2
REMARK    2  A    between atoms: C_3  and  O_4
REMARK    3  A    between atoms: C_7  and  C_8
REMARK    4  A    between atoms: C_8  and  C_10
REMARK    5  A    between atoms: C_11  and  C_12
REMARK    6  A    between atoms: C_15  and  C_16
REMARK    7  A    between atoms: C_22  and  O_23
REMARK                            x       y       z     vdW  Elec       q    Type
REMARK                         _______ _______ _______ _____ _____    ______ ____
ROOT
ATOM      1  C   UNL     1       7.138   6.661  17.230  0.00  0.00    +0.000 C 
ATOM      2  O   UNL     1       7.652   6.229  16.202  0.00  0.00    +0.000 OA
ENDROOT
BRANCH   1   8
ATOM      3  C   UNL     1       4.339   3.015  19.380  0.00  0.00    +0.000 C 
ATOM      4  C   UNL     1       4.414   4.357  18.703  0.00  0.00    +0.000 A 
ATOM      5  C   UNL     1       3.297   5.154  18.429  0.00  0.00    +0.000 A 
ATOM      6  C   UNL     1       3.434   6.396  17.810  0.00  0.00    +0.000 A 
ATOM      7  C   UNL     1       4.695   6.869  17.449  0.00  0.00    +0.000 A 
ATOM      8  C   UNL     1       5.838   6.099  17.696  0.00  0.00    +0.000 A 
ATOM      9  C   UNL     1       5.680   4.842  18.304  0.00  0.00    +0.000 A 
BRANCH   5  10
ATOM     10  O   UNL     1       2.010   4.800  18.718  0.00  0.00    +0.000 OA
ATOM     11  H   UNL     1       1.620   5.413  19.356  0.00  0.00    +0.000 HD
ENDBRANCH   5  10
BRANCH   9  12
ATOM     12  O   UNL     1       6.748   4.004  18.495  0.00  0.00    +0.000 OA
ATOM     13  H   UNL     1       6.958   3.625  17.622  0.00  0.00    +0.000 HD
ENDBRANCH   9  12
ENDBRANCH   1   8
BRANCH   1  14
ATOM     14  C   UNL     1       7.776   7.745  18.015  0.00  0.00    +0.000 C 
ATOM     15  C   UNL     1       7.845   8.985  17.499  0.00  0.00    +0.000 C 
BRANCH  15  16
ATOM     16  C   UNL     1       8.530  10.067  18.206  0.00  0.00    +0.000 A 
ATOM     17  C   UNL     1       9.192   9.801  19.408  0.00  0.00    +0.000 A 
ATOM     18  C   UNL     1       9.835  10.828  20.105  0.00  0.00    +0.000 A 
ATOM     19  C   UNL     1       9.822  12.140  19.608  0.00  0.00    +0.000 A 
ATOM     20  C   UNL     1       9.156  12.400  18.400  0.00  0.00    +0.000 A 
ATOM     21  C   UNL     1       8.513  11.370  17.704  0.00  0.00    +0.000 A 
BRANCH  19  22
ATOM     22  C   UNL     1      10.509  13.259  20.351  0.00  0.00    +0.000 C 
ATOM     23  F   UNL     1      11.868  13.235  20.241  0.00  0.00    +0.000 F 
ATOM     24  F   UNL     1      10.122  14.490  19.916  0.00  0.00    +0.000 F 
ATOM     25  F   UNL     1      10.246  13.235  21.688  0.00  0.00    +0.000 F 
ENDBRANCH  19  22
ENDBRANCH  15  16
ENDBRANCH   1  14
TORSDOF 6
ENDMDL
MODEL 3
REMARK VINA RESULT:      -7.9      7.956     10.051
REMARK  Name = 
REMARK  7 active torsions:
REMARK  status: ('A' for Active; 'I' for Inactive)
REMARK    1  A    between atoms: C_1  and  C_2
REMARK    2  A    between atoms: C_3  and  O_4
REMARK    3  A    between atoms: C_7  and  C_8
REMARK    4  A    between atoms: C_8  and  C_10
REMARK    5  A    between atoms: C_11  and  C_12
REMARK    6  A    between atoms: C_15  and  C_16
REMARK    7  A    between atoms: C_22  and  O_23
REMARK                            x       y       z     vdW  Elec       q    Type
REMARK                         _______ _______ _______ _____ _____    ______ ____
ROOT
ATOM      1  C   UNL     1       0.882   9.497  21.487  0.00  0.00    +0.000 C 
ATOM      2  O   UNL     1       1.110   9.925  22.614  0.00  0.00    +0.000 OA
ENDROOT
BRANCH   1   8
ATOM      3  C   UNL     1       0.900  13.994  19.138  0.00  0.00    +0.000 C 
ATOM      4  C   UNL     1       0.348  12.599  19.253  0.00  0.00    +0.000 A 
ATOM      5  C   UNL     1      -0.652  12.086  18.419  0.00  0.00    +0.000 A 
ATOM      6  C   UNL     1      -1.112  10.778  18.570  0.00  0.00    +0.000 A 
ATOM      7  C   UNL     1      -0.583   9.953  19.562  0.00  0.00    +0.000 A 
ATOM      8  C   UNL     1       0.412  10.430  20.423  0.00  0.00    +0.000 A 
ATOM      9  C   UNL     1       0.851  11.757  20.270  0.00  0.00    +0.000 A 
BRANCH   5  10
ATOM     10  O   UNL     1      -1.260  12.793  17.423  0.00  0.00    +0.000 OA
ATOM     11  H   UNL     1      -1.581  13.644  17.752  0.00  0.00    +0.000 HD
ENDBRANCH   5  10
BRANCH   9  12
ATOM     12  O   UNL     1       1.759  12.311  21.135  0.00  0.00    +0.000 OA
ATOM     13  H   UNL     1       1.239  12.769  21.821  0.00  0.00    +0.000 HD
ENDBRANCH   9  12
ENDBRANCH   1   8
BRANCH   1  14
ATOM     14  C   UNL     1       1.049   8.060  21.159  0.00  0.00    +0.000 C 
ATOM     15  C   UNL     1       1.969   7.690  20.250  0.00  0.00    +0.000 C 
BRANCH  15  16
ATOM     16  C   UNL     1       2.116   6.292  19.843  0.00  0.00    +0.000 A 
ATOM     17  C   UNL     1       2.484   5.987  18.529  0.00  0.00    +0.000 A 
ATOM     18  C   UNL     1       2.610   4.656  18.121  0.00  0.00    +0.000 A 
ATOM     19  C   UNL     1       2.369   3.610  19.024  0.00  0.00    +0.000 A 
ATOM     20  C   UNL     1       2.001   3.924  20.342  0.00  0.00    +0.000 A 
ATOM     21  C   UNL     1       1.874   5.257  20.749  0.00  0.00    +0.000 A 
BRANCH  19  22
ATOM     22  C   UNL     1       2.498   2.169  18.596  0.00  0.00    +0.000 C 
ATOM     23  F   UNL     1       3.722   1.628  18.860  0.00  0.00    +0.000 F 
ATOM     24  F   UNL     1       1.593   1.358  19.210  0.00  0.00    +0.000 F 
ATOM     25  F   UNL     1       2.302   2.003  17.257  0.00  0.00    +0.000 F 
ENDBRANCH  19  22
ENDBRANCH  15  16
ENDBRANCH   1  14
TORSDOF 6
ENDMDL
MODEL 4
REMARK VINA RESULT:      -7.9      7.889     10.057
REMARK  Name = 
REMARK  7 active torsions:
REMARK  status: ('A' for Active; 'I' for Inactive)
REMARK    1  A    between atoms: C_1  and  C_2
REMARK    2  A    between atoms: C_3  and  O_4
REMARK    3  A    between atoms: C_7  and  C_8
REMARK    4  A    between atoms: C_8  and  C_10
REMARK    5  A    between atoms: C_11  and  C_12
REMARK    6  A    between atoms: C_15  and  C_16
REMARK    7  A    between atoms: C_22  and  O_23
REMARK                            x       y       z     vdW  Elec       q    Type
REMARK                         _______ _______ _______ _____ _____    ______ ____
ROOT
ATOM      1  C   UNL     1       0.878   9.580  21.548  0.00  0.00    +0.000 C 
ATOM      2  O   UNL     1       1.061  10.013  22.682  0.00  0.00    +0.000 OA
ENDROOT
BRANCH   1   8
ATOM      3  C   UNL     1       1.006  14.028  19.110  0.00  0.00    +0.000 C 
ATOM      4  C   UNL     1       0.416  12.652  19.257  0.00  0.00    +0.000 A 
ATOM      5  C   UNL     1      -0.603  12.150  18.439  0.00  0.00    +0.000 A 
ATOM      6  C   UNL     1      -1.098  10.859  18.618  0.00  0.00    +0.000 A 
ATOM      7  C   UNL     1      -0.586  10.039  19.623  0.00  0.00    +0.000 A 
ATOM      8  C   UNL     1       0.427  10.505  20.469  0.00  0.00    +0.000 A 
ATOM      9  C   UNL     1       0.902  11.816  20.287  0.00  0.00    +0.000 A 
BRANCH   5  10
ATOM     10  O   UNL     1      -1.198  12.855  17.432  0.00  0.00    +0.000 OA
ATOM     11  H   UNL     1      -0.534  13.285  16.875  0.00  0.00    +0.000 HD
ENDBRANCH   5  10
BRANCH   9  12
ATOM     12  O   UNL     1       1.830  12.361  21.136  0.00  0.00    +0.000 OA
ATOM     13  H   UNL     1       2.624  12.537  20.597  0.00  0.00    +0.000 HD
ENDBRANCH   9  12
ENDBRANCH   1   8
BRANCH   1  14
ATOM     14  C   UNL     1       1.080   8.146  21.227  0.00  0.00    +0.000 C 
ATOM     15  C   UNL     1       1.869   7.803  20.194  0.00  0.00    +0.000 C 
BRANCH  15  16
ATOM     16  C   UNL     1       2.037   6.405  19.797  0.00  0.00    +0.000 A 
ATOM     17  C   UNL     1       1.695   5.384  20.688  0.00  0.00    +0.000 A 
ATOM     18  C   UNL     1       1.868   4.044  20.329  0.00  0.00    +0.000 A 
ATOM     19  C   UNL     1       2.389   3.707  19.071  0.00  0.00    +0.000 A 
ATOM     20  C   UNL     1       2.730   4.737  18.180  0.00  0.00    +0.000 A 
ATOM     21  C   UNL     1       2.556   6.078  18.541  0.00  0.00    +0.000 A 
BRANCH  19  22
ATOM     22  C   UNL     1       2.584   2.265  18.672  0.00  0.00    +0.000 C 
ATOM     23  F   UNL     1       3.848   1.803  18.895  0.00  0.00    +0.000 F 
ATOM     24  F   UNL     1       1.755   1.419  19.345  0.00  0.00    +0.000 F 
ATOM     25  F   UNL     1       2.341   2.052  17.348  0.00  0.00    +0.000 F 
ENDBRANCH  19  22
ENDBRANCH  15  16
ENDBRANCH   1  14
TORSDOF 6
ENDMDL
MODEL 5
REMARK VINA RESULT:      -7.9      6.619      7.794
REMARK  Name = 
REMARK  7 active torsions:
REMARK  status: ('A' for Active; 'I' for Inactive)
REMARK    1  A    between atoms: C_1  and  C_2
REMARK    2  A    between atoms: C_3  and  O_4
REMARK    3  A    between atoms: C_7  and  C_8
REMARK    4  A    between atoms: C_8  and  C_10
REMARK    5  A    between atoms: C_11  and  C_12
REMARK    6  A    between atoms: C_15  and  C_16
REMARK    7  A    between atoms: C_22  and  O_23
REMARK                            x       y       z     vdW  Elec       q    Type
REMARK                         _______ _______ _______ _____ _____    ______ ____
ROOT
ATOM      1  C   UNL     1       3.135   6.847  18.035  0.00  0.00    +0.000 C 
ATOM      2  O   UNL     1       4.033   7.146  17.254  0.00  0.00    +0.000 OA
ENDROOT
BRANCH   1   8
ATOM      3  C   UNL     1       4.427   2.352  20.002  0.00  0.00    +0.000 C 
ATOM      4  C   UNL     1       3.439   3.193  19.240  0.00  0.00    +0.000 A 
ATOM      5  C   UNL     1       2.231   2.704  18.729  0.00  0.00    +0.000 A 
ATOM      6  C   UNL     1       1.351   3.539  18.041  0.00  0.00    +0.000 A 
ATOM      7  C   UNL     1       1.661   4.885  17.847  0.00  0.00    +0.000 A 
ATOM      8  C   UNL     1       2.863   5.412  18.334  0.00  0.00    +0.000 A 
ATOM      9  C   UNL     1       3.747   4.552  19.008  0.00  0.00    +0.000 A 
BRANCH   5  10
ATOM     10  O   UNL     1       1.819   1.407  18.838  0.00  0.00    +0.000 OA
ATOM     11  H   UNL     1       0.911   1.361  19.166  0.00  0.00    +0.000 HD
ENDBRANCH   5  10
BRANCH   9  12
ATOM     12  O   UNL     1       4.977   4.986  19.433  0.00  0.00    +0.000 OA
ATOM     13  H   UNL     1       5.153   4.527  20.275  0.00  0.00    +0.000 HD
ENDBRANCH   9  12
ENDBRANCH   1   8
BRANCH   1  14
ATOM     14  C   UNL     1       2.297   7.887  18.682  0.00  0.00    +0.000 C 
ATOM     15  C   UNL     1       1.985   7.771  19.984  0.00  0.00    +0.000 C 
BRANCH  15  16
ATOM     16  C   UNL     1       1.102   8.733  20.644  0.00  0.00    +0.000 A 
ATOM     17  C   UNL     1       0.464   9.721  19.888  0.00  0.00    +0.000 A 
ATOM     18  C   UNL     1      -0.368  10.659  20.508  0.00  0.00    +0.000 A 
ATOM     19  C   UNL     1      -0.572  10.621  21.894  0.00  0.00    +0.000 A 
ATOM     20  C   UNL     1       0.071   9.626  22.647  0.00  0.00    +0.000 A 
ATOM     21  C   UNL     1       0.903   8.688  22.026  0.00  0.00    +0.000 A 
BRANCH  19  22
ATOM     22  C   UNL     1      -1.465  11.629  22.576  0.00  0.00    +0.000 C 
ATOM     23  F   UNL     1      -0.792  12.706  23.073  0.00  0.00    +0.000 F 
ATOM     24  F   UNL     1      -2.414  12.136  21.740  0.00  0.00    +0.000 F 
ATOM     25  F   UNL     1      -2.142  11.097  23.632  0.00  0.00    +0.000 F 
ENDBRANCH  19  22
ENDBRANCH  15  16
ENDBRANCH   1  14
TORSDOF 6
ENDMDL
MODEL 6
REMARK VINA RESULT:      -7.8      6.638      7.838
REMARK  Name = 
REMARK  7 active torsions:
REMARK  status: ('A' for Active; 'I' for Inactive)
REMARK    1  A    between atoms: C_1  and  C_2
REMARK    2  A    between atoms: C_3  and  O_4
REMARK    3  A    between atoms: C_7  and  C_8
REMARK    4  A    between atoms: C_8  and  C_10
REMARK    5  A    between atoms: C_11  and  C_12
REMARK    6  A    between atoms: C_15  and  C_16
REMARK    7  A    between atoms: C_22  and  O_23
REMARK                            x       y       z     vdW  Elec       q    Type
REMARK                         _______ _______ _______ _____ _____    ______ ____
ROOT
ATOM      1  C   UNL     1       3.130   6.812  18.052  0.00  0.00    +0.000 C 
ATOM      2  O   UNL     1       4.026   7.093  17.261  0.00  0.00    +0.000 OA
ENDROOT
BRANCH   1   8
ATOM      3  C   UNL     1       4.409   2.327  20.051  0.00  0.00    +0.000 C 
ATOM      4  C   UNL     1       3.418   3.168  19.293  0.00  0.00    +0.000 A 
ATOM      5  C   UNL     1       2.198   2.685  18.805  0.00  0.00    +0.000 A 
ATOM      6  C   UNL     1       1.316   3.521  18.120  0.00  0.00    +0.000 A 
ATOM      7  C   UNL     1       1.636   4.861  17.907  0.00  0.00    +0.000 A 
ATOM      8  C   UNL     1       2.849   5.383  18.371  0.00  0.00    +0.000 A 
ATOM      9  C   UNL     1       3.735   4.522  19.042  0.00  0.00    +0.000 A 
BRANCH   5  10
ATOM     10  O   UNL     1       1.776   1.393  18.935  0.00  0.00    +0.000 OA
ATOM     11  H   UNL     1       1.715   1.143  19.867  0.00  0.00    +0.000 HD
ENDBRANCH   5  10
BRANCH   9  12
ATOM     12  O   UNL     1       4.975   4.949  19.444  0.00  0.00    +0.000 OA
ATOM     13  H   UNL     1       4.890   5.903  19.623  0.00  0.00    +0.000 HD
ENDBRANCH   9  12
ENDBRANCH   1   8
BRANCH   1  14
ATOM     14  C   UNL     1       2.305   7.866  18.691  0.00  0.00    +0.000 C 
ATOM     15  C   UNL     1       2.013   7.777  20.000  0.00  0.00    +0.000 C 
BRANCH  15  16
ATOM     16  C   UNL     1       1.141   8.754  20.654  0.00  0.00    +0.000 A 
ATOM     17  C   UNL     1       1.030   8.763  22.047  0.00  0.00    +0.000 A 
ATOM     18  C   UNL     1       0.187   9.679  22.683  0.00  0.00    +0.000 A 
ATOM     19  C   UNL     1      -0.559  10.599  21.932  0.00  0.00    +0.000 A 
ATOM     20  C   UNL     1      -0.442  10.584  20.533  0.00  0.00    +0.000 A 
ATOM     21  C   UNL     1       0.402   9.667  19.897  0.00  0.00    +0.000 A 
BRANCH  19  22
ATOM     22  C   UNL     1      -1.476  11.589  22.606  0.00  0.00    +0.000 C 
ATOM     23  F   UNL     1      -2.346  12.198  21.751  0.00  0.00    +0.000 F 
ATOM     24  F   UNL     1      -2.245  11.017  23.574  0.00  0.00    +0.000 F 
ATOM     25  F   UNL     1      -0.794  12.598  23.219  0.00  0.00    +0.000 F 
ENDBRANCH  19  22
ENDBRANCH  15  16
ENDBRANCH   1  14
TORSDOF 6
ENDMDL
MODEL 7
REMARK VINA RESULT:      -7.7      0.740      1.089
REMARK  Name = 
REMARK  7 active torsions:
REMARK  status: ('A' for Active; 'I' for Inactive)
REMARK    1  A    between atoms: C_1  and  C_2
REMARK    2  A    between atoms: C_3  and  O_4
REMARK    3  A    between atoms: C_7  and  C_8
REMARK    4  A    between atoms: C_8  and  C_10
REMARK    5  A    between atoms: C_11  and  C_12
REMARK    6  A    between atoms: C_15  and  C_16
REMARK    7  A    between atoms: C_22  and  O_23
REMARK                            x       y       z     vdW  Elec       q    Type
REMARK                         _______ _______ _______ _____ _____    ______ ____
ROOT
ATOM      1  C   UNL     1       7.005   6.529  16.943  0.00  0.00    +0.000 C 
ATOM      2  O   UNL     1       7.568   6.103  15.940  0.00  0.00    +0.000 OA
ENDROOT
BRANCH   1   8
ATOM      3  C   UNL     1       3.681   2.762  17.653  0.00  0.00    +0.000 C 
ATOM      4  C   UNL     1       3.979   4.237  17.641  0.00  0.00    +0.000 A 
ATOM      5  C   UNL     1       3.030   5.225  17.924  0.00  0.00    +0.000 A 
ATOM      6  C   UNL     1       3.373   6.577  17.908  0.00  0.00    +0.000 A 
ATOM      7  C   UNL     1       4.676   6.971  17.605  0.00  0.00    +0.000 A 
ATOM      8  C   UNL     1       5.653   6.015  17.306  0.00  0.00    +0.000 A 
ATOM      9  C   UNL     1       5.286   4.658  17.308  0.00  0.00    +0.000 A 
BRANCH   5  10
ATOM     10  O   UNL     1       1.721   4.972  18.221  0.00  0.00    +0.000 OA
ATOM     11  H   UNL     1       1.314   5.733  18.657  0.00  0.00    +0.000 HD
ENDBRANCH   5  10
BRANCH   9  12
ATOM     12  O   UNL     1       6.174   3.680  16.940  0.00  0.00    +0.000 OA
ATOM     13  H   UNL     1       6.932   4.138  16.534  0.00  0.00    +0.000 HD
ENDBRANCH   9  12
ENDBRANCH   1   8
BRANCH   1  14
ATOM     14  C   UNL     1       7.634   7.563  17.801  0.00  0.00    +0.000 C 
ATOM     15  C   UNL     1       7.758   8.820  17.340  0.00  0.00    +0.000 C 
BRANCH  15  16
ATOM     16  C   UNL     1       8.438   9.854  18.122  0.00  0.00    +0.000 A 
ATOM     17  C   UNL     1       8.471  11.170  17.654  0.00  0.00    +0.000 A 
ATOM     18  C   UNL     1       9.133  12.163  18.381  0.00  0.00    +0.000 A 
ATOM     19  C   UNL     1       9.775  11.852  19.588  0.00  0.00    +0.000 A 
ATOM     20  C   UNL     1       9.737  10.528  20.054  0.00  0.00    +0.000 A 
ATOM     21  C   UNL     1       9.074   9.534  19.324  0.00  0.00    +0.000 A 
BRANCH  19  22
ATOM     22  C   UNL     1      10.496  12.913  20.381  0.00  0.00    +0.000 C 
ATOM     23  F   UNL     1      10.148  12.942  21.700  0.00  0.00    +0.000 F 
ATOM     24  F   UNL     1      11.849  12.755  20.358  0.00  0.00    +0.000 F 
ATOM     25  F   UNL     1      10.258  14.169  19.909  0.00  0.00    +0.000 F 
ENDBRANCH  19  22
ENDBRANCH  15  16
ENDBRANCH   1  14
TORSDOF 6
ENDMDL
MODEL 8
REMARK VINA RESULT:      -7.7      0.752      1.165
REMARK  Name = 
REMARK  7 active torsions:
REMARK  status: ('A' for Active; 'I' for Inactive)
REMARK    1  A    between atoms: C_1  and  C_2
REMARK    2  A    between atoms: C_3  and  O_4
REMARK    3  A    between atoms: C_7  and  C_8
REMARK    4  A    between atoms: C_8  and  C_10
REMARK    5  A    between atoms: C_11  and  C_12
REMARK    6  A    between atoms: C_15  and  C_16
REMARK    7  A    between atoms: C_22  and  O_23
REMARK                            x       y       z     vdW  Elec       q    Type
REMARK                         _______ _______ _______ _____ _____    ______ ____
ROOT
ATOM      1  C   UNL     1       6.935   6.615  17.050  0.00  0.00    +0.000 C 
ATOM      2  O   UNL     1       7.609   5.868  16.347  0.00  0.00    +0.000 OA
ENDROOT
BRANCH   1   8
ATOM      3  C   UNL     1       4.293   3.118  19.606  0.00  0.00    +0.000 C 
ATOM      4  C   UNL     1       4.329   4.439  18.885  0.00  0.00    +0.000 A 
ATOM      5  C   UNL     1       3.211   5.263  18.712  0.00  0.00    +0.000 A 
ATOM      6  C   UNL     1       3.313   6.483  18.045  0.00  0.00    +0.000 A 
ATOM      7  C   UNL     1       4.539   6.906  17.532  0.00  0.00    +0.000 A 
ATOM      8  C   UNL     1       5.680   6.108  17.674  0.00  0.00    +0.000 A 
ATOM      9  C   UNL     1       5.555   4.873  18.333  0.00  0.00    +0.000 A 
BRANCH   5  10
ATOM     10  O   UNL     1       1.955   4.957  19.153  0.00  0.00    +0.000 OA
ATOM     11  H   UNL     1       1.492   4.400  18.512  0.00  0.00    +0.000 HD
ENDBRANCH   5  10
BRANCH   9  12
ATOM     12  O   UNL     1       6.615   4.007  18.430  0.00  0.00    +0.000 OA
ATOM     13  H   UNL     1       6.279   3.214  18.887  0.00  0.00    +0.000 HD
ENDBRANCH   9  12
ENDBRANCH   1   8
BRANCH   1  14
ATOM     14  C   UNL     1       7.334   8.025  17.281  0.00  0.00    +0.000 C 
ATOM     15  C   UNL     1       8.300   8.303  18.174  0.00  0.00    +0.000 C 
BRANCH  15  16
ATOM     16  C   UNL     1       8.673   9.683  18.487  0.00  0.00    +0.000 A 
ATOM     17  C   UNL     1       8.287  10.718  17.631  0.00  0.00    +0.000 A 
ATOM     18  C   UNL     1       8.653  12.038  17.907  0.00  0.00    +0.000 A 
ATOM     19  C   UNL     1       9.412  12.342  19.046  0.00  0.00    +0.000 A 
ATOM     20  C   UNL     1       9.796  11.297  19.903  0.00  0.00    +0.000 A 
ATOM     21  C   UNL     1       9.430   9.976  19.624  0.00  0.00    +0.000 A 
BRANCH  19  22
ATOM     22  C   UNL     1       9.817  13.762  19.355  0.00  0.00    +0.000 C 
ATOM     23  F   UNL     1       9.958  14.013  20.688  0.00  0.00    +0.000 F 
ATOM     24  F   UNL     1      11.006  14.103  18.784  0.00  0.00    +0.000 F 
ATOM     25  F   UNL     1       8.910  14.673  18.902  0.00  0.00    +0.000 F 
ENDBRANCH  19  22
ENDBRANCH  15  16
ENDBRANCH   1  14
TORSDOF 6
ENDMDL
MODEL 9
REMARK VINA RESULT:      -7.6      0.664      1.263
REMARK  Name = 
REMARK  7 active torsions:
REMARK  status: ('A' for Active; 'I' for Inactive)
REMARK    1  A    between atoms: C_1  and  C_2
REMARK    2  A    between atoms: C_3  and  O_4
REMARK    3  A    between atoms: C_7  and  C_8
REMARK    4  A    between atoms: C_8  and  C_10
REMARK    5  A    between atoms: C_11  and  C_12
REMARK    6  A    between atoms: C_15  and  C_16
REMARK    7  A    between atoms: C_22  and  O_23
REMARK                            x       y       z     vdW  Elec       q    Type
REMARK                         _______ _______ _______ _____ _____    ______ ____
ROOT
ATOM      1  C   UNL     1       6.826   6.893  17.169  0.00  0.00    +0.000 C 
ATOM      2  O   UNL     1       7.536   6.304  16.360  0.00  0.00    +0.000 OA
ENDROOT
BRANCH   1   8
ATOM      3  C   UNL     1       4.444   3.036  19.449  0.00  0.00    +0.000 C 
ATOM      4  C   UNL     1       4.375   4.377  18.770  0.00  0.00    +0.000 A 
ATOM      5  C   UNL     1       3.183   5.077  18.549  0.00  0.00    +0.000 A 
ATOM      6  C   UNL     1       3.188   6.324  17.925  0.00  0.00    +0.000 A 
ATOM      7  C   UNL     1       4.387   6.899  17.504  0.00  0.00    +0.000 A 
ATOM      8  C   UNL     1       5.600   6.227  17.697  0.00  0.00    +0.000 A 
ATOM      9  C   UNL     1       5.576   4.963  18.311  0.00  0.00    +0.000 A 
BRANCH   5  10
ATOM     10  O   UNL     1       1.946   4.619  18.899  0.00  0.00    +0.000 OA
ATOM     11  H   UNL     1       1.421   5.323  19.304  0.00  0.00    +0.000 HD
ENDBRANCH   5  10
BRANCH   9  12
ATOM     12  O   UNL     1       6.718   4.218  18.451  0.00  0.00    +0.000 OA
ATOM     13  H   UNL     1       7.452   4.783  18.148  0.00  0.00    +0.000 HD
ENDBRANCH   9  12
ENDBRANCH   1   8
BRANCH   1  14
ATOM     14  C   UNL     1       7.151   8.266  17.626  0.00  0.00    +0.000 C 
ATOM     15  C   UNL     1       8.423   8.582  17.923  0.00  0.00    +0.000 C 
BRANCH  15  16
ATOM     16  C   UNL     1       8.777   9.901  18.447  0.00  0.00    +0.000 A 
ATOM     17  C   UNL     1       9.301  10.019  19.737  0.00  0.00    +0.000 A 
ATOM     18  C   UNL     1       9.626  11.276  20.257  0.00  0.00    +0.000 A 
ATOM     19  C   UNL     1       9.429  12.434  19.491  0.00  0.00    +0.000 A 
ATOM     20  C   UNL     1       8.903  12.309  18.196  0.00  0.00    +0.000 A 
ATOM     21  C   UNL     1       8.578  11.050  17.677  0.00  0.00    +0.000 A 
BRANCH  19  22
ATOM     22  C   UNL     1       9.772  13.796  20.042  0.00  0.00    +0.000 C 
ATOM     23  F   UNL     1       8.694  14.622  20.168  0.00  0.00    +0.000 F 
ATOM     24  F   UNL     1      10.339  13.733  21.279  0.00  0.00    +0.000 F 
ATOM     25  F   UNL     1      10.662  14.467  19.257  0.00  0.00    +0.000 F 
ENDBRANCH  19  22
ENDBRANCH  15  16
ENDBRANCH   1  14
TORSDOF 6
ENDMDL
