MODEL 1
REMARK VINA RESULT:      -7.6      0.000      0.000
REMARK  Name = 
REMARK  4 active torsions:
REMARK  status: ('A' for Active; 'I' for Inactive)
REMARK    1  A    between atoms: C_2  and  C_4
REMARK    2  A    between atoms: N_12  and  C_13
REMARK    3  A    between atoms: N_16  and  C_17
REMARK    4  A    between atoms: C_17  and  C_18
REMARK                            x       y       z     vdW  Elec       q    Type
REMARK                         _______ _______ _______ _____ _____    ______ ____
ROOT
ATOM      1  C   UNL     1       1.206   9.007  20.349  0.00  0.00    +0.000 A 
ATOM      2  C   UNL     1       1.153  10.234  19.656  0.00  0.00    +0.000 A 
ATOM      3  C   UNL     1       1.634  10.355  18.338  0.00  0.00    +0.000 A 
ATOM      4  C   UNL     1       2.169   9.250  17.679  0.00  0.00    +0.000 A 
ATOM      5  C   UNL     1       2.207   8.041  18.356  0.00  0.00    +0.000 A 
ATOM      6  C   UNL     1       1.744   7.924  19.675  0.00  0.00    +0.000 A 
ATOM      7  C   UNL     1       1.927   6.515  20.062  0.00  0.00    +0.000 C 
ATOM      8  O   UNL     1       1.669   6.037  21.154  0.00  0.00    +0.000 OA
ATOM      9  N   UNL     1       2.477   5.844  18.983  0.00  0.00    +0.000 N 
ATOM     10  C   UNL     1       2.686   6.726  17.850  0.00  0.00    +0.000 C 
ENDROOT
BRANCH   9  11
ATOM     11  C   UNL     1       2.788   4.408  19.015  0.00  0.00    +0.000 C 
ATOM     12  C   UNL     1       4.094   4.045  19.711  0.00  0.00    +0.000 C 
ATOM     13  C   UNL     1       5.325   4.348  18.864  0.00  0.00    +0.000 C 
ATOM     14  N   UNL     1       5.277   3.842  17.485  0.00  0.00    +0.000 NA
ATOM     15  C   UNL     1       3.991   4.066  16.802  0.00  0.00    +0.000 C 
ATOM     16  C   UNL     1       2.752   3.749  17.636  0.00  0.00    +0.000 C 
BRANCH  14  17
ATOM     17  C   UNL     1       6.358   4.446  16.665  0.00  0.00    +0.000 C 
BRANCH  17  18
ATOM     18  C   UNL     1       6.908   5.673  17.313  0.00  0.00    +0.000 A 
ATOM     19  C   UNL     1       6.639   7.033  16.982  0.00  0.00    +0.000 A 
ATOM     20  C   UNL     1       7.435   7.799  17.798  0.00  0.00    +0.000 A 
ATOM     21  O   UNL     1       8.148   7.011  18.643  0.00  0.00    +0.000 OA
ATOM     22  C   UNL     1       7.817   5.727  18.354  0.00  0.00    +0.000 A 
ENDBRANCH  17  18
ENDBRANCH  14  17
ENDBRANCH   9  11
BRANCH   1  24
ATOM     23  N   UNL     1      -0.559   8.361  21.930  0.00  0.00    +0.000 N 
ATOM     24  C   UNL     1       0.636   8.979  21.718  0.00  0.00    +0.000 C 
ATOM     25  O   UNL     1       1.249   9.485  22.653  0.00  0.00    +0.000 OA
ATOM     26  H   UNL     1      -0.984   8.516  22.834  0.00  0.00    +0.000 HD
ATOM     27  H   UNL     1      -1.217   8.209  21.168  0.00  0.00    +0.000 HD
ENDBRANCH   1  24
TORSDOF 4
ENDMDL
MODEL 2
REMARK VINA RESULT:      -7.6      2.352      4.297
REMARK  Name = 
REMARK  4 active torsions:
REMARK  status: ('A' for Active; 'I' for Inactive)
REMARK    1  A    between atoms: C_2  and  C_4
REMARK    2  A    between atoms: N_12  and  C_13
REMARK    3  A    between atoms: N_16  and  C_17
REMARK    4  A    between atoms: C_17  and  C_18
REMARK                            x       y       z     vdW  Elec       q    Type
REMARK                         _______ _______ _______ _____ _____    ______ ____
ROOT
ATOM      1  C   UNL     1       1.010   9.296  19.386  0.00  0.00    +0.000 A 
ATOM      2  C   UNL     1       0.198   9.362  20.537  0.00  0.00    +0.000 A 
ATOM      3  C   UNL     1       0.232   8.353  21.518  0.00  0.00    +0.000 A 
ATOM      4  C   UNL     1       1.086   7.262  21.377  0.00  0.00    +0.000 A 
ATOM      5  C   UNL     1       1.895   7.205  20.253  0.00  0.00    +0.000 A 
ATOM      6  C   UNL     1       1.848   8.201  19.266  0.00  0.00    +0.000 A 
ATOM      7  C   UNL     1       2.836   7.823  18.240  0.00  0.00    +0.000 C 
ATOM      8  O   UNL     1       3.057   8.432  17.208  0.00  0.00    +0.000 OA
ATOM      9  N   UNL     1       3.434   6.641  18.640  0.00  0.00    +0.000 N 
ATOM     10  C   UNL     1       2.909   6.173  19.909  0.00  0.00    +0.000 C 
ENDROOT
BRANCH   9  11
ATOM     11  C   UNL     1       4.481   5.975  17.851  0.00  0.00    +0.000 C 
ATOM     12  C   UNL     1       3.975   5.113  16.702  0.00  0.00    +0.000 C 
ATOM     13  C   UNL     1       3.400   3.780  17.165  0.00  0.00    +0.000 C 
ATOM     14  N   UNL     1       4.250   3.018  18.091  0.00  0.00    +0.000 NA
ATOM     15  C   UNL     1       4.860   3.829  19.160  0.00  0.00    +0.000 C 
ATOM     16  C   UNL     1       5.454   5.159  18.703  0.00  0.00    +0.000 C 
BRANCH  14  17
ATOM     17  C   UNL     1       3.485   1.909  18.718  0.00  0.00    +0.000 C 
BRANCH  17  18
ATOM     18  C   UNL     1       2.722   2.385  19.909  0.00  0.00    +0.000 A 
ATOM     19  C   UNL     1       1.374   2.845  19.958  0.00  0.00    +0.000 A 
ATOM     20  C   UNL     1       1.145   3.250  21.250  0.00  0.00    +0.000 A 
ATOM     21  O   UNL     1       2.244   3.033  22.018  0.00  0.00    +0.000 OA
ATOM     22  C   UNL     1       3.190   2.500  21.205  0.00  0.00    +0.000 A 
ENDBRANCH  17  18
ENDBRANCH  14  17
ENDBRANCH   9  11
BRANCH   1  24
ATOM     23  N   UNL     1      -0.228  10.635  17.740  0.00  0.00    +0.000 N 
ATOM     24  C   UNL     1       0.926  10.430  18.434  0.00  0.00    +0.000 C 
ATOM     25  O   UNL     1       1.880  11.191  18.293  0.00  0.00    +0.000 OA
ATOM     26  H   UNL     1      -0.179  11.306  16.986  0.00  0.00    +0.000 HD
ATOM     27  H   UNL     1      -0.900   9.882  17.600  0.00  0.00    +0.000 HD
ENDBRANCH   1  24
TORSDOF 4
ENDMDL
MODEL 3
REMARK VINA RESULT:      -7.3      2.109      2.621
REMARK  Name = 
REMARK  4 active torsions:
REMARK  status: ('A' for Active; 'I' for Inactive)
REMARK    1  A    between atoms: C_2  and  C_4
REMARK    2  A    between atoms: N_12  and  C_13
REMARK    3  A    between atoms: N_16  and  C_17
REMARK    4  A    between atoms: C_17  and  C_18
REMARK                            x       y       z     vdW  Elec       q    Type
REMARK                         _______ _______ _______ _____ _____    ______ ____
ROOT
ATOM      1  C   UNL     1       1.208   8.815  20.229  0.00  0.00    +0.000 A 
ATOM      2  C   UNL     1       0.916  10.042  19.599  0.00  0.00    +0.000 A 
ATOM      3  C   UNL     1       1.373  10.327  18.298  0.00  0.00    +0.000 A 
ATOM      4  C   UNL     1       2.122   9.387  17.593  0.00  0.00    +0.000 A 
ATOM      5  C   UNL     1       2.396   8.175  18.208  0.00  0.00    +0.000 A 
ATOM      6  C   UNL     1       1.956   7.898  19.511  0.00  0.00    +0.000 A 
ATOM      7  C   UNL     1       2.414   6.535  19.829  0.00  0.00    +0.000 C 
ATOM      8  O   UNL     1       2.248   5.958  20.890  0.00  0.00    +0.000 OA
ATOM      9  N   UNL     1       3.094   6.046  18.727  0.00  0.00    +0.000 N 
ATOM     10  C   UNL     1       3.130   7.011  17.644  0.00  0.00    +0.000 C 
ENDROOT
BRANCH   9  11
ATOM     11  C   UNL     1       3.686   4.700  18.691  0.00  0.00    +0.000 C 
ATOM     12  C   UNL     1       5.133   4.618  19.159  0.00  0.00    +0.000 C 
ATOM     13  C   UNL     1       6.124   5.140  18.125  0.00  0.00    +0.000 C 
ATOM     14  N   UNL     1       5.953   4.605  16.767  0.00  0.00    +0.000 NA
ATOM     15  C   UNL     1       4.554   4.555  16.307  0.00  0.00    +0.000 C 
ATOM     16  C   UNL     1       3.556   4.017  17.330  0.00  0.00    +0.000 C 
BRANCH  14  17
ATOM     17  C   UNL     1       6.745   5.392  15.787  0.00  0.00    +0.000 C 
BRANCH  17  18
ATOM     18  C   UNL     1       6.689   4.777  14.428  0.00  0.00    +0.000 A 
ATOM     19  C   UNL     1       5.744   3.831  13.934  0.00  0.00    +0.000 A 
ATOM     20  C   UNL     1       6.149   3.501  12.663  0.00  0.00    +0.000 A 
ATOM     21  O   UNL     1       7.255   4.209  12.318  0.00  0.00    +0.000 OA
ATOM     22  C   UNL     1       7.571   4.987  13.384  0.00  0.00    +0.000 A 
ENDBRANCH  17  18
ENDBRANCH  14  17
ENDBRANCH   9  11
BRANCH   1  24
ATOM     23  N   UNL     1       1.451   8.750  22.672  0.00  0.00    +0.000 N 
ATOM     24  C   UNL     1       0.645   8.601  21.585  0.00  0.00    +0.000 C 
ATOM     25  O   UNL     1      -0.541   8.317  21.724  0.00  0.00    +0.000 OA
ATOM     26  H   UNL     1       1.072   8.429  23.553  0.00  0.00    +0.000 HD
ATOM     27  H   UNL     1       2.464   8.681  22.592  0.00  0.00    +0.000 HD
ENDBRANCH   1  24
TORSDOF 4
ENDMDL
MODEL 4
REMARK VINA RESULT:      -7.2      1.440      1.923
REMARK  Name = 
REMARK  4 active torsions:
REMARK  status: ('A' for Active; 'I' for Inactive)
REMARK    1  A    between atoms: C_2  and  C_4
REMARK    2  A    between atoms: N_12  and  C_13
REMARK    3  A    between atoms: N_16  and  C_17
REMARK    4  A    between atoms: C_17  and  C_18
REMARK                            x       y       z     vdW  Elec       q    Type
REMARK                         _______ _______ _______ _____ _____    ______ ____
ROOT
ATOM      1  C   UNL     1       1.153   9.224  20.497  0.00  0.00    +0.000 A 
ATOM      2  C   UNL     1       1.129  10.477  19.851  0.00  0.00    +0.000 A 
ATOM      3  C   UNL     1       1.582  10.629  18.526  0.00  0.00    +0.000 A 
ATOM      4  C   UNL     1       2.058   9.530  17.814  0.00  0.00    +0.000 A 
ATOM      5  C   UNL     1       2.068   8.296  18.446  0.00  0.00    +0.000 A 
ATOM      6  C   UNL     1       1.633   8.147  19.771  0.00  0.00    +0.000 A 
ATOM      7  C   UNL     1       1.773   6.719  20.102  0.00  0.00    +0.000 C 
ATOM      8  O   UNL     1       1.524   6.212  21.183  0.00  0.00    +0.000 OA
ATOM      9  N   UNL     1       2.271   6.069  18.986  0.00  0.00    +0.000 N 
ATOM     10  C   UNL     1       2.484   6.985  17.880  0.00  0.00    +0.000 C 
ENDROOT
BRANCH   9  11
ATOM     11  C   UNL     1       2.529   4.622  18.958  0.00  0.00    +0.000 C 
ATOM     12  C   UNL     1       3.644   4.147  19.880  0.00  0.00    +0.000 C 
ATOM     13  C   UNL     1       5.036   4.461  19.343  0.00  0.00    +0.000 C 
ATOM     14  N   UNL     1       5.272   4.068  17.947  0.00  0.00    +0.000 NA
ATOM     15  C   UNL     1       4.169   4.403  17.029  0.00  0.00    +0.000 C 
ATOM     16  C   UNL     1       2.772   4.077  17.551  0.00  0.00    +0.000 C 
BRANCH  14  17
ATOM     17  C   UNL     1       6.520   4.686  17.430  0.00  0.00    +0.000 C 
BRANCH  17  18
ATOM     18  C   UNL     1       6.562   4.653  15.938  0.00  0.00    +0.000 A 
ATOM     19  C   UNL     1       6.198   3.578  15.076  0.00  0.00    +0.000 A 
ATOM     20  C   UNL     1       6.483   3.988  13.796  0.00  0.00    +0.000 A 
ATOM     21  O   UNL     1       6.959   5.260  13.801  0.00  0.00    +0.000 OA
ATOM     22  C   UNL     1       6.994   5.661  15.096  0.00  0.00    +0.000 A 
ENDBRANCH  17  18
ENDBRANCH  14  17
ENDBRANCH   9  11
BRANCH   1  24
ATOM     23  N   UNL     1      -0.605   8.605  22.097  0.00  0.00    +0.000 N 
ATOM     24  C   UNL     1       0.616   9.166  21.879  0.00  0.00    +0.000 C 
ATOM     25  O   UNL     1       1.280   9.596  22.818  0.00  0.00    +0.000 OA
ATOM     26  H   UNL     1      -0.999   8.743  23.018  0.00  0.00    +0.000 HD
ATOM     27  H   UNL     1      -1.290   8.524  21.347  0.00  0.00    +0.000 HD
ENDBRANCH   1  24
TORSDOF 4
ENDMDL
MODEL 5
REMARK VINA RESULT:      -6.8      6.827      9.546
REMARK  Name = 
REMARK  4 active torsions:
REMARK  status: ('A' for Active; 'I' for Inactive)
REMARK    1  A    between atoms: C_2  and  C_4
REMARK    2  A    between atoms: N_12  and  C_13
REMARK    3  A    between atoms: N_16  and  C_17
REMARK    4  A    between atoms: C_17  and  C_18
REMARK                            x       y       z     vdW  Elec       q    Type
REMARK                         _______ _______ _______ _____ _____    ______ ____
ROOT
ATOM      1  C   UNL     1      -6.583  12.669  22.275  0.00  0.00    +0.000 A 
ATOM      2  C   UNL     1      -7.337  12.854  21.097  0.00  0.00    +0.000 A 
ATOM      3  C   UNL     1      -6.715  13.093  19.857  0.00  0.00    +0.000 A 
ATOM      4  C   UNL     1      -5.325  13.140  19.763  0.00  0.00    +0.000 A 
ATOM      5  C   UNL     1      -4.585  12.944  20.919  0.00  0.00    +0.000 A 
ATOM      6  C   UNL     1      -5.205  12.724  22.158  0.00  0.00    +0.000 A 
ATOM      7  C   UNL     1      -4.124  12.549  23.143  0.00  0.00    +0.000 C 
ATOM      8  O   UNL     1      -4.275  12.370  24.340  0.00  0.00    +0.000 OA
ATOM      9  N   UNL     1      -2.917  12.661  22.476  0.00  0.00    +0.000 N 
ATOM     10  C   UNL     1      -3.105  12.906  21.059  0.00  0.00    +0.000 C 
ENDROOT
BRANCH   9  11
ATOM     11  C   UNL     1      -1.619  12.531  23.156  0.00  0.00    +0.000 C 
ATOM     12  C   UNL     1      -0.568  13.552  22.741  0.00  0.00    +0.000 C 
ATOM     13  C   UNL     1       0.053  13.251  21.382  0.00  0.00    +0.000 C 
ATOM     14  N   UNL     1       0.524  11.871  21.200  0.00  0.00    +0.000 NA
ATOM     15  C   UNL     1      -0.409  10.842  21.691  0.00  0.00    +0.000 C 
ATOM     16  C   UNL     1      -1.023  11.126  23.060  0.00  0.00    +0.000 C 
BRANCH  14  17
ATOM     17  C   UNL     1       0.817  11.599  19.770  0.00  0.00    +0.000 C 
BRANCH  17  18
ATOM     18  C   UNL     1      -0.438  11.371  18.995  0.00  0.00    +0.000 A 
ATOM     19  C   UNL     1      -1.167  12.314  18.212  0.00  0.00    +0.000 A 
ATOM     20  C   UNL     1      -2.290  11.664  17.761  0.00  0.00    +0.000 A 
ATOM     21  O   UNL     1      -2.287  10.371  18.173  0.00  0.00    +0.000 OA
ATOM     22  C   UNL     1      -1.161  10.195  18.909  0.00  0.00    +0.000 A 
ENDBRANCH  17  18
ENDBRANCH  14  17
ENDBRANCH   9  11
BRANCH   1  24
ATOM     23  N   UNL     1      -7.426  13.347  24.480  0.00  0.00    +0.000 N 
ATOM     24  C   UNL     1      -7.335  12.384  23.521  0.00  0.00    +0.000 C 
ATOM     25  O   UNL     1      -7.891  11.300  23.673  0.00  0.00    +0.000 OA
ATOM     26  H   UNL     1      -7.796  13.051  25.372  0.00  0.00    +0.000 HD
ATOM     27  H   UNL     1      -6.752  14.109  24.528  0.00  0.00    +0.000 HD
ENDBRANCH   1  24
TORSDOF 4
ENDMDL
MODEL 6
REMARK VINA RESULT:      -6.8      3.268      7.923
REMARK  Name = 
REMARK  4 active torsions:
REMARK  status: ('A' for Active; 'I' for Inactive)
REMARK    1  A    between atoms: C_2  and  C_4
REMARK    2  A    between atoms: N_12  and  C_13
REMARK    3  A    between atoms: N_16  and  C_17
REMARK    4  A    between atoms: C_17  and  C_18
REMARK                            x       y       z     vdW  Elec       q    Type
REMARK                         _______ _______ _______ _____ _____    ______ ____
ROOT
ATOM      1  C   UNL     1       7.359   4.958  12.937  0.00  0.00    +0.000 A 
ATOM      2  C   UNL     1       6.859   4.079  11.954  0.00  0.00    +0.000 A 
ATOM      3  C   UNL     1       5.856   3.137  12.253  0.00  0.00    +0.000 A 
ATOM      4  C   UNL     1       5.322   3.060  13.537  0.00  0.00    +0.000 A 
ATOM      5  C   UNL     1       5.803   3.935  14.499  0.00  0.00    +0.000 A 
ATOM      6  C   UNL     1       6.815   4.861  14.206  0.00  0.00    +0.000 A 
ATOM      7  C   UNL     1       7.062   5.619  15.445  0.00  0.00    +0.000 C 
ATOM      8  O   UNL     1       7.900   6.493  15.589  0.00  0.00    +0.000 OA
ATOM      9  N   UNL     1       6.204   5.137  16.418  0.00  0.00    +0.000 N 
ATOM     10  C   UNL     1       5.360   4.071  15.913  0.00  0.00    +0.000 C 
ENDROOT
BRANCH   9  11
ATOM     11  C   UNL     1       6.174   5.674  17.786  0.00  0.00    +0.000 C 
ATOM     12  C   UNL     1       5.765   4.677  18.863  0.00  0.00    +0.000 C 
ATOM     13  C   UNL     1       4.266   4.400  18.880  0.00  0.00    +0.000 C 
ATOM     14  N   UNL     1       3.408   5.594  18.881  0.00  0.00    +0.000 NA
ATOM     15  C   UNL     1       3.828   6.642  17.935  0.00  0.00    +0.000 C 
ATOM     16  C   UNL     1       5.326   6.939  17.922  0.00  0.00    +0.000 C 
BRANCH  14  17
ATOM     17  C   UNL     1       1.998   5.230  18.585  0.00  0.00    +0.000 C 
BRANCH  17  18
ATOM     18  C   UNL     1       1.554   4.072  19.416  0.00  0.00    +0.000 A 
ATOM     19  C   UNL     1       1.431   4.009  20.835  0.00  0.00    +0.000 A 
ATOM     20  C   UNL     1       1.067   2.719  21.139  0.00  0.00    +0.000 A 
ATOM     21  O   UNL     1       0.915   1.989  20.005  0.00  0.00    +0.000 OA
ATOM     22  C   UNL     1       1.198   2.814  18.966  0.00  0.00    +0.000 A 
ENDBRANCH  17  18
ENDBRANCH  14  17
ENDBRANCH   9  11
BRANCH   1  24
ATOM     23  N   UNL     1       9.555   6.025  13.200  0.00  0.00    +0.000 N 
ATOM     24  C   UNL     1       8.386   5.938  12.508  0.00  0.00    +0.000 C 
ATOM     25  O   UNL     1       8.192   6.644  11.522  0.00  0.00    +0.000 OA
ATOM     26  H   UNL     1      10.144   6.816  12.979  0.00  0.00    +0.000 HD
ATOM     27  H   UNL     1       9.625   5.695  14.161  0.00  0.00    +0.000 HD
ENDBRANCH   1  24
TORSDOF 4
ENDMDL
MODEL 7
REMARK VINA RESULT:      -6.8      2.224      6.118
REMARK  Name = 
REMARK  4 active torsions:
REMARK  status: ('A' for Active; 'I' for Inactive)
REMARK    1  A    between atoms: C_2  and  C_4
REMARK    2  A    between atoms: N_12  and  C_13
REMARK    3  A    between atoms: N_16  and  C_17
REMARK    4  A    between atoms: C_17  and  C_18
REMARK                            x       y       z     vdW  Elec       q    Type
REMARK                         _______ _______ _______ _____ _____    ______ ____
ROOT
ATOM      1  C   UNL     1       6.875   4.534  17.083  0.00  0.00    +0.000 A 
ATOM      2  C   UNL     1       7.192   4.980  15.783  0.00  0.00    +0.000 A 
ATOM      3  C   UNL     1       6.240   4.960  14.747  0.00  0.00    +0.000 A 
ATOM      4  C   UNL     1       4.945   4.505  14.988  0.00  0.00    +0.000 A 
ATOM      5  C   UNL     1       4.630   4.080  16.269  0.00  0.00    +0.000 A 
ATOM      6  C   UNL     1       5.584   4.083  17.298  0.00  0.00    +0.000 A 
ATOM      7  C   UNL     1       4.903   3.584  18.505  0.00  0.00    +0.000 C 
ATOM      8  O   UNL     1       5.421   3.413  19.595  0.00  0.00    +0.000 OA
ATOM      9  N   UNL     1       3.588   3.309  18.169  0.00  0.00    +0.000 N 
ATOM     10  C   UNL     1       3.316   3.598  16.774  0.00  0.00    +0.000 C 
ENDROOT
BRANCH   9  11
ATOM     11  C   UNL     1       2.611   2.797  19.141  0.00  0.00    +0.000 C 
ATOM     12  C   UNL     1       1.178   3.263  18.923  0.00  0.00    +0.000 C 
ATOM     13  C   UNL     1       0.945   4.703  19.367  0.00  0.00    +0.000 C 
ATOM     14  N   UNL     1       1.431   5.030  20.715  0.00  0.00    +0.000 NA
ATOM     15  C   UNL     1       2.773   4.502  21.019  0.00  0.00    +0.000 C 
ATOM     16  C   UNL     1       3.010   3.055  20.595  0.00  0.00    +0.000 C 
BRANCH  14  17
ATOM     17  C   UNL     1       1.444   6.500  20.928  0.00  0.00    +0.000 C 
BRANCH  17  18
ATOM     18  C   UNL     1       1.953   7.218  19.723  0.00  0.00    +0.000 A 
ATOM     19  C   UNL     1       2.953   6.784  18.804  0.00  0.00    +0.000 A 
ATOM     20  C   UNL     1       3.138   7.812  17.912  0.00  0.00    +0.000 A 
ATOM     21  O   UNL     1       2.291   8.837  18.188  0.00  0.00    +0.000 OA
ATOM     22  C   UNL     1       1.570   8.469  19.276  0.00  0.00    +0.000 A 
ENDBRANCH  17  18
ENDBRANCH  14  17
ENDBRANCH   9  11
BRANCH   1  24
ATOM     23  N   UNL     1       7.774   5.485  19.161  0.00  0.00    +0.000 N 
ATOM     24  C   UNL     1       7.939   4.634  18.111  0.00  0.00    +0.000 C 
ATOM     25  O   UNL     1       8.947   3.938  18.027  0.00  0.00    +0.000 OA
ATOM     26  H   UNL     1       8.590   5.645  19.735  0.00  0.00    +0.000 HD
ATOM     27  H   UNL     1       7.128   6.271  19.108  0.00  0.00    +0.000 HD
ENDBRANCH   1  24
TORSDOF 4
ENDMDL
MODEL 8
REMARK VINA RESULT:      -6.8      3.274      5.602
REMARK  Name = 
REMARK  4 active torsions:
REMARK  status: ('A' for Active; 'I' for Inactive)
REMARK    1  A    between atoms: C_2  and  C_4
REMARK    2  A    between atoms: N_12  and  C_13
REMARK    3  A    between atoms: N_16  and  C_17
REMARK    4  A    between atoms: C_17  and  C_18
REMARK                            x       y       z     vdW  Elec       q    Type
REMARK                         _______ _______ _______ _____ _____    ______ ____
ROOT
ATOM      1  C   UNL     1       3.491   2.805  20.300  0.00  0.00    +0.000 A 
ATOM      2  C   UNL     1       2.276   2.507  20.949  0.00  0.00    +0.000 A 
ATOM      3  C   UNL     1       1.243   3.458  21.048  0.00  0.00    +0.000 A 
ATOM      4  C   UNL     1       1.397   4.726  20.490  0.00  0.00    +0.000 A 
ATOM      5  C   UNL     1       2.587   5.013  19.839  0.00  0.00    +0.000 A 
ATOM      6  C   UNL     1       3.623   4.071  19.756  0.00  0.00    +0.000 A 
ATOM      7  C   UNL     1       4.712   4.709  18.996  0.00  0.00    +0.000 C 
ATOM      8  O   UNL     1       5.795   4.208  18.749  0.00  0.00    +0.000 OA
ATOM      9  N   UNL     1       4.299   5.984  18.650  0.00  0.00    +0.000 N 
ATOM     10  C   UNL     1       2.961   6.268  19.135  0.00  0.00    +0.000 C 
ENDROOT
BRANCH   9  11
ATOM     11  C   UNL     1       5.141   6.908  17.875  0.00  0.00    +0.000 C 
ATOM     12  C   UNL     1       4.787   7.019  16.398  0.00  0.00    +0.000 C 
ATOM     13  C   UNL     1       5.256   5.820  15.581  0.00  0.00    +0.000 C 
ATOM     14  N   UNL     1       6.659   5.434  15.783  0.00  0.00    +0.000 NA
ATOM     15  C   UNL     1       7.087   5.422  17.193  0.00  0.00    +0.000 C 
ATOM     16  C   UNL     1       6.637   6.627  18.016  0.00  0.00    +0.000 C 
BRANCH  14  17
ATOM     17  C   UNL     1       6.927   4.095  15.198  0.00  0.00    +0.000 C 
BRANCH  17  18
ATOM     18  C   UNL     1       6.910   4.144  13.706  0.00  0.00    +0.000 A 
ATOM     19  C   UNL     1       7.681   4.983  12.850  0.00  0.00    +0.000 A 
ATOM     20  C   UNL     1       7.262   4.725  11.567  0.00  0.00    +0.000 A 
ATOM     21  O   UNL     1       6.315   3.752  11.565  0.00  0.00    +0.000 OA
ATOM     22  C   UNL     1       6.114   3.396  12.858  0.00  0.00    +0.000 A 
ENDBRANCH  17  18
ENDBRANCH  14  17
ENDBRANCH   9  11
BRANCH   1  24
ATOM     23  N   UNL     1       4.499   0.891  19.135  0.00  0.00    +0.000 N 
ATOM     24  C   UNL     1       4.497   1.718  20.217  0.00  0.00    +0.000 C 
ATOM     25  O   UNL     1       5.336   1.584  21.104  0.00  0.00    +0.000 OA
ATOM     26  H   UNL     1       5.084   0.070  19.205  0.00  0.00    +0.000 HD
ATOM     27  H   UNL     1       3.668   0.776  18.558  0.00  0.00    +0.000 HD
ENDBRANCH   1  24
TORSDOF 4
ENDMDL
MODEL 9
REMARK VINA RESULT:      -6.7      4.187      6.205
REMARK  Name = 
REMARK  4 active torsions:
REMARK  status: ('A' for Active; 'I' for Inactive)
REMARK    1  A    between atoms: C_2  and  C_4
REMARK    2  A    between atoms: N_12  and  C_13
REMARK    3  A    between atoms: N_16  and  C_17
REMARK    4  A    between atoms: C_17  and  C_18
REMARK                            x       y       z     vdW  Elec       q    Type
REMARK                         _______ _______ _______ _____ _____    ______ ____
ROOT
ATOM      1  C   UNL     1      -4.354  12.124  19.123  0.00  0.00    +0.000 A 
ATOM      2  C   UNL     1      -5.260  11.758  18.107  0.00  0.00    +0.000 A 
ATOM      3  C   UNL     1      -4.832  11.079  16.951  0.00  0.00    +0.000 A 
ATOM      4  C   UNL     1      -3.491  10.740  16.789  0.00  0.00    +0.000 A 
ATOM      5  C   UNL     1      -2.602  11.088  17.795  0.00  0.00    +0.000 A 
ATOM      6  C   UNL     1      -3.026  11.780  18.939  0.00  0.00    +0.000 A 
ATOM      7  C   UNL     1      -1.833  11.967  19.783  0.00  0.00    +0.000 C 
ATOM      8  O   UNL     1      -1.801  12.559  20.848  0.00  0.00    +0.000 OA
ATOM      9  N   UNL     1      -0.756  11.388  19.133  0.00  0.00    +0.000 N 
ATOM     10  C   UNL     1      -1.145  10.797  17.866  0.00  0.00    +0.000 C 
ENDROOT
BRANCH   9  11
ATOM     11  C   UNL     1       0.601  11.382  19.697  0.00  0.00    +0.000 C 
ATOM     12  C   UNL     1       1.726  11.455  18.673  0.00  0.00    +0.000 C 
ATOM     13  C   UNL     1       1.962  10.134  17.950  0.00  0.00    +0.000 C 
ATOM     14  N   UNL     1       2.087   8.957  18.821  0.00  0.00    +0.000 NA
ATOM     15  C   UNL     1       1.089   8.896  19.904  0.00  0.00    +0.000 C 
ATOM     16  C   UNL     1       0.858  10.210  20.646  0.00  0.00    +0.000 C 
BRANCH  14  17
ATOM     17  C   UNL     1       2.000   7.704  18.029  0.00  0.00    +0.000 C 
BRANCH  17  18
ATOM     18  C   UNL     1       3.164   6.810  18.302  0.00  0.00    +0.000 A 
ATOM     19  C   UNL     1       4.338   6.636  17.512  0.00  0.00    +0.000 A 
ATOM     20  C   UNL     1       5.080   5.654  18.124  0.00  0.00    +0.000 A 
ATOM     21  O   UNL     1       4.468   5.237  19.262  0.00  0.00    +0.000 OA
ATOM     22  C   UNL     1       3.317   5.947  19.371  0.00  0.00    +0.000 A 
ENDBRANCH  17  18
ENDBRANCH  14  17
ENDBRANCH   9  11
BRANCH   1  24
ATOM     23  N   UNL     1      -4.686  14.131  20.499  0.00  0.00    +0.000 N 
ATOM     24  C   UNL     1      -4.915  12.801  20.318  0.00  0.00    +0.000 C 
ATOM     25  O   UNL     1      -5.599  12.173  21.120  0.00  0.00    +0.000 OA
ATOM     26  H   UNL     1      -4.938  14.505  21.404  0.00  0.00    +0.000 HD
ATOM     27  H   UNL     1      -3.902  14.599  20.047  0.00  0.00    +0.000 HD
ENDBRANCH   1  24
TORSDOF 4
ENDMDL
