MODEL 1
REMARK VINA RESULT:      -7.6      0.000      0.000
REMARK  Name = 
REMARK  6 active torsions:
REMARK  status: ('A' for Active; 'I' for Inactive)
REMARK    1  A    between atoms: C_1  and  O_2
REMARK    2  A    between atoms: O_2  and  C_3
REMARK    3  A    between atoms: C_6  and  N_7
REMARK    4  A    between atoms: N_7  and  C_8
REMARK    5  A    between atoms: N_15  and  N_16
REMARK    6  A    between atoms: C_17  and  C_19
REMARK                            x       y       z     vdW  Elec       q    Type
REMARK                         _______ _______ _______ _____ _____    ______ ____
ROOT
ATOM      1  C   UNL     1       1.563   8.311  20.010  0.00  0.00    +0.000 A 
ATOM      2  N   UNL     1       1.908   8.480  18.710  0.00  0.00    +0.000 NA
ATOM      3  C   UNL     1       1.591   9.636  18.114  0.00  0.00    +0.000 A 
ATOM      4  N   UNL     1       0.980  10.670  18.693  0.00  0.00    +0.000 NA
ATOM      5  C   UNL     1       0.639  10.446  19.984  0.00  0.00    +0.000 A 
ATOM      6  C   UNL     1       0.034  11.609  20.716  0.00  0.00    +0.000 A 
ATOM      7  N   UNL     1      -0.039  12.785  20.157  0.00  0.00    +0.000 NA
ATOM      8  N   UNL     1      -0.375  11.320  22.010  0.00  0.00    +0.000 N 
ATOM      9  C   UNL     1      -0.093  10.122  22.639  0.00  0.00    +0.000 A 
ATOM     10  N   UNL     1       0.499   9.105  22.085  0.00  0.00    +0.000 NA
ATOM     11  C   UNL     1       0.869   9.284  20.719  0.00  0.00    +0.000 A 
ATOM     12  H   UNL     1       0.352  12.695  19.201  0.00  0.00    +0.000 HD
ENDROOT
BRANCH   8  13
ATOM     13  N   UNL     1      -0.726  12.417  22.814  0.00  0.00    +0.000 N 
ATOM     14  C   UNL     1      -2.053  12.640  23.142  0.00  0.00    +0.000 C 
ATOM     15  O   UNL     1      -2.956  11.856  22.851  0.00  0.00    +0.000 OA
ATOM     16  H   UNL     1      -0.055  13.182  22.827  0.00  0.00    +0.000 HD
BRANCH  14  17
ATOM     17  C   UNL     1      -2.277  13.840  23.924  0.00  0.00    +0.000 A 
ATOM     18  C   UNL     1      -3.450  14.457  24.322  0.00  0.00    +0.000 A 
ATOM     19  C   UNL     1      -3.079  15.575  25.109  0.00  0.00    +0.000 A 
ATOM     20  C   UNL     1      -1.705  15.577  25.141  0.00  0.00    +0.000 A 
ATOM     21  O   UNL     1      -1.206  14.528  24.435  0.00  0.00    +0.000 OA
ENDBRANCH  14  17
ENDBRANCH   8  13
BRANCH   1  22
ATOM     22  N   UNL     1       2.020   7.160  20.686  0.00  0.00    +0.000 N 
ATOM     23  H   UNL     1       2.478   7.352  21.570  0.00  0.00    +0.000 HD
BRANCH  22  27
ATOM     24  C   UNL     1       2.367   3.183  19.288  0.00  0.00    +0.000 A 
ATOM     25  C   UNL     1       1.293   3.559  20.088  0.00  0.00    +0.000 A 
ATOM     26  C   UNL     1       1.164   4.876  20.534  0.00  0.00    +0.000 A 
ATOM     27  C   UNL     1       2.105   5.853  20.183  0.00  0.00    +0.000 A 
ATOM     28  C   UNL     1       3.190   5.466  19.385  0.00  0.00    +0.000 A 
ATOM     29  C   UNL     1       3.326   4.138  18.944  0.00  0.00    +0.000 A 
BRANCH  24  31
ATOM     30  C   UNL     1       3.646   1.363  18.487  0.00  0.00    +0.000 C 
ATOM     31  O   UNL     1       2.399   1.859  18.957  0.00  0.00    +0.000 OA
ENDBRANCH  24  31
ENDBRANCH  22  27
ENDBRANCH   1  22
TORSDOF 5
ENDMDL
MODEL 2
REMARK VINA RESULT:      -7.4      0.871      1.254
REMARK  Name = 
REMARK  6 active torsions:
REMARK  status: ('A' for Active; 'I' for Inactive)
REMARK    1  A    between atoms: C_1  and  O_2
REMARK    2  A    between atoms: O_2  and  C_3
REMARK    3  A    between atoms: C_6  and  N_7
REMARK    4  A    between atoms: N_7  and  C_8
REMARK    5  A    between atoms: N_15  and  N_16
REMARK    6  A    between atoms: C_17  and  C_19
REMARK                            x       y       z     vdW  Elec       q    Type
REMARK                         _______ _______ _______ _____ _____    ______ ____
ROOT
ATOM      1  C   UNL     1       1.509   8.443  19.800  0.00  0.00    +0.000 A 
ATOM      2  N   UNL     1       1.796   8.679  18.496  0.00  0.00    +0.000 NA
ATOM      3  C   UNL     1       1.227   9.735  17.901  0.00  0.00    +0.000 A 
ATOM      4  N   UNL     1       0.408  10.611  18.485  0.00  0.00    +0.000 NA
ATOM      5  C   UNL     1       0.138  10.323  19.780  0.00  0.00    +0.000 A 
ATOM      6  C   UNL     1      -0.700  11.327  20.517  0.00  0.00    +0.000 A 
ATOM      7  N   UNL     1      -1.035  12.457  19.956  0.00  0.00    +0.000 NA
ATOM      8  N   UNL     1      -1.023  10.961  21.815  0.00  0.00    +0.000 N 
ATOM      9  C   UNL     1      -0.478   9.856  22.444  0.00  0.00    +0.000 A 
ATOM     10  N   UNL     1       0.317   8.992  21.884  0.00  0.00    +0.000 NA
ATOM     11  C   UNL     1       0.625   9.243  20.515  0.00  0.00    +0.000 A 
ATOM     12  H   UNL     1      -0.644  12.451  18.997  0.00  0.00    +0.000 HD
ENDROOT
BRANCH   8  13
ATOM     13  N   UNL     1      -1.599  11.957  22.622  0.00  0.00    +0.000 N 
ATOM     14  C   UNL     1      -0.866  13.080  22.966  0.00  0.00    +0.000 C 
ATOM     15  O   UNL     1       0.252  13.316  22.510  0.00  0.00    +0.000 OA
ATOM     16  H   UNL     1      -2.382  11.653  23.197  0.00  0.00    +0.000 HD
BRANCH  14  17
ATOM     17  C   UNL     1      -1.562  13.993  23.851  0.00  0.00    +0.000 A 
ATOM     18  C   UNL     1      -2.913  14.156  24.105  0.00  0.00    +0.000 A 
ATOM     19  C   UNL     1      -3.025  15.164  25.094  0.00  0.00    +0.000 A 
ATOM     20  C   UNL     1      -1.741  15.559  25.381  0.00  0.00    +0.000 A 
ATOM     21  O   UNL     1      -0.845  14.854  24.642  0.00  0.00    +0.000 OA
ENDBRANCH  14  17
ENDBRANCH   8  13
BRANCH   1  22
ATOM     22  N   UNL     1       2.215   7.423  20.473  0.00  0.00    +0.000 N 
ATOM     23  H   UNL     1       2.884   7.762  21.154  0.00  0.00    +0.000 HD
BRANCH  22  27
ATOM     24  C   UNL     1       2.210   3.331  19.405  0.00  0.00    +0.000 A 
ATOM     25  C   UNL     1       3.159   4.198  18.873  0.00  0.00    +0.000 A 
ATOM     26  C   UNL     1       3.177   5.545  19.240  0.00  0.00    +0.000 A 
ATOM     27  C   UNL     1       2.248   6.057  20.155  0.00  0.00    +0.000 A 
ATOM     28  C   UNL     1       1.288   5.181  20.680  0.00  0.00    +0.000 A 
ATOM     29  C   UNL     1       1.263   3.827  20.304  0.00  0.00    +0.000 A 
BRANCH  24  31
ATOM     30  C   UNL     1       3.553   1.611  18.494  0.00  0.00    +0.000 C 
ATOM     31  O   UNL     1       2.274   2.052  18.933  0.00  0.00    +0.000 OA
ENDBRANCH  24  31
ENDBRANCH  22  27
ENDBRANCH   1  22
TORSDOF 5
ENDMDL
MODEL 3
REMARK VINA RESULT:      -7.2      3.591      9.584
REMARK  Name = 
REMARK  6 active torsions:
REMARK  status: ('A' for Active; 'I' for Inactive)
REMARK    1  A    between atoms: C_1  and  O_2
REMARK    2  A    between atoms: O_2  and  C_3
REMARK    3  A    between atoms: C_6  and  N_7
REMARK    4  A    between atoms: N_7  and  C_8
REMARK    5  A    between atoms: N_15  and  N_16
REMARK    6  A    between atoms: C_17  and  C_19
REMARK                            x       y       z     vdW  Elec       q    Type
REMARK                         _______ _______ _______ _____ _____    ______ ____
ROOT
ATOM      1  C   UNL     1      -0.291  10.371  20.189  0.00  0.00    +0.000 A 
ATOM      2  N   UNL     1      -0.577  10.214  21.505  0.00  0.00    +0.000 NA
ATOM      3  C   UNL     1       0.002   9.204  22.165  0.00  0.00    +0.000 A 
ATOM      4  N   UNL     1       0.873   8.334  21.652  0.00  0.00    +0.000 NA
ATOM      5  C   UNL     1       1.113   8.520  20.332  0.00  0.00    +0.000 A 
ATOM      6  C   UNL     1       2.157   7.632  19.721  0.00  0.00    +0.000 A 
ATOM      7  N   UNL     1       2.860   6.821  20.462  0.00  0.00    +0.000 NA
ATOM      8  N   UNL     1       2.320   7.796  18.353  0.00  0.00    +0.000 N 
ATOM      9  C   UNL     1       1.706   8.809  17.638  0.00  0.00    +0.000 A 
ATOM     10  N   UNL     1       0.852   9.660  18.126  0.00  0.00    +0.000 NA
ATOM     11  C   UNL     1       0.555   9.500  19.512  0.00  0.00    +0.000 A 
ATOM     12  H   UNL     1       2.524   6.926  21.437  0.00  0.00    +0.000 HD
ENDROOT
BRANCH   8  13
ATOM     13  N   UNL     1       3.435   7.168  17.775  0.00  0.00    +0.000 N 
ATOM     14  C   UNL     1       3.426   5.801  17.558  0.00  0.00    +0.000 C 
ATOM     15  O   UNL     1       2.434   5.099  17.748  0.00  0.00    +0.000 OA
ATOM     16  H   UNL     1       4.315   7.672  17.867  0.00  0.00    +0.000 HD
BRANCH  14  17
ATOM     17  C   UNL     1       4.665   5.279  17.014  0.00  0.00    +0.000 A 
ATOM     18  C   UNL     1       4.919   4.141  16.268  0.00  0.00    +0.000 A 
ATOM     19  C   UNL     1       6.303   4.149  15.968  0.00  0.00    +0.000 A 
ATOM     20  C   UNL     1       6.813   5.285  16.551  0.00  0.00    +0.000 A 
ATOM     21  O   UNL     1       5.831   5.982  17.181  0.00  0.00    +0.000 OA
ENDBRANCH  14  17
ENDBRANCH   8  13
BRANCH   1  22
ATOM     22  N   UNL     1      -0.780  11.515  19.524  0.00  0.00    +0.000 N 
ATOM     23  H   UNL     1      -0.207  12.342  19.644  0.00  0.00    +0.000 HD
BRANCH  22  27
ATOM     24  C   UNL     1      -4.602  11.864  17.747  0.00  0.00    +0.000 A 
ATOM     25  C   UNL     1      -4.398  12.257  19.066  0.00  0.00    +0.000 A 
ATOM     26  C   UNL     1      -3.133  12.163  19.649  0.00  0.00    +0.000 A 
ATOM     27  C   UNL     1      -2.036  11.679  18.922  0.00  0.00    +0.000 A 
ATOM     28  C   UNL     1      -2.251  11.276  17.598  0.00  0.00    +0.000 A 
ATOM     29  C   UNL     1      -3.526  11.360  17.013  0.00  0.00    +0.000 A 
BRANCH  24  31
ATOM     30  C   UNL     1      -6.889  11.459  18.188  0.00  0.00    +0.000 C 
ATOM     31  O   UNL     1      -5.892  11.966  17.311  0.00  0.00    +0.000 OA
ENDBRANCH  24  31
ENDBRANCH  22  27
ENDBRANCH   1  22
TORSDOF 5
ENDMDL
MODEL 4
REMARK VINA RESULT:      -7.0      3.300      9.794
REMARK  Name = 
REMARK  6 active torsions:
REMARK  status: ('A' for Active; 'I' for Inactive)
REMARK    1  A    between atoms: C_1  and  O_2
REMARK    2  A    between atoms: O_2  and  C_3
REMARK    3  A    between atoms: C_6  and  N_7
REMARK    4  A    between atoms: N_7  and  C_8
REMARK    5  A    between atoms: N_15  and  N_16
REMARK    6  A    between atoms: C_17  and  C_19
REMARK                            x       y       z     vdW  Elec       q    Type
REMARK                         _______ _______ _______ _____ _____    ______ ____
ROOT
ATOM      1  C   UNL     1      -0.111  10.065  20.225  0.00  0.00    +0.000 A 
ATOM      2  N   UNL     1      -0.421   9.777  21.512  0.00  0.00    +0.000 NA
ATOM      3  C   UNL     1       0.164   8.717  22.085  0.00  0.00    +0.000 A 
ATOM      4  N   UNL     1       1.062   7.916  21.509  0.00  0.00    +0.000 NA
ATOM      5  C   UNL     1       1.325   8.234  20.219  0.00  0.00    +0.000 A 
ATOM      6  C   UNL     1       2.398   7.427  19.548  0.00  0.00    +0.000 A 
ATOM      7  N   UNL     1       3.101   6.560  20.223  0.00  0.00    +0.000 NA
ATOM      8  N   UNL     1       2.585   7.726  18.207  0.00  0.00    +0.000 N 
ATOM      9  C   UNL     1       1.967   8.792  17.579  0.00  0.00    +0.000 A 
ATOM     10  N   UNL     1       1.087   9.577  18.128  0.00  0.00    +0.000 NA
ATOM     11  C   UNL     1       0.765   9.279  19.485  0.00  0.00    +0.000 A 
ATOM     12  H   UNL     1       2.743   6.565  21.195  0.00  0.00    +0.000 HD
ENDROOT
BRANCH   8  13
ATOM     13  N   UNL     1       3.724   7.176  17.595  0.00  0.00    +0.000 N 
ATOM     14  C   UNL     1       3.795   5.813  17.360  0.00  0.00    +0.000 C 
ATOM     15  O   UNL     1       2.852   5.048  17.562  0.00  0.00    +0.000 OA
ATOM     16  H   UNL     1       4.572   7.732  17.674  0.00  0.00    +0.000 HD
BRANCH  14  17
ATOM     17  C   UNL     1       5.050   5.377  16.781  0.00  0.00    +0.000 A 
ATOM     18  C   UNL     1       5.507   5.410  15.475  0.00  0.00    +0.000 A 
ATOM     19  C   UNL     1       6.825   4.894  15.488  0.00  0.00    +0.000 A 
ATOM     20  C   UNL     1       7.095   4.571  16.797  0.00  0.00    +0.000 A 
ATOM     21  O   UNL     1       6.032   4.865  17.591  0.00  0.00    +0.000 OA
ENDBRANCH  14  17
ENDBRANCH   8  13
BRANCH   1  22
ATOM     22  N   UNL     1      -0.608  11.260  19.662  0.00  0.00    +0.000 N 
ATOM     23  H   UNL     1       0.093  11.979  19.529  0.00  0.00    +0.000 HD
BRANCH  22  27
ATOM     24  C   UNL     1      -4.609  12.482  19.046  0.00  0.00    +0.000 A 
ATOM     25  C   UNL     1      -3.989  11.619  18.148  0.00  0.00    +0.000 A 
ATOM     26  C   UNL     1      -2.675  11.197  18.360  0.00  0.00    +0.000 A 
ATOM     27  C   UNL     1      -1.950  11.623  19.481  0.00  0.00    +0.000 A 
ATOM     28  C   UNL     1      -2.578  12.500  20.376  0.00  0.00    +0.000 A 
ATOM     29  C   UNL     1      -3.897  12.934  20.159  0.00  0.00    +0.000 A 
BRANCH  24  31
ATOM     30  C   UNL     1      -6.559  11.986  17.803  0.00  0.00    +0.000 C 
ATOM     31  O   UNL     1      -5.877  12.852  18.701  0.00  0.00    +0.000 OA
ENDBRANCH  24  31
ENDBRANCH  22  27
ENDBRANCH   1  22
TORSDOF 5
ENDMDL
MODEL 5
REMARK VINA RESULT:      -7.0      4.103      9.928
REMARK  Name = 
REMARK  6 active torsions:
REMARK  status: ('A' for Active; 'I' for Inactive)
REMARK    1  A    between atoms: C_1  and  O_2
REMARK    2  A    between atoms: O_2  and  C_3
REMARK    3  A    between atoms: C_6  and  N_7
REMARK    4  A    between atoms: N_7  and  C_8
REMARK    5  A    between atoms: N_15  and  N_16
REMARK    6  A    between atoms: C_17  and  C_19
REMARK                            x       y       z     vdW  Elec       q    Type
REMARK                         _______ _______ _______ _____ _____    ______ ____
ROOT
ATOM      1  C   UNL     1       0.913  10.512  20.321  0.00  0.00    +0.000 A 
ATOM      2  N   UNL     1       0.670  10.417  21.651  0.00  0.00    +0.000 NA
ATOM      3  C   UNL     1       0.915   9.250  22.260  0.00  0.00    +0.000 A 
ATOM      4  N   UNL     1       1.411   8.157  21.680  0.00  0.00    +0.000 NA
ATOM      5  C   UNL     1       1.620   8.296  20.349  0.00  0.00    +0.000 A 
ATOM      6  C   UNL     1       2.268   7.130  19.659  0.00  0.00    +0.000 A 
ATOM      7  N   UNL     1       2.701   6.107  20.343  0.00  0.00    +0.000 NA
ATOM      8  N   UNL     1       2.394   7.276  18.286  0.00  0.00    +0.000 N 
ATOM      9  C   UNL     1       2.114   8.458  17.625  0.00  0.00    +0.000 A 
ATOM     10  N   UNL     1       1.626   9.529  18.178  0.00  0.00    +0.000 NA
ATOM     11  C   UNL     1       1.376   9.432  19.579  0.00  0.00    +0.000 A 
ATOM     12  H   UNL     1       2.478   6.287  21.338  0.00  0.00    +0.000 HD
ENDROOT
BRANCH   8  13
ATOM     13  N   UNL     1       3.198   6.331  17.627  0.00  0.00    +0.000 N 
ATOM     14  C   UNL     1       4.499   6.651  17.275  0.00  0.00    +0.000 C 
ATOM     15  O   UNL     1       5.042   7.704  17.607  0.00  0.00    +0.000 OA
ATOM     16  H   UNL     1       2.694   5.599  17.131  0.00  0.00    +0.000 HD
BRANCH  14  17
ATOM     17  C   UNL     1       5.190   5.606  16.548  0.00  0.00    +0.000 A 
ATOM     18  C   UNL     1       4.885   4.266  16.376  0.00  0.00    +0.000 A 
ATOM     19  C   UNL     1       5.884   3.723  15.533  0.00  0.00    +0.000 A 
ATOM     20  C   UNL     1       6.741   4.758  15.243  0.00  0.00    +0.000 A 
ATOM     21  O   UNL     1       6.329   5.905  15.844  0.00  0.00    +0.000 OA
ENDBRANCH  14  17
ENDBRANCH   8  13
BRANCH   1  22
ATOM     22  N   UNL     1       0.797  11.775  19.703  0.00  0.00    +0.000 N 
ATOM     23  H   UNL     1      -0.050  11.896  19.160  0.00  0.00    +0.000 HD
BRANCH  22  27
ATOM     24  C   UNL     1       3.681  14.843  19.305  0.00  0.00    +0.000 A 
ATOM     25  C   UNL     1       3.194  14.491  20.560  0.00  0.00    +0.000 A 
ATOM     26  C   UNL     1       2.257  13.464  20.697  0.00  0.00    +0.000 A 
ATOM     27  C   UNL     1       1.790  12.758  19.580  0.00  0.00    +0.000 A 
ATOM     28  C   UNL     1       2.278  13.125  18.318  0.00  0.00    +0.000 A 
ATOM     29  C   UNL     1       3.213  14.165  18.178  0.00  0.00    +0.000 A 
BRANCH  24  31
ATOM     30  C   UNL     1       4.398  16.840  20.350  0.00  0.00    +0.000 C 
ATOM     31  O   UNL     1       4.558  15.889  19.305  0.00  0.00    +0.000 OA
ENDBRANCH  24  31
ENDBRANCH  22  27
ENDBRANCH   1  22
TORSDOF 5
ENDMDL
MODEL 6
REMARK VINA RESULT:      -7.0      4.057      6.312
REMARK  Name = 
REMARK  6 active torsions:
REMARK  status: ('A' for Active; 'I' for Inactive)
REMARK    1  A    between atoms: C_1  and  O_2
REMARK    2  A    between atoms: O_2  and  C_3
REMARK    3  A    between atoms: C_6  and  N_7
REMARK    4  A    between atoms: N_7  and  C_8
REMARK    5  A    between atoms: N_15  and  N_16
REMARK    6  A    between atoms: C_17  and  C_19
REMARK                            x       y       z     vdW  Elec       q    Type
REMARK                         _______ _______ _______ _____ _____    ______ ____
ROOT
ATOM      1  C   UNL     1       3.478   3.886  18.725  0.00  0.00    +0.000 A 
ATOM      2  N   UNL     1       3.325   2.953  19.697  0.00  0.00    +0.000 NA
ATOM      3  C   UNL     1       2.758   3.325  20.852  0.00  0.00    +0.000 A 
ATOM      4  N   UNL     1       2.294   4.543  21.136  0.00  0.00    +0.000 NA
ATOM      5  C   UNL     1       2.486   5.443  20.143  0.00  0.00    +0.000 A 
ATOM      6  C   UNL     1       1.899   6.806  20.367  0.00  0.00    +0.000 A 
ATOM      7  N   UNL     1       1.153   7.048  21.410  0.00  0.00    +0.000 NA
ATOM      8  N   UNL     1       2.182   7.723  19.366  0.00  0.00    +0.000 N 
ATOM      9  C   UNL     1       2.798   7.375  18.178  0.00  0.00    +0.000 A 
ATOM     10  N   UNL     1       3.259   6.193  17.890  0.00  0.00    +0.000 NA
ATOM     11  C   UNL     1       3.093   5.209  18.909  0.00  0.00    +0.000 A 
ATOM     12  H   UNL     1       1.113   6.175  21.967  0.00  0.00    +0.000 HD
ENDROOT
BRANCH   8  13
ATOM     13  N   UNL     1       1.469   8.933  19.405  0.00  0.00    +0.000 N 
ATOM     14  C   UNL     1       1.547   9.818  18.343  0.00  0.00    +0.000 C 
ATOM     15  O   UNL     1       2.133   9.556  17.294  0.00  0.00    +0.000 OA
ATOM     16  H   UNL     1       1.218   9.261  20.335  0.00  0.00    +0.000 HD
BRANCH  14  17
ATOM     17  C   UNL     1       0.811  11.051  18.545  0.00  0.00    +0.000 A 
ATOM     18  C   UNL     1       1.240  12.310  18.927  0.00  0.00    +0.000 A 
ATOM     19  C   UNL     1       0.100  13.151  18.921  0.00  0.00    +0.000 A 
ATOM     20  C   UNL     1      -0.956  12.357  18.541  0.00  0.00    +0.000 A 
ATOM     21  O   UNL     1      -0.538  11.085  18.303  0.00  0.00    +0.000 OA
ENDBRANCH  14  17
ENDBRANCH   8  13
BRANCH   1  22
ATOM     22  N   UNL     1       3.937   3.471  17.458  0.00  0.00    +0.000 N 
ATOM     23  H   UNL     1       3.569   2.576  17.155  0.00  0.00    +0.000 HD
BRANCH  22  27
ATOM     24  C   UNL     1       7.122   5.025  15.150  0.00  0.00    +0.000 A 
ATOM     25  C   UNL     1       5.873   4.811  14.575  0.00  0.00    +0.000 A 
ATOM     26  C   UNL     1       4.814   4.318  15.339  0.00  0.00    +0.000 A 
ATOM     27  C   UNL     1       4.976   4.033  16.702  0.00  0.00    +0.000 A 
ATOM     28  C   UNL     1       6.239   4.242  17.272  0.00  0.00    +0.000 A 
ATOM     29  C   UNL     1       7.309   4.729  16.501  0.00  0.00    +0.000 A 
BRANCH  24  31
ATOM     30  C   UNL     1       7.845   5.217  12.906  0.00  0.00    +0.000 C 
ATOM     31  O   UNL     1       8.082   5.468  14.285  0.00  0.00    +0.000 OA
ENDBRANCH  24  31
ENDBRANCH  22  27
ENDBRANCH   1  22
TORSDOF 5
ENDMDL
MODEL 7
REMARK VINA RESULT:      -7.0      2.489      3.377
REMARK  Name = 
REMARK  6 active torsions:
REMARK  status: ('A' for Active; 'I' for Inactive)
REMARK    1  A    between atoms: C_1  and  O_2
REMARK    2  A    between atoms: O_2  and  C_3
REMARK    3  A    between atoms: C_6  and  N_7
REMARK    4  A    between atoms: N_7  and  C_8
REMARK    5  A    between atoms: N_15  and  N_16
REMARK    6  A    between atoms: C_17  and  C_19
REMARK                            x       y       z     vdW  Elec       q    Type
REMARK                         _______ _______ _______ _____ _____    ______ ____
ROOT
ATOM      1  C   UNL     1      -0.466  10.459  18.571  0.00  0.00    +0.000 A 
ATOM      2  N   UNL     1      -1.039  10.059  17.410  0.00  0.00    +0.000 NA
ATOM      3  C   UNL     1      -2.300  10.436  17.161  0.00  0.00    +0.000 A 
ATOM      4  N   UNL     1      -3.054  11.205  17.947  0.00  0.00    +0.000 NA
ATOM      5  C   UNL     1      -2.444  11.564  19.102  0.00  0.00    +0.000 A 
ATOM      6  C   UNL     1      -3.207  12.510  19.983  0.00  0.00    +0.000 A 
ATOM      7  N   UNL     1      -4.334  13.032  19.583  0.00  0.00    +0.000 NA
ATOM      8  N   UNL     1      -2.588  12.793  21.191  0.00  0.00    +0.000 N 
ATOM      9  C   UNL     1      -1.300  12.387  21.491  0.00  0.00    +0.000 A 
ATOM     10  N   UNL     1      -0.557  11.633  20.735  0.00  0.00    +0.000 NA
ATOM     11  C   UNL     1      -1.157  11.216  19.510  0.00  0.00    +0.000 A 
ATOM     12  H   UNL     1      -4.536  12.644  18.644  0.00  0.00    +0.000 HD
ENDROOT
BRANCH   8  13
ATOM     13  N   UNL     1      -3.136  13.844  21.945  0.00  0.00    +0.000 N 
ATOM     14  C   UNL     1      -4.008  13.570  22.986  0.00  0.00    +0.000 C 
ATOM     15  O   UNL     1      -4.255  12.427  23.369  0.00  0.00    +0.000 OA
ATOM     16  H   UNL     1      -3.152  14.750  21.482  0.00  0.00    +0.000 HD
BRANCH  14  17
ATOM     17  C   UNL     1      -4.544  14.750  23.635  0.00  0.00    +0.000 A 
ATOM     18  C   UNL     1      -3.937  15.692  24.448  0.00  0.00    +0.000 A 
ATOM     19  C   UNL     1      -4.924  16.656  24.765  0.00  0.00    +0.000 A 
ATOM     20  C   UNL     1      -6.074  16.246  24.134  0.00  0.00    +0.000 A 
ATOM     21  O   UNL     1      -5.856  15.097  23.440  0.00  0.00    +0.000 OA
ENDBRANCH  14  17
ENDBRANCH   8  13
BRANCH   1  22
ATOM     22  N   UNL     1       0.905  10.192  18.775  0.00  0.00    +0.000 N 
ATOM     23  H   UNL     1       1.508  10.996  18.647  0.00  0.00    +0.000 HD
BRANCH  22  27
ATOM     24  C   UNL     1       2.883   6.481  19.224  0.00  0.00    +0.000 A 
ATOM     25  C   UNL     1       2.138   7.015  20.270  0.00  0.00    +0.000 A 
ATOM     26  C   UNL     1       1.466   8.230  20.118  0.00  0.00    +0.000 A 
ATOM     27  C   UNL     1       1.517   8.938  18.910  0.00  0.00    +0.000 A 
ATOM     28  C   UNL     1       2.278   8.399  17.863  0.00  0.00    +0.000 A 
ATOM     29  C   UNL     1       2.963   7.182  18.018  0.00  0.00    +0.000 A 
BRANCH  24  31
ATOM     30  C   UNL     1       4.913   5.269  19.214  0.00  0.00    +0.000 C 
ATOM     31  O   UNL     1       3.524   5.312  19.515  0.00  0.00    +0.000 OA
ENDBRANCH  24  31
ENDBRANCH  22  27
ENDBRANCH   1  22
TORSDOF 5
ENDMDL
MODEL 8
REMARK VINA RESULT:      -6.9      0.902      1.071
REMARK  Name = 
REMARK  6 active torsions:
REMARK  status: ('A' for Active; 'I' for Inactive)
REMARK    1  A    between atoms: C_1  and  O_2
REMARK    2  A    between atoms: O_2  and  C_3
REMARK    3  A    between atoms: C_6  and  N_7
REMARK    4  A    between atoms: N_7  and  C_8
REMARK    5  A    between atoms: N_15  and  N_16
REMARK    6  A    between atoms: C_17  and  C_19
REMARK                            x       y       z     vdW  Elec       q    Type
REMARK                         _______ _______ _______ _____ _____    ______ ____
ROOT
ATOM      1  C   UNL     1       1.673   8.297  19.686  0.00  0.00    +0.000 A 
ATOM      2  N   UNL     1       2.066   8.601  18.425  0.00  0.00    +0.000 NA
ATOM      3  C   UNL     1       1.775   9.817  17.945  0.00  0.00    +0.000 A 
ATOM      4  N   UNL     1       1.147  10.788  18.610  0.00  0.00    +0.000 NA
ATOM      5  C   UNL     1       0.759  10.430  19.857  0.00  0.00    +0.000 A 
ATOM      6  C   UNL     1       0.133  11.512  20.688  0.00  0.00    +0.000 A 
ATOM      7  N   UNL     1       0.086  12.742  20.256  0.00  0.00    +0.000 NA
ATOM      8  N   UNL     1      -0.323  11.090  21.928  0.00  0.00    +0.000 N 
ATOM      9  C   UNL     1      -0.068   9.829  22.435  0.00  0.00    +0.000 A 
ATOM     10  N   UNL     1       0.539   8.872  21.795  0.00  0.00    +0.000 NA
ATOM     11  C   UNL     1       0.958   9.194  20.471  0.00  0.00    +0.000 A 
ATOM     12  H   UNL     1       0.510  12.752  19.310  0.00  0.00    +0.000 HD
ENDROOT
BRANCH   8  13
ATOM     13  N   UNL     1      -0.698  12.097  22.833  0.00  0.00    +0.000 N 
ATOM     14  C   UNL     1      -1.934  12.710  22.714  0.00  0.00    +0.000 C 
ATOM     15  O   UNL     1      -2.789  12.344  21.909  0.00  0.00    +0.000 OA
ATOM     16  H   UNL     1       0.071  12.570  23.303  0.00  0.00    +0.000 HD
BRANCH  14  17
ATOM     17  C   UNL     1      -2.163  13.771  23.675  0.00  0.00    +0.000 A 
ATOM     18  C   UNL     1      -1.423  14.904  23.968  0.00  0.00    +0.000 A 
ATOM     19  C   UNL     1      -2.139  15.615  24.962  0.00  0.00    +0.000 A 
ATOM     20  C   UNL     1      -3.268  14.875  25.220  0.00  0.00    +0.000 A 
ATOM     21  O   UNL     1      -3.299  13.761  24.443  0.00  0.00    +0.000 OA
ENDBRANCH  14  17
ENDBRANCH   8  13
BRANCH   1  22
ATOM     22  N   UNL     1       2.102   7.076  20.250  0.00  0.00    +0.000 N 
ATOM     23  H   UNL     1       2.194   7.095  21.259  0.00  0.00    +0.000 HD
BRANCH  22  27
ATOM     24  C   UNL     1       3.629   3.622  18.347  0.00  0.00    +0.000 A 
ATOM     25  C   UNL     1       2.257   3.838  18.422  0.00  0.00    +0.000 A 
ATOM     26  C   UNL     1       1.750   4.988  19.031  0.00  0.00    +0.000 A 
ATOM     27  C   UNL     1       2.606   5.956  19.574  0.00  0.00    +0.000 A 
ATOM     28  C   UNL     1       3.987   5.727  19.504  0.00  0.00    +0.000 A 
ATOM     29  C   UNL     1       4.498   4.565  18.901  0.00  0.00    +0.000 A 
BRANCH  24  31
ATOM     30  C   UNL     1       3.601   1.260  18.454  0.00  0.00    +0.000 C 
ATOM     31  O   UNL     1       3.993   2.441  17.767  0.00  0.00    +0.000 OA
ENDBRANCH  24  31
ENDBRANCH  22  27
ENDBRANCH   1  22
TORSDOF 5
ENDMDL
MODEL 9
REMARK VINA RESULT:      -6.9      4.115     10.559
REMARK  Name = 
REMARK  6 active torsions:
REMARK  status: ('A' for Active; 'I' for Inactive)
REMARK    1  A    between atoms: C_1  and  O_2
REMARK    2  A    between atoms: O_2  and  C_3
REMARK    3  A    between atoms: C_6  and  N_7
REMARK    4  A    between atoms: N_7  and  C_8
REMARK    5  A    between atoms: N_15  and  N_16
REMARK    6  A    between atoms: C_17  and  C_19
REMARK                            x       y       z     vdW  Elec       q    Type
REMARK                         _______ _______ _______ _____ _____    ______ ____
ROOT
ATOM      1  C   UNL     1       2.191   5.836  20.442  0.00  0.00    +0.000 A 
ATOM      2  N   UNL     1       1.641   4.878  21.226  0.00  0.00    +0.000 NA
ATOM      3  C   UNL     1       1.716   3.604  20.821  0.00  0.00    +0.000 A 
ATOM      4  N   UNL     1       2.316   3.173  19.710  0.00  0.00    +0.000 NA
ATOM      5  C   UNL     1       2.834   4.168  18.952  0.00  0.00    +0.000 A 
ATOM      6  C   UNL     1       3.606   3.738  17.739  0.00  0.00    +0.000 A 
ATOM      7  N   UNL     1       3.849   2.476  17.516  0.00  0.00    +0.000 NA
ATOM      8  N   UNL     1       4.054   4.783  16.945  0.00  0.00    +0.000 N 
ATOM      9  C   UNL     1       3.958   6.110  17.322  0.00  0.00    +0.000 A 
ATOM     10  N   UNL     1       3.371   6.543  18.399  0.00  0.00    +0.000 NA
ATOM     11  C   UNL     1       2.797   5.535  19.228  0.00  0.00    +0.000 A 
ATOM     12  H   UNL     1       3.401   1.937  18.279  0.00  0.00    +0.000 HD
ENDROOT
BRANCH   8  13
ATOM     13  N   UNL     1       4.974   4.453  15.936  0.00  0.00    +0.000 N 
ATOM     14  C   UNL     1       5.502   5.445  15.127  0.00  0.00    +0.000 C 
ATOM     15  O   UNL     1       5.290   6.643  15.312  0.00  0.00    +0.000 OA
ATOM     16  H   UNL     1       4.943   3.487  15.616  0.00  0.00    +0.000 HD
BRANCH  14  17
ATOM     17  C   UNL     1       6.389   4.955  14.090  0.00  0.00    +0.000 A 
ATOM     18  C   UNL     1       6.247   3.908  13.196  0.00  0.00    +0.000 A 
ATOM     19  C   UNL     1       7.402   3.909  12.377  0.00  0.00    +0.000 A 
ATOM     20  C   UNL     1       8.183   4.949  12.821  0.00  0.00    +0.000 A 
ATOM     21  O   UNL     1       7.578   5.596  13.853  0.00  0.00    +0.000 OA
ENDBRANCH  14  17
ENDBRANCH   8  13
BRANCH   1  22
ATOM     22  N   UNL     1       2.246   7.159  20.931  0.00  0.00    +0.000 N 
ATOM     23  H   UNL     1       2.956   7.311  21.637  0.00  0.00    +0.000 HD
BRANCH  22  27
ATOM     24  C   UNL     1      -0.460  10.355  20.346  0.00  0.00    +0.000 A 
ATOM     25  C   UNL     1       0.429   9.991  19.340  0.00  0.00    +0.000 A 
ATOM     26  C   UNL     1       1.310   8.922  19.522  0.00  0.00    +0.000 A 
ATOM     27  C   UNL     1       1.316   8.186  20.714  0.00  0.00    +0.000 A 
ATOM     28  C   UNL     1       0.424   8.565  21.727  0.00  0.00    +0.000 A 
ATOM     29  C   UNL     1      -0.455   9.647  21.549  0.00  0.00    +0.000 A 
BRANCH  24  31
ATOM     30  C   UNL     1      -0.574  12.533  19.431  0.00  0.00    +0.000 C 
ATOM     31  O   UNL     1      -1.235  11.442  20.058  0.00  0.00    +0.000 OA
ENDBRANCH  24  31
ENDBRANCH  22  27
ENDBRANCH   1  22
TORSDOF 5
ENDMDL
