MODEL 1
REMARK VINA RESULT:      -7.1      0.000      0.000
REMARK  Name = 
REMARK  20 active torsions:
REMARK  status: ('A' for Active; 'I' for Inactive)
REMARK    1  A    between atoms: C_1  and  C_2
REMARK    2  A    between atoms: C_2  and  C_3
REMARK    3  A    between atoms: C_3  and  C_4
REMARK    4  A    between atoms: C_4  and  C_5
REMARK    5  A    between atoms: C_5  and  C_6
REMARK    6  A    between atoms: C_6  and  C_7
REMARK    7  A    between atoms: C_7  and  C_8
REMARK    8  A    between atoms: C_8  and  C_9
REMARK    9  A    between atoms: C_10  and  C_11
REMARK   10  A    between atoms: C_12  and  C_13
REMARK   11  A    between atoms: C_14  and  C_15
REMARK   12  A    between atoms: C_16  and  C_17
REMARK   13  A    between atoms: C_17  and  C_18
REMARK   14  A    between atoms: C_18  and  C_19
REMARK   15  A    between atoms: C_19  and  C_20
REMARK   16  A    between atoms: C_20  and  C_21
REMARK   17  A    between atoms: C_21  and  C_22
REMARK   18  A    between atoms: C_22  and  C_23
REMARK   19  A    between atoms: C_23  and  C_24
REMARK   20  A    between atoms: C_27  and  C_28
REMARK                            x       y       z     vdW  Elec       q    Type
REMARK                         _______ _______ _______ _____ _____    ______ ____
ROOT
ATOM      1  C   UNL     1       4.201   4.509  17.008  0.00  0.00    +0.000 A 
ATOM      2  C   UNL     1       3.865   5.846  17.288  0.00  0.00    +0.000 A 
ATOM      3  C   UNL     1       4.365   6.987  16.410  0.00  0.00    +0.000 C 
ATOM      4  C   UNL     1       3.025   6.132  18.391  0.00  0.00    +0.000 A 
ATOM      5  C   UNL     1       2.521   5.024  19.177  0.00  0.00    +0.000 A 
ATOM      6  N   UNL     1       2.935   3.740  18.912  0.00  0.00    +0.000 N 
ATOM      7  C   UNL     1       3.728   3.452  17.833  0.00  0.00    +0.000 A 
ATOM      8  C   UNL     1       4.100   2.024  17.483  0.00  0.00    +0.000 C 
ATOM      9  C   UNL     1       2.461   2.593  19.767  0.00  0.00    +0.000 C 
ATOM     10  C   UNL     1       1.993   3.002  21.143  0.00  0.00    +0.000 C 
ATOM     11  C   UNL     1       0.932   4.055  20.985  0.00  0.00    +0.000 C 
ATOM     12  C   UNL     1       1.562   5.280  20.331  0.00  0.00    +0.000 C 
ENDROOT
BRANCH   4  13
ATOM     13  C   UNL     1       2.623   7.548  18.677  0.00  0.00    +0.000 C 
ATOM     14  C   UNL     1       2.252   8.484  17.758  0.00  0.00    +0.000 C 
BRANCH  14  15
ATOM     15  C   UNL     1       1.860   9.908  18.068  0.00  0.00    +0.000 C 
BRANCH  15  16
ATOM     16  C   UNL     1       0.676   9.893  19.041  0.00  0.00    +0.000 C 
BRANCH  16  17
ATOM     17  C   UNL     1      -0.515  10.681  18.523  0.00  0.00    +0.000 C 
BRANCH  17  18
ATOM     18  C   UNL     1      -1.302   9.859  17.507  0.00  0.00    +0.000 C 
BRANCH  18  19
ATOM     19  C   UNL     1      -2.785   9.910  17.849  0.00  0.00    +0.000 C 
BRANCH  19  20
ATOM     20  C   UNL     1      -3.613  10.469  16.701  0.00  0.00    +0.000 C 
BRANCH  20  21
ATOM     21  C   UNL     1      -2.759  10.582  15.440  0.00  0.00    +0.000 C 
ATOM     22  C   UNL     1      -3.532  10.139  14.213  0.00  0.00    +0.000 C 
ENDBRANCH  20  21
ENDBRANCH  19  20
ENDBRANCH  18  19
ENDBRANCH  17  18
ENDBRANCH  16  17
ENDBRANCH  15  16
ENDBRANCH  14  15
ENDBRANCH   4  13
BRANCH   1  24
ATOM     23  C   UNL     1       6.337   4.268  15.738  0.00  0.00    +0.000 C 
ATOM     24  C   UNL     1       5.012   4.144  15.821  0.00  0.00    +0.000 C 
BRANCH  23  25
ATOM     25  C   UNL     1       7.098   3.882  14.494  0.00  0.00    +0.000 C 
BRANCH  25  26
ATOM     26  C   UNL     1       7.079   5.013  13.469  0.00  0.00    +0.000 C 
BRANCH  26  27
ATOM     27  C   UNL     1       6.849   4.470  12.061  0.00  0.00    +0.000 C 
BRANCH  27  28
ATOM     28  C   UNL     1       6.684   2.953  12.089  0.00  0.00    +0.000 C 
BRANCH  28  29
ATOM     29  C   UNL     1       5.312   2.542  11.560  0.00  0.00    +0.000 C 
BRANCH  29  30
ATOM     30  C   UNL     1       4.301   3.667  11.752  0.00  0.00    +0.000 C 
BRANCH  30  32
ATOM     31  C   UNL     1       2.901   2.737   9.889  0.00  0.00    +0.000 C 
ATOM     32  C   UNL     1       3.570   3.979  10.449  0.00  0.00    +0.000 C 
ENDBRANCH  30  32
ENDBRANCH  29  30
ENDBRANCH  28  29
ENDBRANCH  27  28
ENDBRANCH  26  27
ENDBRANCH  25  26
ENDBRANCH  23  25
ENDBRANCH   1  24
TORSDOF 16
ENDMDL
MODEL 2
REMARK VINA RESULT:      -7.0      1.420      8.600
REMARK  Name = 
REMARK  20 active torsions:
REMARK  status: ('A' for Active; 'I' for Inactive)
REMARK    1  A    between atoms: C_1  and  C_2
REMARK    2  A    between atoms: C_2  and  C_3
REMARK    3  A    between atoms: C_3  and  C_4
REMARK    4  A    between atoms: C_4  and  C_5
REMARK    5  A    between atoms: C_5  and  C_6
REMARK    6  A    between atoms: C_6  and  C_7
REMARK    7  A    between atoms: C_7  and  C_8
REMARK    8  A    between atoms: C_8  and  C_9
REMARK    9  A    between atoms: C_10  and  C_11
REMARK   10  A    between atoms: C_12  and  C_13
REMARK   11  A    between atoms: C_14  and  C_15
REMARK   12  A    between atoms: C_16  and  C_17
REMARK   13  A    between atoms: C_17  and  C_18
REMARK   14  A    between atoms: C_18  and  C_19
REMARK   15  A    between atoms: C_19  and  C_20
REMARK   16  A    between atoms: C_20  and  C_21
REMARK   17  A    between atoms: C_21  and  C_22
REMARK   18  A    between atoms: C_22  and  C_23
REMARK   19  A    between atoms: C_23  and  C_24
REMARK   20  A    between atoms: C_27  and  C_28
REMARK                            x       y       z     vdW  Elec       q    Type
REMARK                         _______ _______ _______ _____ _____    ______ ____
ROOT
ATOM      1  C   UNL     1       2.851   7.103  18.633  0.00  0.00    +0.000 A 
ATOM      2  C   UNL     1       3.853   6.664  17.748  0.00  0.00    +0.000 A 
ATOM      3  C   UNL     1       4.365   7.561  16.628  0.00  0.00    +0.000 C 
ATOM      4  C   UNL     1       4.411   5.375  17.920  0.00  0.00    +0.000 A 
ATOM      5  C   UNL     1       3.943   4.564  19.025  0.00  0.00    +0.000 A 
ATOM      6  N   UNL     1       2.911   5.003  19.820  0.00  0.00    +0.000 N 
ATOM      7  C   UNL     1       2.381   6.258  19.676  0.00  0.00    +0.000 A 
ATOM      8  C   UNL     1       1.313   6.780  20.618  0.00  0.00    +0.000 C 
ATOM      9  C   UNL     1       2.380   4.136  20.932  0.00  0.00    +0.000 C 
ATOM     10  C   UNL     1       2.668   2.664  20.756  0.00  0.00    +0.000 C 
ATOM     11  C   UNL     1       4.149   2.493  20.575  0.00  0.00    +0.000 C 
ATOM     12  C   UNL     1       4.563   3.199  19.288  0.00  0.00    +0.000 C 
ENDROOT
BRANCH   4  13
ATOM     13  C   UNL     1       5.509   4.909  17.012  0.00  0.00    +0.000 C 
ATOM     14  C   UNL     1       5.361   4.164  15.880  0.00  0.00    +0.000 C 
BRANCH  14  15
ATOM     15  C   UNL     1       6.483   3.698  14.984  0.00  0.00    +0.000 C 
BRANCH  15  16
ATOM     16  C   UNL     1       6.164   4.108  13.542  0.00  0.00    +0.000 C 
BRANCH  16  17
ATOM     17  C   UNL     1       4.828   3.563  13.064  0.00  0.00    +0.000 C 
BRANCH  17  18
ATOM     18  C   UNL     1       4.610   3.891  11.590  0.00  0.00    +0.000 C 
BRANCH  18  19
ATOM     19  C   UNL     1       3.745   2.814  10.950  0.00  0.00    +0.000 C 
BRANCH  19  20
ATOM     20  C   UNL     1       3.127   3.285   9.641  0.00  0.00    +0.000 C 
BRANCH  20  21
ATOM     21  C   UNL     1       2.582   4.703   9.796  0.00  0.00    +0.000 C 
ATOM     22  C   UNL     1       2.139   5.270   8.460  0.00  0.00    +0.000 C 
ENDBRANCH  20  21
ENDBRANCH  19  20
ENDBRANCH  18  19
ENDBRANCH  17  18
ENDBRANCH  16  17
ENDBRANCH  15  16
ENDBRANCH  14  15
ENDBRANCH   4  13
BRANCH   1  24
ATOM     23  C   UNL     1       1.065   8.764  18.098  0.00  0.00    +0.000 C 
ATOM     24  C   UNL     1       2.286   8.471  18.549  0.00  0.00    +0.000 C 
BRANCH  23  25
ATOM     25  C   UNL     1       0.558  10.183  18.035  0.00  0.00    +0.000 C 
BRANCH  25  26
ATOM     26  C   UNL     1      -0.959  10.229  18.203  0.00  0.00    +0.000 C 
BRANCH  26  27
ATOM     27  C   UNL     1      -1.661  10.048  16.859  0.00  0.00    +0.000 C 
BRANCH  27  28
ATOM     28  C   UNL     1      -3.157   9.823  17.059  0.00  0.00    +0.000 C 
BRANCH  28  29
ATOM     29  C   UNL     1      -3.974  10.780  16.196  0.00  0.00    +0.000 C 
BRANCH  29  30
ATOM     30  C   UNL     1      -4.740  11.772  17.067  0.00  0.00    +0.000 C 
BRANCH  30  32
ATOM     31  C   UNL     1      -6.590  10.834  18.478  0.00  0.00    +0.000 C 
ATOM     32  C   UNL     1      -5.107  11.153  18.412  0.00  0.00    +0.000 C 
ENDBRANCH  30  32
ENDBRANCH  29  30
ENDBRANCH  28  29
ENDBRANCH  27  28
ENDBRANCH  26  27
ENDBRANCH  25  26
ENDBRANCH  23  25
ENDBRANCH   1  24
TORSDOF 16
ENDMDL
MODEL 3
REMARK VINA RESULT:      -6.8      2.250      9.478
REMARK  Name = 
REMARK  20 active torsions:
REMARK  status: ('A' for Active; 'I' for Inactive)
REMARK    1  A    between atoms: C_1  and  C_2
REMARK    2  A    between atoms: C_2  and  C_3
REMARK    3  A    between atoms: C_3  and  C_4
REMARK    4  A    between atoms: C_4  and  C_5
REMARK    5  A    between atoms: C_5  and  C_6
REMARK    6  A    between atoms: C_6  and  C_7
REMARK    7  A    between atoms: C_7  and  C_8
REMARK    8  A    between atoms: C_8  and  C_9
REMARK    9  A    between atoms: C_10  and  C_11
REMARK   10  A    between atoms: C_12  and  C_13
REMARK   11  A    between atoms: C_14  and  C_15
REMARK   12  A    between atoms: C_16  and  C_17
REMARK   13  A    between atoms: C_17  and  C_18
REMARK   14  A    between atoms: C_18  and  C_19
REMARK   15  A    between atoms: C_19  and  C_20
REMARK   16  A    between atoms: C_20  and  C_21
REMARK   17  A    between atoms: C_21  and  C_22
REMARK   18  A    between atoms: C_22  and  C_23
REMARK   19  A    between atoms: C_23  and  C_24
REMARK   20  A    between atoms: C_27  and  C_28
REMARK                            x       y       z     vdW  Elec       q    Type
REMARK                         _______ _______ _______ _____ _____    ______ ____
ROOT
ATOM      1  C   UNL     1       2.625   6.532  18.924  0.00  0.00    +0.000 A 
ATOM      2  C   UNL     1       3.402   6.433  17.754  0.00  0.00    +0.000 A 
ATOM      3  C   UNL     1       3.819   7.675  16.977  0.00  0.00    +0.000 C 
ATOM      4  C   UNL     1       3.823   5.157  17.309  0.00  0.00    +0.000 A 
ATOM      5  C   UNL     1       3.456   3.998  18.097  0.00  0.00    +0.000 A 
ATOM      6  N   UNL     1       2.635   4.133  19.191  0.00  0.00    +0.000 N 
ATOM      7  C   UNL     1       2.242   5.365  19.642  0.00  0.00    +0.000 A 
ATOM      8  C   UNL     1       1.420   5.520  20.908  0.00  0.00    +0.000 C 
ATOM      9  C   UNL     1       2.201   2.922  19.976  0.00  0.00    +0.000 C 
ATOM     10  C   UNL     1       2.276   1.627  19.202  0.00  0.00    +0.000 C 
ATOM     11  C   UNL     1       3.674   1.477  18.672  0.00  0.00    +0.000 C 
ATOM     12  C   UNL     1       3.944   2.614  17.692  0.00  0.00    +0.000 C 
ENDROOT
BRANCH   4  13
ATOM     13  C   UNL     1       4.686   5.039  16.089  0.00  0.00    +0.000 C 
ATOM     14  C   UNL     1       6.034   4.833  16.069  0.00  0.00    +0.000 C 
BRANCH  14  15
ATOM     15  C   UNL     1       6.886   4.727  14.828  0.00  0.00    +0.000 C 
BRANCH  15  16
ATOM     16  C   UNL     1       6.299   3.642  13.919  0.00  0.00    +0.000 C 
BRANCH  16  17
ATOM     17  C   UNL     1       6.675   3.838  12.460  0.00  0.00    +0.000 C 
BRANCH  17  18
ATOM     18  C   UNL     1       6.052   2.748  11.593  0.00  0.00    +0.000 C 
BRANCH  18  19
ATOM     19  C   UNL     1       4.535   2.862  11.640  0.00  0.00    +0.000 C 
BRANCH  19  20
ATOM     20  C   UNL     1       4.031   4.059  10.845  0.00  0.00    +0.000 C 
BRANCH  20  21
ATOM     21  C   UNL     1       3.052   3.600   9.766  0.00  0.00    +0.000 C 
ATOM     22  C   UNL     1       2.413   4.785   9.067  0.00  0.00    +0.000 C 
ENDBRANCH  20  21
ENDBRANCH  19  20
ENDBRANCH  18  19
ENDBRANCH  17  18
ENDBRANCH  16  17
ENDBRANCH  15  16
ENDBRANCH  14  15
ENDBRANCH   4  13
BRANCH   1  24
ATOM     23  C   UNL     1       1.612   8.810  18.788  0.00  0.00    +0.000 C 
ATOM     24  C   UNL     1       2.221   7.845  19.479  0.00  0.00    +0.000 C 
BRANCH  23  25
ATOM     25  C   UNL     1       1.235  10.127  19.419  0.00  0.00    +0.000 C 
BRANCH  25  26
ATOM     26  C   UNL     1       0.240   9.922  20.559  0.00  0.00    +0.000 C 
BRANCH  26  27
ATOM     27  C   UNL     1       0.490  10.921  21.686  0.00  0.00    +0.000 C 
BRANCH  27  28
ATOM     28  C   UNL     1      -0.184  12.256  21.383  0.00  0.00    +0.000 C 
BRANCH  28  29
ATOM     29  C   UNL     1      -1.704  12.116  21.393  0.00  0.00    +0.000 C 
BRANCH  29  30
ATOM     30  C   UNL     1      -2.337  13.162  22.304  0.00  0.00    +0.000 C 
BRANCH  30  32
ATOM     31  C   UNL     1      -3.768  12.385  24.214  0.00  0.00    +0.000 C 
ATOM     32  C   UNL     1      -3.737  12.738  22.738  0.00  0.00    +0.000 C 
ENDBRANCH  30  32
ENDBRANCH  29  30
ENDBRANCH  28  29
ENDBRANCH  27  28
ENDBRANCH  26  27
ENDBRANCH  25  26
ENDBRANCH  23  25
ENDBRANCH   1  24
TORSDOF 16
ENDMDL
MODEL 4
REMARK VINA RESULT:      -6.8      1.181      8.327
REMARK  Name = 
REMARK  20 active torsions:
REMARK  status: ('A' for Active; 'I' for Inactive)
REMARK    1  A    between atoms: C_1  and  C_2
REMARK    2  A    between atoms: C_2  and  C_3
REMARK    3  A    between atoms: C_3  and  C_4
REMARK    4  A    between atoms: C_4  and  C_5
REMARK    5  A    between atoms: C_5  and  C_6
REMARK    6  A    between atoms: C_6  and  C_7
REMARK    7  A    between atoms: C_7  and  C_8
REMARK    8  A    between atoms: C_8  and  C_9
REMARK    9  A    between atoms: C_10  and  C_11
REMARK   10  A    between atoms: C_12  and  C_13
REMARK   11  A    between atoms: C_14  and  C_15
REMARK   12  A    between atoms: C_16  and  C_17
REMARK   13  A    between atoms: C_17  and  C_18
REMARK   14  A    between atoms: C_18  and  C_19
REMARK   15  A    between atoms: C_19  and  C_20
REMARK   16  A    between atoms: C_20  and  C_21
REMARK   17  A    between atoms: C_21  and  C_22
REMARK   18  A    between atoms: C_22  and  C_23
REMARK   19  A    between atoms: C_23  and  C_24
REMARK   20  A    between atoms: C_27  and  C_28
REMARK                            x       y       z     vdW  Elec       q    Type
REMARK                         _______ _______ _______ _____ _____    ______ ____
ROOT
ATOM      1  C   UNL     1       2.282   6.038  18.882  0.00  0.00    +0.000 A 
ATOM      2  C   UNL     1       3.338   6.115  17.954  0.00  0.00    +0.000 A 
ATOM      3  C   UNL     1       3.819   7.456  17.415  0.00  0.00    +0.000 C 
ATOM      4  C   UNL     1       3.978   4.923  17.536  0.00  0.00    +0.000 A 
ATOM      5  C   UNL     1       3.535   3.667  18.105  0.00  0.00    +0.000 A 
ATOM      6  N   UNL     1       2.453   3.632  18.951  0.00  0.00    +0.000 N 
ATOM      7  C   UNL     1       1.841   4.781  19.380  0.00  0.00    +0.000 A 
ATOM      8  C   UNL     1       0.712   4.747  20.392  0.00  0.00    +0.000 C 
ATOM      9  C   UNL     1       1.950   2.320  19.496  0.00  0.00    +0.000 C 
ATOM     10  C   UNL     1       2.344   1.119  18.670  0.00  0.00    +0.000 C 
ATOM     11  C   UNL     1       3.838   1.123  18.516  0.00  0.00    +0.000 C 
ATOM     12  C   UNL     1       4.240   2.370  17.735  0.00  0.00    +0.000 C 
ENDROOT
BRANCH   4  13
ATOM     13  C   UNL     1       5.132   4.992  16.581  0.00  0.00    +0.000 C 
ATOM     14  C   UNL     1       5.201   4.406  15.352  0.00  0.00    +0.000 C 
BRANCH  14  15
ATOM     15  C   UNL     1       6.377   4.480  14.410  0.00  0.00    +0.000 C 
BRANCH  15  16
ATOM     16  C   UNL     1       5.864   4.356  12.971  0.00  0.00    +0.000 C 
BRANCH  16  17
ATOM     17  C   UNL     1       6.399   3.120  12.267  0.00  0.00    +0.000 C 
BRANCH  17  18
ATOM     18  C   UNL     1       5.306   2.465  11.428  0.00  0.00    +0.000 C 
BRANCH  18  19
ATOM     19  C   UNL     1       4.030   3.290  11.518  0.00  0.00    +0.000 C 
BRANCH  19  20
ATOM     20  C   UNL     1       3.188   3.172  10.255  0.00  0.00    +0.000 C 
BRANCH  20  21
ATOM     21  C   UNL     1       3.379   4.407   9.377  0.00  0.00    +0.000 C 
ATOM     22  C   UNL     1       2.047   5.050   9.038  0.00  0.00    +0.000 C 
ENDBRANCH  20  21
ENDBRANCH  19  20
ENDBRANCH  18  19
ENDBRANCH  17  18
ENDBRANCH  16  17
ENDBRANCH  15  16
ENDBRANCH  14  15
ENDBRANCH   4  13
BRANCH   1  24
ATOM     23  C   UNL     1       1.948   7.855  20.561  0.00  0.00    +0.000 C 
ATOM     24  C   UNL     1       1.626   7.257  19.414  0.00  0.00    +0.000 C 
BRANCH  23  25
ATOM     25  C   UNL     1       1.232   9.092  21.044  0.00  0.00    +0.000 C 
BRANCH  25  26
ATOM     26  C   UNL     1       0.503   9.784  19.895  0.00  0.00    +0.000 C 
BRANCH  26  27
ATOM     27  C   UNL     1       0.939  11.242  19.773  0.00  0.00    +0.000 C 
BRANCH  27  28
ATOM     28  C   UNL     1      -0.120  12.062  19.042  0.00  0.00    +0.000 C 
BRANCH  28  29
ATOM     29  C   UNL     1      -1.430  11.287  18.928  0.00  0.00    +0.000 C 
BRANCH  29  30
ATOM     30  C   UNL     1      -1.968  11.343  17.502  0.00  0.00    +0.000 C 
BRANCH  30  32
ATOM     31  C   UNL     1      -3.013   9.923  15.715  0.00  0.00    +0.000 C 
ATOM     32  C   UNL     1      -2.053   9.947  16.892  0.00  0.00    +0.000 C 
ENDBRANCH  30  32
ENDBRANCH  29  30
ENDBRANCH  28  29
ENDBRANCH  27  28
ENDBRANCH  26  27
ENDBRANCH  25  26
ENDBRANCH  23  25
ENDBRANCH   1  24
TORSDOF 16
ENDMDL
MODEL 5
REMARK VINA RESULT:      -6.8      2.698      3.188
REMARK  Name = 
REMARK  20 active torsions:
REMARK  status: ('A' for Active; 'I' for Inactive)
REMARK    1  A    between atoms: C_1  and  C_2
REMARK    2  A    between atoms: C_2  and  C_3
REMARK    3  A    between atoms: C_3  and  C_4
REMARK    4  A    between atoms: C_4  and  C_5
REMARK    5  A    between atoms: C_5  and  C_6
REMARK    6  A    between atoms: C_6  and  C_7
REMARK    7  A    between atoms: C_7  and  C_8
REMARK    8  A    between atoms: C_8  and  C_9
REMARK    9  A    between atoms: C_10  and  C_11
REMARK   10  A    between atoms: C_12  and  C_13
REMARK   11  A    between atoms: C_14  and  C_15
REMARK   12  A    between atoms: C_16  and  C_17
REMARK   13  A    between atoms: C_17  and  C_18
REMARK   14  A    between atoms: C_18  and  C_19
REMARK   15  A    between atoms: C_19  and  C_20
REMARK   16  A    between atoms: C_20  and  C_21
REMARK   17  A    between atoms: C_21  and  C_22
REMARK   18  A    between atoms: C_22  and  C_23
REMARK   19  A    between atoms: C_23  and  C_24
REMARK   20  A    between atoms: C_27  and  C_28
REMARK                            x       y       z     vdW  Elec       q    Type
REMARK                         _______ _______ _______ _____ _____    ______ ____
ROOT
ATOM      1  C   UNL     1       4.128   4.841  17.452  0.00  0.00    +0.000 A 
ATOM      2  C   UNL     1       3.556   6.060  17.864  0.00  0.00    +0.000 A 
ATOM      3  C   UNL     1       3.862   7.362  17.134  0.00  0.00    +0.000 C 
ATOM      4  C   UNL     1       2.660   6.068  18.960  0.00  0.00    +0.000 A 
ATOM      5  C   UNL     1       2.346   4.807  19.601  0.00  0.00    +0.000 A 
ATOM      6  N   UNL     1       2.984   3.654  19.214  0.00  0.00    +0.000 N 
ATOM      7  C   UNL     1       3.834   3.632  18.140  0.00  0.00    +0.000 A 
ATOM      8  C   UNL     1       4.459   2.339  17.650  0.00  0.00    +0.000 C 
ATOM      9  C   UNL     1       2.705   2.352  19.921  0.00  0.00    +0.000 C 
ATOM     10  C   UNL     1       2.148   2.514  21.315  0.00  0.00    +0.000 C 
ATOM     11  C   UNL     1       0.922   3.378  21.233  0.00  0.00    +0.000 C 
ATOM     12  C   UNL     1       1.336   4.760  20.740  0.00  0.00    +0.000 C 
ENDROOT
BRANCH   4  13
ATOM     13  C   UNL     1       2.010   7.351  19.383  0.00  0.00    +0.000 C 
ATOM     14  C   UNL     1       1.791   7.763  20.664  0.00  0.00    +0.000 C 
BRANCH  14  15
ATOM     15  C   UNL     1       1.126   9.056  21.068  0.00  0.00    +0.000 C 
BRANCH  15  16
ATOM     16  C   UNL     1       0.885   9.034  22.581  0.00  0.00    +0.000 C 
BRANCH  16  17
ATOM     17  C   UNL     1      -0.475   9.596  22.961  0.00  0.00    +0.000 C 
BRANCH  17  18
ATOM     18  C   UNL     1      -0.608  11.043  22.496  0.00  0.00    +0.000 C 
BRANCH  18  19
ATOM     19  C   UNL     1      -1.871  11.655  23.086  0.00  0.00    +0.000 C 
BRANCH  19  20
ATOM     20  C   UNL     1      -2.603  12.529  22.077  0.00  0.00    +0.000 C 
BRANCH  20  21
ATOM     21  C   UNL     1      -3.123  13.795  22.756  0.00  0.00    +0.000 C 
ATOM     22  C   UNL     1      -2.014  14.814  22.939  0.00  0.00    +0.000 C 
ENDBRANCH  20  21
ENDBRANCH  19  20
ENDBRANCH  18  19
ENDBRANCH  17  18
ENDBRANCH  16  17
ENDBRANCH  15  16
ENDBRANCH  14  15
ENDBRANCH   4  13
BRANCH   1  24
ATOM     23  C   UNL     1       6.296   5.117  16.245  0.00  0.00    +0.000 C 
ATOM     24  C   UNL     1       5.011   4.760  16.265  0.00  0.00    +0.000 C 
BRANCH  23  25
ATOM     25  C   UNL     1       7.134   5.013  14.995  0.00  0.00    +0.000 C 
BRANCH  25  26
ATOM     26  C   UNL     1       6.352   4.343  13.868  0.00  0.00    +0.000 C 
BRANCH  26  27
ATOM     27  C   UNL     1       7.296   3.798  12.799  0.00  0.00    +0.000 C 
BRANCH  27  28
ATOM     28  C   UNL     1       6.558   3.596  11.479  0.00  0.00    +0.000 C 
BRANCH  28  29
ATOM     29  C   UNL     1       5.344   2.690  11.664  0.00  0.00    +0.000 C 
BRANCH  29  30
ATOM     30  C   UNL     1       4.052   3.497  11.589  0.00  0.00    +0.000 C 
BRANCH  30  32
ATOM     31  C   UNL     1       2.894   4.264   9.499  0.00  0.00    +0.000 C 
ATOM     32  C   UNL     1       3.209   3.075  10.390  0.00  0.00    +0.000 C 
ENDBRANCH  30  32
ENDBRANCH  29  30
ENDBRANCH  28  29
ENDBRANCH  27  28
ENDBRANCH  26  27
ENDBRANCH  25  26
ENDBRANCH  23  25
ENDBRANCH   1  24
TORSDOF 16
ENDMDL
MODEL 6
REMARK VINA RESULT:      -6.8      1.987      2.759
REMARK  Name = 
REMARK  20 active torsions:
REMARK  status: ('A' for Active; 'I' for Inactive)
REMARK    1  A    between atoms: C_1  and  C_2
REMARK    2  A    between atoms: C_2  and  C_3
REMARK    3  A    between atoms: C_3  and  C_4
REMARK    4  A    between atoms: C_4  and  C_5
REMARK    5  A    between atoms: C_5  and  C_6
REMARK    6  A    between atoms: C_6  and  C_7
REMARK    7  A    between atoms: C_7  and  C_8
REMARK    8  A    between atoms: C_8  and  C_9
REMARK    9  A    between atoms: C_10  and  C_11
REMARK   10  A    between atoms: C_12  and  C_13
REMARK   11  A    between atoms: C_14  and  C_15
REMARK   12  A    between atoms: C_16  and  C_17
REMARK   13  A    between atoms: C_17  and  C_18
REMARK   14  A    between atoms: C_18  and  C_19
REMARK   15  A    between atoms: C_19  and  C_20
REMARK   16  A    between atoms: C_20  and  C_21
REMARK   17  A    between atoms: C_21  and  C_22
REMARK   18  A    between atoms: C_22  and  C_23
REMARK   19  A    between atoms: C_23  and  C_24
REMARK   20  A    between atoms: C_27  and  C_28
REMARK                            x       y       z     vdW  Elec       q    Type
REMARK                         _______ _______ _______ _____ _____    ______ ____
ROOT
ATOM      1  C   UNL     1       4.037   4.974  17.395  0.00  0.00    +0.000 A 
ATOM      2  C   UNL     1       3.513   6.184  17.887  0.00  0.00    +0.000 A 
ATOM      3  C   UNL     1       3.799   7.509  17.191  0.00  0.00    +0.000 C 
ATOM      4  C   UNL     1       2.685   6.163  19.036  0.00  0.00    +0.000 A 
ATOM      5  C   UNL     1       2.388   4.883  19.646  0.00  0.00    +0.000 A 
ATOM      6  N   UNL     1       2.980   3.736  19.176  0.00  0.00    +0.000 N 
ATOM      7  C   UNL     1       3.764   3.743  18.053  0.00  0.00    +0.000 A 
ATOM      8  C   UNL     1       4.334   2.461  17.476  0.00  0.00    +0.000 C 
ATOM      9  C   UNL     1       2.721   2.412  19.848  0.00  0.00    +0.000 C 
ATOM     10  C   UNL     1       2.253   2.528  21.279  0.00  0.00    +0.000 C 
ATOM     11  C   UNL     1       1.039   3.414  21.305  0.00  0.00    +0.000 C 
ATOM     12  C   UNL     1       1.448   4.807  20.841  0.00  0.00    +0.000 C 
ENDROOT
BRANCH   4  13
ATOM     13  C   UNL     1       2.085   7.438  19.546  0.00  0.00    +0.000 C 
ATOM     14  C   UNL     1       1.864   7.762  20.852  0.00  0.00    +0.000 C 
BRANCH  14  15
ATOM     15  C   UNL     1       1.249   9.050  21.344  0.00  0.00    +0.000 C 
BRANCH  15  16
ATOM     16  C   UNL     1      -0.235   9.064  20.963  0.00  0.00    +0.000 C 
BRANCH  16  17
ATOM     17  C   UNL     1      -0.537  10.043  19.840  0.00  0.00    +0.000 C 
BRANCH  17  18
ATOM     18  C   UNL     1       0.716  10.823  19.456  0.00  0.00    +0.000 C 
BRANCH  18  19
ATOM     19  C   UNL     1       0.451  12.316  19.597  0.00  0.00    +0.000 C 
BRANCH  19  20
ATOM     20  C   UNL     1       1.744  13.119  19.651  0.00  0.00    +0.000 C 
BRANCH  20  21
ATOM     21  C   UNL     1       2.433  13.102  18.288  0.00  0.00    +0.000 C 
ATOM     22  C   UNL     1       3.621  14.046  18.263  0.00  0.00    +0.000 C 
ENDBRANCH  20  21
ENDBRANCH  19  20
ENDBRANCH  18  19
ENDBRANCH  17  18
ENDBRANCH  16  17
ENDBRANCH  15  16
ENDBRANCH  14  15
ENDBRANCH   4  13
BRANCH   1  24
ATOM     23  C   UNL     1       6.176   5.002  16.108  0.00  0.00    +0.000 C 
ATOM     24  C   UNL     1       4.845   4.926  16.153  0.00  0.00    +0.000 C 
BRANCH  23  25
ATOM     25  C   UNL     1       6.933   4.953  14.804  0.00  0.00    +0.000 C 
BRANCH  25  26
ATOM     26  C   UNL     1       6.245   4.022  13.807  0.00  0.00    +0.000 C 
BRANCH  26  27
ATOM     27  C   UNL     1       7.021   3.962  12.494  0.00  0.00    +0.000 C 
BRANCH  27  28
ATOM     28  C   UNL     1       6.102   3.564  11.343  0.00  0.00    +0.000 C 
BRANCH  28  29
ATOM     29  C   UNL     1       4.951   2.692  11.838  0.00  0.00    +0.000 C 
BRANCH  29  30
ATOM     30  C   UNL     1       3.754   2.792  10.898  0.00  0.00    +0.000 C 
BRANCH  30  32
ATOM     31  C   UNL     1       2.746   4.329   9.189  0.00  0.00    +0.000 C 
ATOM     32  C   UNL     1       3.472   4.243  10.519  0.00  0.00    +0.000 C 
ENDBRANCH  30  32
ENDBRANCH  29  30
ENDBRANCH  28  29
ENDBRANCH  27  28
ENDBRANCH  26  27
ENDBRANCH  25  26
ENDBRANCH  23  25
ENDBRANCH   1  24
TORSDOF 16
ENDMDL
MODEL 7
REMARK VINA RESULT:      -6.6      1.399      8.677
REMARK  Name = 
REMARK  20 active torsions:
REMARK  status: ('A' for Active; 'I' for Inactive)
REMARK    1  A    between atoms: C_1  and  C_2
REMARK    2  A    between atoms: C_2  and  C_3
REMARK    3  A    between atoms: C_3  and  C_4
REMARK    4  A    between atoms: C_4  and  C_5
REMARK    5  A    between atoms: C_5  and  C_6
REMARK    6  A    between atoms: C_6  and  C_7
REMARK    7  A    between atoms: C_7  and  C_8
REMARK    8  A    between atoms: C_8  and  C_9
REMARK    9  A    between atoms: C_10  and  C_11
REMARK   10  A    between atoms: C_12  and  C_13
REMARK   11  A    between atoms: C_14  and  C_15
REMARK   12  A    between atoms: C_16  and  C_17
REMARK   13  A    between atoms: C_17  and  C_18
REMARK   14  A    between atoms: C_18  and  C_19
REMARK   15  A    between atoms: C_19  and  C_20
REMARK   16  A    between atoms: C_20  and  C_21
REMARK   17  A    between atoms: C_21  and  C_22
REMARK   18  A    between atoms: C_22  and  C_23
REMARK   19  A    between atoms: C_23  and  C_24
REMARK   20  A    between atoms: C_27  and  C_28
REMARK                            x       y       z     vdW  Elec       q    Type
REMARK                         _______ _______ _______ _____ _____    ______ ____
ROOT
ATOM      1  C   UNL     1       2.540   7.066  19.056  0.00  0.00    +0.000 A 
ATOM      2  C   UNL     1       3.509   6.584  18.156  0.00  0.00    +0.000 A 
ATOM      3  C   UNL     1       4.051   7.461  17.035  0.00  0.00    +0.000 C 
ATOM      4  C   UNL     1       4.006   5.267  18.315  0.00  0.00    +0.000 A 
ATOM      5  C   UNL     1       3.511   4.474  19.421  0.00  0.00    +0.000 A 
ATOM      6  N   UNL     1       2.512   4.959  20.231  0.00  0.00    +0.000 N 
ATOM      7  C   UNL     1       2.042   6.239  20.100  0.00  0.00    +0.000 A 
ATOM      8  C   UNL     1       1.012   6.807  21.058  0.00  0.00    +0.000 C 
ATOM      9  C   UNL     1       1.952   4.112  21.345  0.00  0.00    +0.000 C 
ATOM     10  C   UNL     1       2.165   2.629  21.157  0.00  0.00    +0.000 C 
ATOM     11  C   UNL     1       3.634   2.387  20.957  0.00  0.00    +0.000 C 
ATOM     12  C   UNL     1       4.067   3.079  19.669  0.00  0.00    +0.000 C 
ENDROOT
BRANCH   4  13
ATOM     13  C   UNL     1       5.069   4.754  17.391  0.00  0.00    +0.000 C 
ATOM     14  C   UNL     1       4.872   4.188  16.166  0.00  0.00    +0.000 C 
BRANCH  14  15
ATOM     15  C   UNL     1       5.958   3.669  15.255  0.00  0.00    +0.000 C 
BRANCH  15  16
ATOM     16  C   UNL     1       6.114   4.636  14.076  0.00  0.00    +0.000 C 
BRANCH  16  17
ATOM     17  C   UNL     1       7.555   4.754  13.608  0.00  0.00    +0.000 C 
BRANCH  17  18
ATOM     18  C   UNL     1       7.622   4.813  12.084  0.00  0.00    +0.000 C 
BRANCH  18  19
ATOM     19  C   UNL     1       6.561   3.896  11.491  0.00  0.00    +0.000 C 
BRANCH  19  20
ATOM     20  C   UNL     1       7.009   2.441  11.484  0.00  0.00    +0.000 C 
BRANCH  20  21
ATOM     21  C   UNL     1       5.794   1.516  11.454  0.00  0.00    +0.000 C 
ATOM     22  C   UNL     1       6.211   0.069  11.265  0.00  0.00    +0.000 C 
ENDBRANCH  20  21
ENDBRANCH  19  20
ENDBRANCH  18  19
ENDBRANCH  17  18
ENDBRANCH  16  17
ENDBRANCH  15  16
ENDBRANCH  14  15
ENDBRANCH   4  13
BRANCH   1  24
ATOM     23  C   UNL     1       1.221   8.929  18.045  0.00  0.00    +0.000 C 
ATOM     24  C   UNL     1       2.042   8.461  18.986  0.00  0.00    +0.000 C 
BRANCH  23  25
ATOM     25  C   UNL     1       0.759  10.365  18.033  0.00  0.00    +0.000 C 
BRANCH  25  26
ATOM     26  C   UNL     1      -0.245  10.625  19.155  0.00  0.00    +0.000 C 
BRANCH  26  27
ATOM     27  C   UNL     1      -1.600  11.041  18.588  0.00  0.00    +0.000 C 
BRANCH  27  28
ATOM     28  C   UNL     1      -2.376   9.822  18.098  0.00  0.00    +0.000 C 
BRANCH  28  29
ATOM     29  C   UNL     1      -3.410  10.219  17.047  0.00  0.00    +0.000 C 
BRANCH  29  30
ATOM     30  C   UNL     1      -2.729  10.614  15.741  0.00  0.00    +0.000 C 
BRANCH  30  32
ATOM     31  C   UNL     1      -2.857   9.679  13.416  0.00  0.00    +0.000 C 
ATOM     32  C   UNL     1      -3.633  10.336  14.544  0.00  0.00    +0.000 C 
ENDBRANCH  30  32
ENDBRANCH  29  30
ENDBRANCH  28  29
ENDBRANCH  27  28
ENDBRANCH  26  27
ENDBRANCH  25  26
ENDBRANCH  23  25
ENDBRANCH   1  24
TORSDOF 16
ENDMDL
MODEL 8
REMARK VINA RESULT:      -6.6      2.239      9.508
REMARK  Name = 
REMARK  20 active torsions:
REMARK  status: ('A' for Active; 'I' for Inactive)
REMARK    1  A    between atoms: C_1  and  C_2
REMARK    2  A    between atoms: C_2  and  C_3
REMARK    3  A    between atoms: C_3  and  C_4
REMARK    4  A    between atoms: C_4  and  C_5
REMARK    5  A    between atoms: C_5  and  C_6
REMARK    6  A    between atoms: C_6  and  C_7
REMARK    7  A    between atoms: C_7  and  C_8
REMARK    8  A    between atoms: C_8  and  C_9
REMARK    9  A    between atoms: C_10  and  C_11
REMARK   10  A    between atoms: C_12  and  C_13
REMARK   11  A    between atoms: C_14  and  C_15
REMARK   12  A    between atoms: C_16  and  C_17
REMARK   13  A    between atoms: C_17  and  C_18
REMARK   14  A    between atoms: C_18  and  C_19
REMARK   15  A    between atoms: C_19  and  C_20
REMARK   16  A    between atoms: C_20  and  C_21
REMARK   17  A    between atoms: C_21  and  C_22
REMARK   18  A    between atoms: C_22  and  C_23
REMARK   19  A    between atoms: C_23  and  C_24
REMARK   20  A    between atoms: C_27  and  C_28
REMARK                            x       y       z     vdW  Elec       q    Type
REMARK                         _______ _______ _______ _____ _____    ______ ____
ROOT
ATOM      1  C   UNL     1       2.527   7.298  19.077  0.00  0.00    +0.000 A 
ATOM      2  C   UNL     1       3.490   6.852  18.152  0.00  0.00    +0.000 A 
ATOM      3  C   UNL     1       4.027   7.774  17.065  0.00  0.00    +0.000 C 
ATOM      4  C   UNL     1       3.985   5.529  18.253  0.00  0.00    +0.000 A 
ATOM      5  C   UNL     1       3.495   4.692  19.329  0.00  0.00    +0.000 A 
ATOM      6  N   UNL     1       2.501   5.144  20.164  0.00  0.00    +0.000 N 
ATOM      7  C   UNL     1       2.033   6.429  20.088  0.00  0.00    +0.000 A 
ATOM      8  C   UNL     1       1.010   6.959  21.075  0.00  0.00    +0.000 C 
ATOM      9  C   UNL     1       1.946   4.253  21.245  0.00  0.00    +0.000 C 
ATOM     10  C   UNL     1       2.155   2.778  20.995  0.00  0.00    +0.000 C 
ATOM     11  C   UNL     1       3.623   2.542  20.777  0.00  0.00    +0.000 C 
ATOM     12  C   UNL     1       4.049   3.286  19.516  0.00  0.00    +0.000 C 
ENDROOT
BRANCH   4  13
ATOM     13  C   UNL     1       5.041   5.053  17.302  0.00  0.00    +0.000 C 
ATOM     14  C   UNL     1       4.917   4.044  16.394  0.00  0.00    +0.000 C 
BRANCH  14  15
ATOM     15  C   UNL     1       5.998   3.574  15.451  0.00  0.00    +0.000 C 
BRANCH  15  16
ATOM     16  C   UNL     1       5.692   4.106  14.047  0.00  0.00    +0.000 C 
BRANCH  16  17
ATOM     17  C   UNL     1       6.923   4.138  13.156  0.00  0.00    +0.000 C 
BRANCH  17  18
ATOM     18  C   UNL     1       6.610   3.541  11.787  0.00  0.00    +0.000 C 
BRANCH  18  19
ATOM     19  C   UNL     1       5.280   2.802  11.844  0.00  0.00    +0.000 C 
BRANCH  19  20
ATOM     20  C   UNL     1       4.110   3.711  11.495  0.00  0.00    +0.000 C 
BRANCH  20  21
ATOM     21  C   UNL     1       3.325   3.132  10.320  0.00  0.00    +0.000 C 
ATOM     22  C   UNL     1       2.828   4.230   9.399  0.00  0.00    +0.000 C 
ENDBRANCH  20  21
ENDBRANCH  19  20
ENDBRANCH  18  19
ENDBRANCH  17  18
ENDBRANCH  16  17
ENDBRANCH  15  16
ENDBRANCH  14  15
ENDBRANCH   4  13
BRANCH   1  24
ATOM     23  C   UNL     1       0.774   9.055  18.806  0.00  0.00    +0.000 C 
ATOM     24  C   UNL     1       2.031   8.695  19.067  0.00  0.00    +0.000 C 
BRANCH  23  25
ATOM     25  C   UNL     1       0.341  10.499  18.808  0.00  0.00    +0.000 C 
BRANCH  25  26
ATOM     26  C   UNL     1      -0.554  10.800  20.008  0.00  0.00    +0.000 C 
BRANCH  26  27
ATOM     27  C   UNL     1       0.178  10.521  21.318  0.00  0.00    +0.000 C 
BRANCH  27  28
ATOM     28  C   UNL     1      -0.609  11.069  22.504  0.00  0.00    +0.000 C 
BRANCH  28  29
ATOM     29  C   UNL     1      -0.878  12.563  22.338  0.00  0.00    +0.000 C 
BRANCH  29  30
ATOM     30  C   UNL     1      -1.940  13.033  23.327  0.00  0.00    +0.000 C 
BRANCH  30  32
ATOM     31  C   UNL     1      -3.915  13.017  21.780  0.00  0.00    +0.000 C 
ATOM     32  C   UNL     1      -3.294  12.401  23.021  0.00  0.00    +0.000 C 
ENDBRANCH  30  32
ENDBRANCH  29  30
ENDBRANCH  28  29
ENDBRANCH  27  28
ENDBRANCH  26  27
ENDBRANCH  25  26
ENDBRANCH  23  25
ENDBRANCH   1  24
TORSDOF 16
ENDMDL
MODEL 9
REMARK VINA RESULT:      -6.6      0.986      1.339
REMARK  Name = 
REMARK  20 active torsions:
REMARK  status: ('A' for Active; 'I' for Inactive)
REMARK    1  A    between atoms: C_1  and  C_2
REMARK    2  A    between atoms: C_2  and  C_3
REMARK    3  A    between atoms: C_3  and  C_4
REMARK    4  A    between atoms: C_4  and  C_5
REMARK    5  A    between atoms: C_5  and  C_6
REMARK    6  A    between atoms: C_6  and  C_7
REMARK    7  A    between atoms: C_7  and  C_8
REMARK    8  A    between atoms: C_8  and  C_9
REMARK    9  A    between atoms: C_10  and  C_11
REMARK   10  A    between atoms: C_12  and  C_13
REMARK   11  A    between atoms: C_14  and  C_15
REMARK   12  A    between atoms: C_16  and  C_17
REMARK   13  A    between atoms: C_17  and  C_18
REMARK   14  A    between atoms: C_18  and  C_19
REMARK   15  A    between atoms: C_19  and  C_20
REMARK   16  A    between atoms: C_20  and  C_21
REMARK   17  A    between atoms: C_21  and  C_22
REMARK   18  A    between atoms: C_22  and  C_23
REMARK   19  A    between atoms: C_23  and  C_24
REMARK   20  A    between atoms: C_27  and  C_28
REMARK                            x       y       z     vdW  Elec       q    Type
REMARK                         _______ _______ _______ _____ _____    ______ ____
ROOT
ATOM      1  C   UNL     1       4.268   5.073  17.266  0.00  0.00    +0.000 A 
ATOM      2  C   UNL     1       3.761   6.321  17.675  0.00  0.00    +0.000 A 
ATOM      3  C   UNL     1       4.168   7.608  16.969  0.00  0.00    +0.000 C 
ATOM      4  C   UNL     1       2.836   6.374  18.745  0.00  0.00    +0.000 A 
ATOM      5  C   UNL     1       2.427   5.130  19.364  0.00  0.00    +0.000 A 
ATOM      6  N   UNL     1       3.002   3.942  18.982  0.00  0.00    +0.000 N 
ATOM      7  C   UNL     1       3.880   3.877  17.932  0.00  0.00    +0.000 A 
ATOM      8  C   UNL     1       4.437   2.553  17.445  0.00  0.00    +0.000 C 
ATOM      9  C   UNL     1       2.624   2.654  19.665  0.00  0.00    +0.000 C 
ATOM     10  C   UNL     1       2.039   2.837  21.045  0.00  0.00    +0.000 C 
ATOM     11  C   UNL     1       0.871   3.777  20.939  0.00  0.00    +0.000 C 
ATOM     12  C   UNL     1       1.384   5.135  20.473  0.00  0.00    +0.000 C 
ENDROOT
BRANCH   4  13
ATOM     13  C   UNL     1       2.255   7.691  19.165  0.00  0.00    +0.000 C 
ATOM     14  C   UNL     1       1.829   8.687  18.337  0.00  0.00    +0.000 C 
BRANCH  14  15
ATOM     15  C   UNL     1       1.255  10.010  18.781  0.00  0.00    +0.000 C 
BRANCH  15  16
ATOM     16  C   UNL     1       0.072   9.744  19.719  0.00  0.00    +0.000 C 
BRANCH  16  17
ATOM     17  C   UNL     1      -0.923  10.893  19.741  0.00  0.00    +0.000 C 
BRANCH  17  18
ATOM     18  C   UNL     1      -1.580  11.061  18.374  0.00  0.00    +0.000 C 
BRANCH  18  19
ATOM     19  C   UNL     1      -2.523   9.894  18.115  0.00  0.00    +0.000 C 
BRANCH  19  20
ATOM     20  C   UNL     1      -3.395  10.131  16.890  0.00  0.00    +0.000 C 
BRANCH  20  21
ATOM     21  C   UNL     1      -2.637   9.749  15.620  0.00  0.00    +0.000 C 
ATOM     22  C   UNL     1      -3.407  10.158  14.378  0.00  0.00    +0.000 C 
ENDBRANCH  20  21
ENDBRANCH  19  20
ENDBRANCH  18  19
ENDBRANCH  17  18
ENDBRANCH  16  17
ENDBRANCH  15  16
ENDBRANCH  14  15
ENDBRANCH   4  13
BRANCH   1  24
ATOM     23  C   UNL     1       6.411   4.442  16.150  0.00  0.00    +0.000 C 
ATOM     24  C   UNL     1       5.177   4.948  16.102  0.00  0.00    +0.000 C 
BRANCH  23  25
ATOM     25  C   UNL     1       7.284   4.352  14.924  0.00  0.00    +0.000 C 
BRANCH  25  26
ATOM     26  C   UNL     1       6.640   5.071  13.740  0.00  0.00    +0.000 C 
BRANCH  26  27
ATOM     27  C   UNL     1       7.551   5.027  12.516  0.00  0.00    +0.000 C 
BRANCH  27  28
ATOM     28  C   UNL     1       7.220   3.822  11.640  0.00  0.00    +0.000 C 
BRANCH  28  29
ATOM     29  C   UNL     1       5.713   3.592  11.575  0.00  0.00    +0.000 C 
BRANCH  29  30
ATOM     30  C   UNL     1       5.386   2.111  11.739  0.00  0.00    +0.000 C 
BRANCH  30  32
ATOM     31  C   UNL     1       6.172  -0.238  11.332  0.00  0.00    +0.000 C 
ATOM     32  C   UNL     1       6.488   1.236  11.149  0.00  0.00    +0.000 C 
ENDBRANCH  30  32
ENDBRANCH  29  30
ENDBRANCH  28  29
ENDBRANCH  27  28
ENDBRANCH  26  27
ENDBRANCH  25  26
ENDBRANCH  23  25
ENDBRANCH   1  24
TORSDOF 16
ENDMDL
