MODEL 1
REMARK VINA RESULT:      -8.4      0.000      0.000
REMARK  Name = 
REMARK  11 active torsions:
REMARK  status: ('A' for Active; 'I' for Inactive)
REMARK    1  A    between atoms: C_1  and  C_2
REMARK    2  A    between atoms: N_5  and  C_6
REMARK    3  A    between atoms: C_8  and  C_9
REMARK    4  A    between atoms: C_9  and  C_10
REMARK    5  A    between atoms: C_9  and  C_11
REMARK    6  A    between atoms: C_9  and  C_12
REMARK    7  A    between atoms: C_15  and  C_16
REMARK    8  A    between atoms: C_16  and  N_17
REMARK    9  A    between atoms: C_18  and  C_20
REMARK   10  A    between atoms: C_20  and  C_21
REMARK   11  A    between atoms: C_20  and  C_22
REMARK                            x       y       z     vdW  Elec       q    Type
REMARK                         _______ _______ _______ _____ _____    ______ ____
ROOT
ATOM      1  C   UNL     1      -1.908  11.930  18.917  0.00  0.00    +0.000 A 
ATOM      2  N   UNL     1      -3.244  12.123  19.103  0.00  0.00    +0.000 NA
ATOM      3  C   UNL     1      -4.153  11.330  18.461  0.00  0.00    +0.000 A 
ATOM      4  C   UNL     1      -3.747  10.301  17.621  0.00  0.00    +0.000 A 
ATOM      5  C   UNL     1      -2.393  10.077  17.445  0.00  0.00    +0.000 A 
ATOM      6  C   UNL     1      -1.452  10.867  18.118  0.00  0.00    +0.000 A 
ENDROOT
BRANCH   1  11
ATOM      7  C   UNL     1       2.917  13.782  20.648  0.00  0.00    +0.000 C 
ATOM      8  C   UNL     1       1.391  13.884  20.633  0.00  0.00    +0.000 C 
ATOM      9  C   UNL     1       0.756  12.596  21.205  0.00  0.00    +0.000 C 
ATOM     10  C   UNL     1      -0.769  12.551  21.011  0.00  0.00    +0.000 C 
ATOM     11  N   UNL     1      -1.014  12.747  19.591  0.00  0.00    +0.000 N 
ATOM     12  C   UNL     1      -0.626  14.070  19.102  0.00  0.00    +0.000 C 
ATOM     13  C   UNL     1       0.900  14.181  19.207  0.00  0.00    +0.000 C 
ENDBRANCH   1  11
BRANCH   3  14
ATOM     14  C   UNL     1      -5.654  11.610  18.640  0.00  0.00    +0.000 C 
ATOM     15  C   UNL     1      -6.452  10.298  18.774  0.00  0.00    +0.000 C 
ATOM     16  C   UNL     1      -5.887  12.451  19.915  0.00  0.00    +0.000 C 
ATOM     17  C   UNL     1      -6.228  12.388  17.435  0.00  0.00    +0.000 C 
ENDBRANCH   3  14
BRANCH   6  18
ATOM     18  C   UNL     1       0.014  10.570  17.980  0.00  0.00    +0.000 C 
BRANCH  18  19
ATOM     19  N   UNL     1       0.531   9.586  18.889  0.00  0.00    +0.000 N 
ATOM     20  C   UNL     1       1.682   8.888  18.601  0.00  0.00    +0.000 C 
ATOM     21  O   UNL     1       2.273   8.988  17.523  0.00  0.00    +0.000 OA
ATOM     22  H   UNL     1       0.121   9.534  19.813  0.00  0.00    +0.000 HD
BRANCH  20  23
ATOM     23  C   UNL     1       2.147   7.997  19.735  0.00  0.00    +0.000 C 
ATOM     24  C   UNL     1       1.232   8.210  20.940  0.00  0.00    +0.000 C 
BRANCH  23  25
ATOM     25  C   UNL     1       2.203   6.540  19.305  0.00  0.00    +0.000 A 
ATOM     26  C   UNL     1       2.858   6.161  18.111  0.00  0.00    +0.000 A 
ATOM     27  C   UNL     1       2.889   4.829  17.690  0.00  0.00    +0.000 A 
ATOM     28  C   UNL     1       2.276   3.877  18.483  0.00  0.00    +0.000 A 
ATOM     29  C   UNL     1       1.636   4.234  19.673  0.00  0.00    +0.000 A 
ATOM     30  C   UNL     1       1.586   5.553  20.093  0.00  0.00    +0.000 A 
ATOM     31  C   UNL     1       1.009   3.035  20.316  0.00  0.00    +0.000 C 
ATOM     32  C   UNL     1       1.766   1.896  19.617  0.00  0.00    +0.000 C 
ATOM     33  C   UNL     1       2.132   2.411  18.218  0.00  0.00    +0.000 C 
ENDBRANCH  23  25
ENDBRANCH  20  23
ENDBRANCH  18  19
ENDBRANCH   6  18
TORSDOF 6
ENDMDL
MODEL 2
REMARK VINA RESULT:      -8.4      0.472      1.433
REMARK  Name = 
REMARK  11 active torsions:
REMARK  status: ('A' for Active; 'I' for Inactive)
REMARK    1  A    between atoms: C_1  and  C_2
REMARK    2  A    between atoms: N_5  and  C_6
REMARK    3  A    between atoms: C_8  and  C_9
REMARK    4  A    between atoms: C_9  and  C_10
REMARK    5  A    between atoms: C_9  and  C_11
REMARK    6  A    between atoms: C_9  and  C_12
REMARK    7  A    between atoms: C_15  and  C_16
REMARK    8  A    between atoms: C_16  and  N_17
REMARK    9  A    between atoms: C_18  and  C_20
REMARK   10  A    between atoms: C_20  and  C_21
REMARK   11  A    between atoms: C_20  and  C_22
REMARK                            x       y       z     vdW  Elec       q    Type
REMARK                         _______ _______ _______ _____ _____    ______ ____
ROOT
ATOM      1  C   UNL     1      -1.777  11.950  18.859  0.00  0.00    +0.000 A 
ATOM      2  N   UNL     1      -3.109  12.204  18.993  0.00  0.00    +0.000 NA
ATOM      3  C   UNL     1      -4.030  11.401  18.383  0.00  0.00    +0.000 A 
ATOM      4  C   UNL     1      -3.642  10.299  17.631  0.00  0.00    +0.000 A 
ATOM      5  C   UNL     1      -2.295  10.015  17.510  0.00  0.00    +0.000 A 
ATOM      6  C   UNL     1      -1.342  10.816  18.151  0.00  0.00    +0.000 A 
ENDROOT
BRANCH   1  11
ATOM      7  C   UNL     1       3.080  13.831  20.464  0.00  0.00    +0.000 C 
ATOM      8  C   UNL     1       1.554  13.936  20.473  0.00  0.00    +0.000 C 
ATOM      9  C   UNL     1       0.927  12.663  21.085  0.00  0.00    +0.000 C 
ATOM     10  C   UNL     1      -0.602  12.617  20.919  0.00  0.00    +0.000 C 
ATOM     11  N   UNL     1      -0.870  12.781  19.498  0.00  0.00    +0.000 N 
ATOM     12  C   UNL     1      -0.488  14.091  18.972  0.00  0.00    +0.000 C 
ATOM     13  C   UNL     1       1.040  14.201  19.048  0.00  0.00    +0.000 C 
ENDBRANCH   1  11
BRANCH   3  14
ATOM     14  C   UNL     1      -5.525  11.746  18.499  0.00  0.00    +0.000 C 
ATOM     15  C   UNL     1      -6.031  12.458  17.229  0.00  0.00    +0.000 C 
ATOM     16  C   UNL     1      -6.352  10.456  18.694  0.00  0.00    +0.000 C 
ATOM     17  C   UNL     1      -5.793  12.680  19.700  0.00  0.00    +0.000 C 
ENDBRANCH   3  14
BRANCH   6  18
ATOM     18  C   UNL     1       0.115  10.457  18.077  0.00  0.00    +0.000 C 
BRANCH  18  19
ATOM     19  N   UNL     1       0.572   9.528  19.072  0.00  0.00    +0.000 N 
ATOM     20  C   UNL     1       1.702   8.768  18.869  0.00  0.00    +0.000 C 
ATOM     21  O   UNL     1       2.321   8.762  17.802  0.00  0.00    +0.000 OA
ATOM     22  H   UNL     1       0.139   9.564  19.987  0.00  0.00    +0.000 HD
BRANCH  20  23
ATOM     23  C   UNL     1       2.105   7.952  20.080  0.00  0.00    +0.000 C 
ATOM     24  C   UNL     1       1.262   8.390  21.277  0.00  0.00    +0.000 C 
BRANCH  23  25
ATOM     25  C   UNL     1       1.985   6.462  19.807  0.00  0.00    +0.000 A 
ATOM     26  C   UNL     1       1.140   5.646  20.594  0.00  0.00    +0.000 A 
ATOM     27  C   UNL     1       1.044   4.271  20.372  0.00  0.00    +0.000 A 
ATOM     28  C   UNL     1       1.784   3.719  19.344  0.00  0.00    +0.000 A 
ATOM     29  C   UNL     1       2.614   4.514  18.547  0.00  0.00    +0.000 A 
ATOM     30  C   UNL     1       2.729   5.877  18.767  0.00  0.00    +0.000 A 
ATOM     31  C   UNL     1       3.344   3.676  17.544  0.00  0.00    +0.000 C 
ATOM     32  C   UNL     1       2.486   2.402  17.543  0.00  0.00    +0.000 C 
ATOM     33  C   UNL     1       1.888   2.279  18.951  0.00  0.00    +0.000 C 
ENDBRANCH  23  25
ENDBRANCH  20  23
ENDBRANCH  18  19
ENDBRANCH   6  18
TORSDOF 6
ENDMDL
MODEL 3
REMARK VINA RESULT:      -8.2      2.731      9.580
REMARK  Name = 
REMARK  11 active torsions:
REMARK  status: ('A' for Active; 'I' for Inactive)
REMARK    1  A    between atoms: C_1  and  C_2
REMARK    2  A    between atoms: N_5  and  C_6
REMARK    3  A    between atoms: C_8  and  C_9
REMARK    4  A    between atoms: C_9  and  C_10
REMARK    5  A    between atoms: C_9  and  C_11
REMARK    6  A    between atoms: C_9  and  C_12
REMARK    7  A    between atoms: C_15  and  C_16
REMARK    8  A    between atoms: C_16  and  N_17
REMARK    9  A    between atoms: C_18  and  C_20
REMARK   10  A    between atoms: C_20  and  C_21
REMARK   11  A    between atoms: C_20  and  C_22
REMARK                            x       y       z     vdW  Elec       q    Type
REMARK                         _______ _______ _______ _____ _____    ______ ____
ROOT
ATOM      1  C   UNL     1       3.554   4.943  17.896  0.00  0.00    +0.000 A 
ATOM      2  N   UNL     1       4.598   4.481  17.151  0.00  0.00    +0.000 NA
ATOM      3  C   UNL     1       5.376   5.349  16.440  0.00  0.00    +0.000 A 
ATOM      4  C   UNL     1       5.143   6.719  16.469  0.00  0.00    +0.000 A 
ATOM      5  C   UNL     1       4.104   7.202  17.242  0.00  0.00    +0.000 A 
ATOM      6  C   UNL     1       3.314   6.325  17.996  0.00  0.00    +0.000 A 
ENDROOT
BRANCH   1  11
ATOM      7  C   UNL     1       1.191   2.659  22.245  0.00  0.00    +0.000 C 
ATOM      8  C   UNL     1       1.471   2.659  20.741  0.00  0.00    +0.000 C 
ATOM      9  C   UNL     1       2.988   2.530  20.472  0.00  0.00    +0.000 C 
ATOM     10  C   UNL     1       3.348   2.746  18.992  0.00  0.00    +0.000 C 
ATOM     11  N   UNL     1       2.790   4.035  18.613  0.00  0.00    +0.000 N 
ATOM     12  C   UNL     1       1.328   4.077  18.639  0.00  0.00    +0.000 C 
ATOM     13  C   UNL     1       0.880   3.925  20.099  0.00  0.00    +0.000 C 
ENDBRANCH   1  11
BRANCH   3  14
ATOM     14  C   UNL     1       6.508   4.795  15.558  0.00  0.00    +0.000 C 
ATOM     15  C   UNL     1       6.025   3.593  14.723  0.00  0.00    +0.000 C 
ATOM     16  C   UNL     1       7.006   5.890  14.588  0.00  0.00    +0.000 C 
ATOM     17  C   UNL     1       7.705   4.323  16.413  0.00  0.00    +0.000 C 
ENDBRANCH   3  14
BRANCH   6  18
ATOM     18  C   UNL     1       2.236   6.864  18.892  0.00  0.00    +0.000 C 
BRANCH  18  19
ATOM     19  N   UNL     1       1.893   8.243  18.681  0.00  0.00    +0.000 N 
ATOM     20  C   UNL     1       1.294   8.986  19.674  0.00  0.00    +0.000 C 
ATOM     21  O   UNL     1       0.931   8.499  20.746  0.00  0.00    +0.000 OA
ATOM     22  H   UNL     1       2.246   8.696  17.847  0.00  0.00    +0.000 HD
BRANCH  20  23
ATOM     23  C   UNL     1       1.135  10.450  19.318  0.00  0.00    +0.000 C 
ATOM     24  C   UNL     1       2.136  10.806  18.219  0.00  0.00    +0.000 C 
BRANCH  23  25
ATOM     25  C   UNL     1      -0.296  10.768  18.916  0.00  0.00    +0.000 A 
ATOM     26  C   UNL     1      -1.089  11.647  19.690  0.00  0.00    +0.000 A 
ATOM     27  C   UNL     1      -2.414  11.923  19.348  0.00  0.00    +0.000 A 
ATOM     28  C   UNL     1      -2.937  11.328  18.215  0.00  0.00    +0.000 A 
ATOM     29  C   UNL     1      -2.162  10.467  17.431  0.00  0.00    +0.000 A 
ATOM     30  C   UNL     1      -0.851  10.174  17.769  0.00  0.00    +0.000 A 
ATOM     31  C   UNL     1      -2.969   9.915  16.297  0.00  0.00    +0.000 C 
ATOM     32  C   UNL     1      -4.131  10.918  16.246  0.00  0.00    +0.000 C 
ATOM     33  C   UNL     1      -4.331  11.426  17.681  0.00  0.00    +0.000 C 
ENDBRANCH  23  25
ENDBRANCH  20  23
ENDBRANCH  18  19
ENDBRANCH   6  18
TORSDOF 6
ENDMDL
MODEL 4
REMARK VINA RESULT:      -8.1      0.869      1.738
REMARK  Name = 
REMARK  11 active torsions:
REMARK  status: ('A' for Active; 'I' for Inactive)
REMARK    1  A    between atoms: C_1  and  C_2
REMARK    2  A    between atoms: N_5  and  C_6
REMARK    3  A    between atoms: C_8  and  C_9
REMARK    4  A    between atoms: C_9  and  C_10
REMARK    5  A    between atoms: C_9  and  C_11
REMARK    6  A    between atoms: C_9  and  C_12
REMARK    7  A    between atoms: C_15  and  C_16
REMARK    8  A    between atoms: C_16  and  N_17
REMARK    9  A    between atoms: C_18  and  C_20
REMARK   10  A    between atoms: C_20  and  C_21
REMARK   11  A    between atoms: C_20  and  C_22
REMARK                            x       y       z     vdW  Elec       q    Type
REMARK                         _______ _______ _______ _____ _____    ______ ____
ROOT
ATOM      1  C   UNL     1      -1.642  11.723  19.031  0.00  0.00    +0.000 A 
ATOM      2  N   UNL     1      -2.970  12.009  19.138  0.00  0.00    +0.000 NA
ATOM      3  C   UNL     1      -3.883  11.361  18.356  0.00  0.00    +0.000 A 
ATOM      4  C   UNL     1      -3.491  10.385  17.448  0.00  0.00    +0.000 A 
ATOM      5  C   UNL     1      -2.150  10.066  17.348  0.00  0.00    +0.000 A 
ATOM      6  C   UNL     1      -1.207  10.705  18.163  0.00  0.00    +0.000 A 
ENDROOT
BRANCH   1  11
ATOM      7  C   UNL     1       0.161  15.517  22.504  0.00  0.00    +0.000 C 
ATOM      8  C   UNL     1       0.425  14.278  21.646  0.00  0.00    +0.000 C 
ATOM      9  C   UNL     1       0.174  14.589  20.153  0.00  0.00    +0.000 C 
ATOM     10  C   UNL     1       0.210  13.329  19.271  0.00  0.00    +0.000 C 
ATOM     11  N   UNL     1      -0.744  12.393  19.846  0.00  0.00    +0.000 N 
ATOM     12  C   UNL     1      -0.372  11.914  21.177  0.00  0.00    +0.000 C 
ATOM     13  C   UNL     1      -0.437  13.106  22.141  0.00  0.00    +0.000 C 
ENDBRANCH   1  11
BRANCH   3  14
ATOM     14  C   UNL     1      -5.368  11.748  18.453  0.00  0.00    +0.000 C 
ATOM     15  C   UNL     1      -6.252  10.506  18.679  0.00  0.00    +0.000 C 
ATOM     16  C   UNL     1      -5.584  12.718  19.636  0.00  0.00    +0.000 C 
ATOM     17  C   UNL     1      -5.853  12.442  17.161  0.00  0.00    +0.000 C 
ENDBRANCH   3  14
BRANCH   6  18
ATOM     18  C   UNL     1       0.238  10.300  18.102  0.00  0.00    +0.000 C 
BRANCH  18  19
ATOM     19  N   UNL     1       0.660   9.368  19.111  0.00  0.00    +0.000 N 
ATOM     20  C   UNL     1       1.742   8.542  18.907  0.00  0.00    +0.000 C 
ATOM     21  O   UNL     1       2.341   8.478  17.831  0.00  0.00    +0.000 OA
ATOM     22  H   UNL     1       0.244   9.447  20.031  0.00  0.00    +0.000 HD
BRANCH  20  23
ATOM     23  C   UNL     1       2.119   7.730  20.130  0.00  0.00    +0.000 C 
ATOM     24  C   UNL     1       1.232   8.154  21.300  0.00  0.00    +0.000 C 
BRANCH  23  25
ATOM     25  C   UNL     1       2.030   6.239  19.851  0.00  0.00    +0.000 A 
ATOM     26  C   UNL     1       1.260   5.391  20.681  0.00  0.00    +0.000 A 
ATOM     27  C   UNL     1       1.195   4.015  20.453  0.00  0.00    +0.000 A 
ATOM     28  C   UNL     1       1.890   3.494  19.378  0.00  0.00    +0.000 A 
ATOM     29  C   UNL     1       2.646   4.321  18.540  0.00  0.00    +0.000 A 
ATOM     30  C   UNL     1       2.730   5.685  18.765  0.00  0.00    +0.000 A 
ATOM     31  C   UNL     1       3.341   3.513  17.489  0.00  0.00    +0.000 C 
ATOM     32  C   UNL     1       2.525   2.212  17.528  0.00  0.00    +0.000 C 
ATOM     33  C   UNL     1       2.016   2.060  18.968  0.00  0.00    +0.000 C 
ENDBRANCH  23  25
ENDBRANCH  20  23
ENDBRANCH  18  19
ENDBRANCH   6  18
TORSDOF 6
ENDMDL
MODEL 5
REMARK VINA RESULT:      -8.1      1.987      8.048
REMARK  Name = 
REMARK  11 active torsions:
REMARK  status: ('A' for Active; 'I' for Inactive)
REMARK    1  A    between atoms: C_1  and  C_2
REMARK    2  A    between atoms: N_5  and  C_6
REMARK    3  A    between atoms: C_8  and  C_9
REMARK    4  A    between atoms: C_9  and  C_10
REMARK    5  A    between atoms: C_9  and  C_11
REMARK    6  A    between atoms: C_9  and  C_12
REMARK    7  A    between atoms: C_15  and  C_16
REMARK    8  A    between atoms: C_16  and  N_17
REMARK    9  A    between atoms: C_18  and  C_20
REMARK   10  A    between atoms: C_20  and  C_21
REMARK   11  A    between atoms: C_20  and  C_22
REMARK                            x       y       z     vdW  Elec       q    Type
REMARK                         _______ _______ _______ _____ _____    ______ ____
ROOT
ATOM      1  C   UNL     1       1.287   9.111  20.116  0.00  0.00    +0.000 A 
ATOM      2  N   UNL     1       1.740   7.838  20.291  0.00  0.00    +0.000 NA
ATOM      3  C   UNL     1       2.218   7.123  19.230  0.00  0.00    +0.000 A 
ATOM      4  C   UNL     1       2.275   7.672  17.955  0.00  0.00    +0.000 A 
ATOM      5  C   UNL     1       1.843   8.972  17.769  0.00  0.00    +0.000 A 
ATOM      6  C   UNL     1       1.375   9.725  18.853  0.00  0.00    +0.000 A 
ENDROOT
BRANCH   1  11
ATOM      7  C   UNL     1      -2.315  11.683  23.298  0.00  0.00    +0.000 C 
ATOM      8  C   UNL     1      -0.883  11.214  23.034  0.00  0.00    +0.000 C 
ATOM      9  C   UNL     1      -0.333  11.853  21.739  0.00  0.00    +0.000 C 
ATOM     10  C   UNL     1       1.015  11.250  21.307  0.00  0.00    +0.000 C 
ATOM     11  N   UNL     1       0.816   9.812  21.215  0.00  0.00    +0.000 N 
ATOM     12  C   UNL     1       0.529   9.172  22.499  0.00  0.00    +0.000 C 
ATOM     13  C   UNL     1      -0.837   9.678  22.980  0.00  0.00    +0.000 C 
ENDBRANCH   1  11
BRANCH   3  14
ATOM     14  C   UNL     1       2.665   5.667  19.445  0.00  0.00    +0.000 C 
ATOM     15  C   UNL     1       2.146   4.754  18.317  0.00  0.00    +0.000 C 
ATOM     16  C   UNL     1       4.208   5.585  19.463  0.00  0.00    +0.000 C 
ATOM     17  C   UNL     1       2.134   5.108  20.784  0.00  0.00    +0.000 C 
ENDBRANCH   3  14
BRANCH   6  18
ATOM     18  C   UNL     1       0.978  11.160  18.657  0.00  0.00    +0.000 C 
BRANCH  18  19
ATOM     19  N   UNL     1      -0.158  11.374  17.805  0.00  0.00    +0.000 N 
ATOM     20  C   UNL     1      -1.386  10.830  18.108  0.00  0.00    +0.000 C 
ATOM     21  O   UNL     1      -1.559  10.057  19.053  0.00  0.00    +0.000 OA
ATOM     22  H   UNL     1      -0.074  12.064  17.068  0.00  0.00    +0.000 HD
BRANCH  20  23
ATOM     23  C   UNL     1      -2.491  11.276  17.173  0.00  0.00    +0.000 C 
ATOM     24  C   UNL     1      -2.635  10.251  16.049  0.00  0.00    +0.000 C 
BRANCH  23  25
ATOM     25  C   UNL     1      -3.795  11.493  17.923  0.00  0.00    +0.000 A 
ATOM     26  C   UNL     1      -5.030  11.097  17.360  0.00  0.00    +0.000 A 
ATOM     27  C   UNL     1      -6.238  11.318  18.025  0.00  0.00    +0.000 A 
ATOM     28  C   UNL     1      -6.200  11.922  19.268  0.00  0.00    +0.000 A 
ATOM     29  C   UNL     1      -4.986  12.308  19.845  0.00  0.00    +0.000 A 
ATOM     30  C   UNL     1      -3.783  12.107  19.187  0.00  0.00    +0.000 A 
ATOM     31  C   UNL     1      -5.217  12.983  21.161  0.00  0.00    +0.000 C 
ATOM     32  C   UNL     1      -6.643  12.514  21.487  0.00  0.00    +0.000 C 
ATOM     33  C   UNL     1      -7.352  12.308  20.141  0.00  0.00    +0.000 C 
ENDBRANCH  23  25
ENDBRANCH  20  23
ENDBRANCH  18  19
ENDBRANCH   6  18
TORSDOF 6
ENDMDL
MODEL 6
REMARK VINA RESULT:      -8.1      1.147      1.838
REMARK  Name = 
REMARK  11 active torsions:
REMARK  status: ('A' for Active; 'I' for Inactive)
REMARK    1  A    between atoms: C_1  and  C_2
REMARK    2  A    between atoms: N_5  and  C_6
REMARK    3  A    between atoms: C_8  and  C_9
REMARK    4  A    between atoms: C_9  and  C_10
REMARK    5  A    between atoms: C_9  and  C_11
REMARK    6  A    between atoms: C_9  and  C_12
REMARK    7  A    between atoms: C_15  and  C_16
REMARK    8  A    between atoms: C_16  and  N_17
REMARK    9  A    between atoms: C_18  and  C_20
REMARK   10  A    between atoms: C_20  and  C_21
REMARK   11  A    between atoms: C_20  and  C_22
REMARK                            x       y       z     vdW  Elec       q    Type
REMARK                         _______ _______ _______ _____ _____    ______ ____
ROOT
ATOM      1  C   UNL     1      -2.108  12.067  19.557  0.00  0.00    +0.000 A 
ATOM      2  N   UNL     1      -3.463  12.213  19.542  0.00  0.00    +0.000 NA
ATOM      3  C   UNL     1      -4.209  11.635  18.553  0.00  0.00    +0.000 A 
ATOM      4  C   UNL     1      -3.617  10.873  17.554  0.00  0.00    +0.000 A 
ATOM      5  C   UNL     1      -2.246  10.695  17.574  0.00  0.00    +0.000 A 
ATOM      6  C   UNL     1      -1.473  11.261  18.596  0.00  0.00    +0.000 A 
ENDROOT
BRANCH   1  11
ATOM      7  C   UNL     1      -1.180  15.135  23.966  0.00  0.00    +0.000 C 
ATOM      8  C   UNL     1      -0.656  14.212  22.864  0.00  0.00    +0.000 C 
ATOM      9  C   UNL     1      -0.904  14.835  21.472  0.00  0.00    +0.000 C 
ATOM     10  C   UNL     1      -0.600  13.858  20.323  0.00  0.00    +0.000 C 
ATOM     11  N   UNL     1      -1.383  12.659  20.580  0.00  0.00    +0.000 N 
ATOM     12  C   UNL     1      -0.978  11.936  21.785  0.00  0.00    +0.000 C 
ATOM     13  C   UNL     1      -1.301  12.823  22.995  0.00  0.00    +0.000 C 
ENDBRANCH   1  11
BRANCH   3  14
ATOM     14  C   UNL     1      -5.729  11.868  18.525  0.00  0.00    +0.000 C 
ATOM     15  C   UNL     1      -6.162  12.552  17.214  0.00  0.00    +0.000 C 
ATOM     16  C   UNL     1      -6.472  10.518  18.634  0.00  0.00    +0.000 C 
ATOM     17  C   UNL     1      -6.181  12.767  19.697  0.00  0.00    +0.000 C 
ENDBRANCH   3  14
BRANCH   6  18
ATOM     18  C   UNL     1       0.005  11.001  18.653  0.00  0.00    +0.000 C 
BRANCH  18  19
ATOM     19  N   UNL     1       0.407   9.911  19.497  0.00  0.00    +0.000 N 
ATOM     20  C   UNL     1       1.514   9.150  19.196  0.00  0.00    +0.000 C 
ATOM     21  O   UNL     1       2.157   9.288  18.153  0.00  0.00    +0.000 OA
ATOM     22  H   UNL     1      -0.046   9.818  20.398  0.00  0.00    +0.000 HD
BRANCH  20  23
ATOM     23  C   UNL     1       1.861   8.139  20.270  0.00  0.00    +0.000 C 
ATOM     24  C   UNL     1       0.846   8.254  21.407  0.00  0.00    +0.000 C 
BRANCH  23  25
ATOM     25  C   UNL     1       1.930   6.731  19.702  0.00  0.00    +0.000 A 
ATOM     26  C   UNL     1       2.427   6.499  18.399  0.00  0.00    +0.000 A 
ATOM     27  C   UNL     1       2.467   5.213  17.854  0.00  0.00    +0.000 A 
ATOM     28  C   UNL     1       2.023   4.159  18.629  0.00  0.00    +0.000 A 
ATOM     29  C   UNL     1       1.540   4.370  19.924  0.00  0.00    +0.000 A 
ATOM     30  C   UNL     1       1.482   5.642  20.470  0.00  0.00    +0.000 A 
ATOM     31  C   UNL     1       1.074   3.083  20.530  0.00  0.00    +0.000 C 
ATOM     32  C   UNL     1       1.781   2.059  19.630  0.00  0.00    +0.000 C 
ATOM     33  C   UNL     1       1.918   2.715  18.249  0.00  0.00    +0.000 C 
ENDBRANCH  23  25
ENDBRANCH  20  23
ENDBRANCH  18  19
ENDBRANCH   6  18
TORSDOF 6
ENDMDL
MODEL 7
REMARK VINA RESULT:      -8.0      2.744      9.601
REMARK  Name = 
REMARK  11 active torsions:
REMARK  status: ('A' for Active; 'I' for Inactive)
REMARK    1  A    between atoms: C_1  and  C_2
REMARK    2  A    between atoms: N_5  and  C_6
REMARK    3  A    between atoms: C_8  and  C_9
REMARK    4  A    between atoms: C_9  and  C_10
REMARK    5  A    between atoms: C_9  and  C_11
REMARK    6  A    between atoms: C_9  and  C_12
REMARK    7  A    between atoms: C_15  and  C_16
REMARK    8  A    between atoms: C_16  and  N_17
REMARK    9  A    between atoms: C_18  and  C_20
REMARK   10  A    between atoms: C_20  and  C_21
REMARK   11  A    between atoms: C_20  and  C_22
REMARK                            x       y       z     vdW  Elec       q    Type
REMARK                         _______ _______ _______ _____ _____    ______ ____
ROOT
ATOM      1  C   UNL     1       3.561   4.938  17.773  0.00  0.00    +0.000 A 
ATOM      2  N   UNL     1       4.542   4.481  16.945  0.00  0.00    +0.000 NA
ATOM      3  C   UNL     1       5.284   5.357  16.204  0.00  0.00    +0.000 A 
ATOM      4  C   UNL     1       5.077   6.728  16.286  0.00  0.00    +0.000 A 
ATOM      5  C   UNL     1       4.103   7.206  17.143  0.00  0.00    +0.000 A 
ATOM      6  C   UNL     1       3.353   6.320  17.926  0.00  0.00    +0.000 A 
ENDROOT
BRANCH   1  11
ATOM      7  C   UNL     1       1.256   2.712  22.183  0.00  0.00    +0.000 C 
ATOM      8  C   UNL     1       1.556   2.667  20.683  0.00  0.00    +0.000 C 
ATOM      9  C   UNL     1       3.080   2.603  20.436  0.00  0.00    +0.000 C 
ATOM     10  C   UNL     1       3.448   2.778  18.953  0.00  0.00    +0.000 C 
ATOM     11  N   UNL     1       2.833   4.023  18.517  0.00  0.00    +0.000 N 
ATOM     12  C   UNL     1       1.371   3.993  18.525  0.00  0.00    +0.000 C 
ATOM     13  C   UNL     1       0.912   3.876  19.985  0.00  0.00    +0.000 C 
ENDBRANCH   1  11
BRANCH   3  14
ATOM     14  C   UNL     1       6.343   4.810  15.231  0.00  0.00    +0.000 C 
ATOM     15  C   UNL     1       5.720   3.814  14.234  0.00  0.00    +0.000 C 
ATOM     16  C   UNL     1       6.971   5.970  14.427  0.00  0.00    +0.000 C 
ATOM     17  C   UNL     1       7.473   4.075  15.986  0.00  0.00    +0.000 C 
ENDBRANCH   3  14
BRANCH   6  18
ATOM     18  C   UNL     1       2.349   6.851  18.909  0.00  0.00    +0.000 C 
BRANCH  18  19
ATOM     19  N   UNL     1       1.911   8.199  18.675  0.00  0.00    +0.000 N 
ATOM     20  C   UNL     1       1.299   8.929  19.669  0.00  0.00    +0.000 C 
ATOM     21  O   UNL     1       1.002   8.450  20.765  0.00  0.00    +0.000 OA
ATOM     22  H   UNL     1       2.207   8.650  17.819  0.00  0.00    +0.000 HD
BRANCH  20  23
ATOM     23  C   UNL     1       1.034  10.370  19.281  0.00  0.00    +0.000 C 
ATOM     24  C   UNL     1       2.036  10.787  18.206  0.00  0.00    +0.000 C 
BRANCH  23  25
ATOM     25  C   UNL     1      -0.405  10.566  18.832  0.00  0.00    +0.000 A 
ATOM     26  C   UNL     1      -0.907   9.896  17.693  0.00  0.00    +0.000 A 
ATOM     27  C   UNL     1      -2.218  10.090  17.253  0.00  0.00    +0.000 A 
ATOM     28  C   UNL     1      -3.030  10.946  17.972  0.00  0.00    +0.000 A 
ATOM     29  C   UNL     1      -2.553  11.606  19.109  0.00  0.00    +0.000 A 
ATOM     30  C   UNL     1      -1.251  11.432  19.546  0.00  0.00    +0.000 A 
ATOM     31  C   UNL     1      -3.605  12.511  19.674  0.00  0.00    +0.000 C 
ATOM     32  C   UNL     1      -4.871  11.936  19.022  0.00  0.00    +0.000 C 
ATOM     33  C   UNL     1      -4.438  11.353  17.670  0.00  0.00    +0.000 C 
ENDBRANCH  23  25
ENDBRANCH  20  23
ENDBRANCH  18  19
ENDBRANCH   6  18
TORSDOF 6
ENDMDL
MODEL 8
REMARK VINA RESULT:      -8.0      0.958      1.783
REMARK  Name = 
REMARK  11 active torsions:
REMARK  status: ('A' for Active; 'I' for Inactive)
REMARK    1  A    between atoms: C_1  and  C_2
REMARK    2  A    between atoms: N_5  and  C_6
REMARK    3  A    between atoms: C_8  and  C_9
REMARK    4  A    between atoms: C_9  and  C_10
REMARK    5  A    between atoms: C_9  and  C_11
REMARK    6  A    between atoms: C_9  and  C_12
REMARK    7  A    between atoms: C_15  and  C_16
REMARK    8  A    between atoms: C_16  and  N_17
REMARK    9  A    between atoms: C_18  and  C_20
REMARK   10  A    between atoms: C_20  and  C_21
REMARK   11  A    between atoms: C_20  and  C_22
REMARK                            x       y       z     vdW  Elec       q    Type
REMARK                         _______ _______ _______ _____ _____    ______ ____
ROOT
ATOM      1  C   UNL     1      -2.365  11.844  18.716  0.00  0.00    +0.000 A 
ATOM      2  N   UNL     1      -3.671  12.130  18.976  0.00  0.00    +0.000 NA
ATOM      3  C   UNL     1      -4.667  11.384  18.411  0.00  0.00    +0.000 A 
ATOM      4  C   UNL     1      -4.381  10.310  17.578  0.00  0.00    +0.000 A 
ATOM      5  C   UNL     1      -3.058   9.993  17.327  0.00  0.00    +0.000 A 
ATOM      6  C   UNL     1      -2.028  10.734  17.920  0.00  0.00    +0.000 A 
ENDROOT
BRANCH   1  11
ATOM      7  C   UNL     1       2.590  13.144  20.581  0.00  0.00    +0.000 C 
ATOM      8  C   UNL     1       1.118  13.507  20.375  0.00  0.00    +0.000 C 
ATOM      9  C   UNL     1       0.203  12.504  21.113  0.00  0.00    +0.000 C 
ATOM     10  C   UNL     1      -1.283  12.689  20.762  0.00  0.00    +0.000 C 
ATOM     11  N   UNL     1      -1.379  12.616  19.312  0.00  0.00    +0.000 N 
ATOM     12  C   UNL     1      -0.706  13.714  18.620  0.00  0.00    +0.000 C 
ATOM     13  C   UNL     1       0.801  13.574  18.871  0.00  0.00    +0.000 C 
ENDBRANCH   1  11
BRANCH   3  14
ATOM     14  C   UNL     1      -6.134  11.767  18.672  0.00  0.00    +0.000 C 
ATOM     15  C   UNL     1      -6.262  12.656  19.924  0.00  0.00    +0.000 C 
ATOM     16  C   UNL     1      -6.699  12.546  17.464  0.00  0.00    +0.000 C 
ATOM     17  C   UNL     1      -7.010  10.513  18.894  0.00  0.00    +0.000 C 
ENDBRANCH   3  14
BRANCH   6  18
ATOM     18  C   UNL     1      -0.596  10.338  17.704  0.00  0.00    +0.000 C 
BRANCH  18  19
ATOM     19  N   UNL     1      -0.026   9.505  18.726  0.00  0.00    +0.000 N 
ATOM     20  C   UNL     1       1.318   9.562  19.021  0.00  0.00    +0.000 C 
ATOM     21  O   UNL     1       2.116  10.241  18.373  0.00  0.00    +0.000 OA
ATOM     22  H   UNL     1      -0.660   8.996  19.329  0.00  0.00    +0.000 HD
BRANCH  20  23
ATOM     23  C   UNL     1       1.709   8.716  20.216  0.00  0.00    +0.000 C 
ATOM     24  C   UNL     1       0.565   8.729  21.229  0.00  0.00    +0.000 C 
BRANCH  23  25
ATOM     25  C   UNL     1       2.086   7.305  19.794  0.00  0.00    +0.000 A 
ATOM     26  C   UNL     1       1.637   6.184  20.529  0.00  0.00    +0.000 A 
ATOM     27  C   UNL     1       2.002   4.885  20.169  0.00  0.00    +0.000 A 
ATOM     28  C   UNL     1       2.803   4.713  19.056  0.00  0.00    +0.000 A 
ATOM     29  C   UNL     1       3.244   5.811  18.310  0.00  0.00    +0.000 A 
ATOM     30  C   UNL     1       2.901   7.105  18.666  0.00  0.00    +0.000 A 
ATOM     31  C   UNL     1       4.136   5.366  17.193  0.00  0.00    +0.000 C 
ATOM     32  C   UNL     1       3.770   3.877  17.097  0.00  0.00    +0.000 C 
ATOM     33  C   UNL     1       3.364   3.437  18.511  0.00  0.00    +0.000 C 
ENDBRANCH  23  25
ENDBRANCH  20  23
ENDBRANCH  18  19
ENDBRANCH   6  18
TORSDOF 6
ENDMDL
MODEL 9
REMARK VINA RESULT:      -8.0      0.805      1.281
REMARK  Name = 
REMARK  11 active torsions:
REMARK  status: ('A' for Active; 'I' for Inactive)
REMARK    1  A    between atoms: C_1  and  C_2
REMARK    2  A    between atoms: N_5  and  C_6
REMARK    3  A    between atoms: C_8  and  C_9
REMARK    4  A    between atoms: C_9  and  C_10
REMARK    5  A    between atoms: C_9  and  C_11
REMARK    6  A    between atoms: C_9  and  C_12
REMARK    7  A    between atoms: C_15  and  C_16
REMARK    8  A    between atoms: C_16  and  N_17
REMARK    9  A    between atoms: C_18  and  C_20
REMARK   10  A    between atoms: C_20  and  C_21
REMARK   11  A    between atoms: C_20  and  C_22
REMARK                            x       y       z     vdW  Elec       q    Type
REMARK                         _______ _______ _______ _____ _____    ______ ____
ROOT
ATOM      1  C   UNL     1      -2.109  11.884  18.871  0.00  0.00    +0.000 A 
ATOM      2  N   UNL     1      -3.415  12.167  19.138  0.00  0.00    +0.000 NA
ATOM      3  C   UNL     1      -4.412  11.404  18.599  0.00  0.00    +0.000 A 
ATOM      4  C   UNL     1      -4.128  10.315  17.784  0.00  0.00    +0.000 A 
ATOM      5  C   UNL     1      -2.806  10.002  17.527  0.00  0.00    +0.000 A 
ATOM      6  C   UNL     1      -1.775  10.760  18.094  0.00  0.00    +0.000 A 
ENDROOT
BRANCH   1  11
ATOM      7  C   UNL     1       0.053  16.111  21.548  0.00  0.00    +0.000 C 
ATOM      8  C   UNL     1       0.233  14.791  20.796  0.00  0.00    +0.000 C 
ATOM      9  C   UNL     1      -0.281  14.919  19.345  0.00  0.00    +0.000 C 
ATOM     10  C   UNL     1      -0.329  13.567  18.612  0.00  0.00    +0.000 C 
ATOM     11  N   UNL     1      -1.123  12.673  19.441  0.00  0.00    +0.000 N 
ATOM     12  C   UNL     1      -0.508  12.363  20.732  0.00  0.00    +0.000 C 
ATOM     13  C   UNL     1      -0.472  13.656  21.557  0.00  0.00    +0.000 C 
ENDBRANCH   1  11
BRANCH   3  14
ATOM     14  C   UNL     1      -5.878  11.783  18.867  0.00  0.00    +0.000 C 
ATOM     15  C   UNL     1      -6.815  10.582  18.631  0.00  0.00    +0.000 C 
ATOM     16  C   UNL     1      -6.045  12.247  20.331  0.00  0.00    +0.000 C 
ATOM     17  C   UNL     1      -6.340  12.929  17.939  0.00  0.00    +0.000 C 
ENDBRANCH   3  14
BRANCH   6  18
ATOM     18  C   UNL     1      -0.342  10.368  17.871  0.00  0.00    +0.000 C 
BRANCH  18  19
ATOM     19  N   UNL     1       0.198   9.438  18.823  0.00  0.00    +0.000 N 
ATOM     20  C   UNL     1       1.543   9.147  18.847  0.00  0.00    +0.000 C 
ATOM     21  O   UNL     1       2.336   9.577  18.007  0.00  0.00    +0.000 OA
ATOM     22  H   UNL     1      -0.405   9.128  19.575  0.00  0.00    +0.000 HD
BRANCH  20  23
ATOM     23  C   UNL     1       1.946   8.255  20.004  0.00  0.00    +0.000 C 
ATOM     24  C   UNL     1       0.999   8.505  21.177  0.00  0.00    +0.000 C 
BRANCH  23  25
ATOM     25  C   UNL     1       1.975   6.793  19.591  0.00  0.00    +0.000 A 
ATOM     26  C   UNL     1       2.390   6.414  18.293  0.00  0.00    +0.000 A 
ATOM     27  C   UNL     1       2.393   5.077  17.891  0.00  0.00    +0.000 A 
ATOM     28  C   UNL     1       1.993   4.118  18.803  0.00  0.00    +0.000 A 
ATOM     29  C   UNL     1       1.592   4.474  20.094  0.00  0.00    +0.000 A 
ATOM     30  C   UNL     1       1.572   5.799  20.499  0.00  0.00    +0.000 A 
ATOM     31  C   UNL     1       1.160   3.266  20.866  0.00  0.00    +0.000 C 
ATOM     32  C   UNL     1       1.807   2.142  20.042  0.00  0.00    +0.000 C 
ATOM     33  C   UNL     1       1.860   2.642  18.591  0.00  0.00    +0.000 C 
ENDBRANCH  23  25
ENDBRANCH  20  23
ENDBRANCH  18  19
ENDBRANCH   6  18
TORSDOF 6
ENDMDL
