MODEL 1
REMARK VINA RESULT:      -8.9      0.000      0.000
REMARK  Name = 
REMARK  4 active torsions:
REMARK  status: ('A' for Active; 'I' for Inactive)
REMARK    1  A    between atoms: C_1  and  C_2
REMARK    2  A    between atoms: C_5  and  S_6
REMARK    3  A    between atoms: S_6  and  N_9
REMARK    4  A    between atoms: C_20  and  C_21
REMARK                            x       y       z     vdW  Elec       q    Type
REMARK                         _______ _______ _______ _____ _____    ______ ____
ROOT
ATOM      1  N   UNL     1       5.825   5.572  17.582  0.00  0.00    +0.000 N 
ATOM      2  C   UNL     1       5.321   4.796  18.618  0.00  0.00    +0.000 C 
ATOM      3  O   UNL     1       5.830   3.733  18.951  0.00  0.00    +0.000 OA
ATOM      4  N   UNL     1       4.227   5.261  19.289  0.00  0.00    +0.000 N 
ATOM      5  C   UNL     1       3.525   6.425  19.033  0.00  0.00    +0.000 A 
ATOM      6  N   UNL     1       3.769   7.083  17.887  0.00  0.00    +0.000 NA
ATOM      7  C   UNL     1       3.100   8.232  17.683  0.00  0.00    +0.000 A 
ATOM      8  C   UNL     1       2.219   8.752  18.597  0.00  0.00    +0.000 A 
ATOM      9  C   UNL     1       2.032   8.028  19.758  0.00  0.00    +0.000 A 
ATOM     10  N   UNL     1       2.657   6.839  19.973  0.00  0.00    +0.000 NA
ATOM     11  C   UNL     1       1.106   8.534  20.839  0.00  0.00    +0.000 C 
ATOM     12  C   UNL     1       0.811  10.041  20.711  0.00  0.00    +0.000 C 
ATOM     13  C   UNL     1       0.421  10.400  19.277  0.00  0.00    +0.000 C 
ATOM     14  C   UNL     1       1.527  10.017  18.334  0.00  0.00    +0.000 C 
ATOM     15  O   UNL     1       1.820  10.680  17.346  0.00  0.00    +0.000 OA
ATOM     16  H   UNL     1       5.308   6.402  17.304  0.00  0.00    +0.000 HD
ATOM     17  H   UNL     1       3.951   4.737  20.103  0.00  0.00    +0.000 HD
ENDROOT
BRANCH  12  18
ATOM     18  C   UNL     1      -0.260  10.465  21.661  0.00  0.00    +0.000 A 
ATOM     19  C   UNL     1      -0.655  10.023  22.906  0.00  0.00    +0.000 A 
ATOM     20  C   UNL     1      -1.751  10.835  23.288  0.00  0.00    +0.000 A 
ATOM     21  C   UNL     1      -1.940  11.731  22.262  0.00  0.00    +0.000 A 
ATOM     22  O   UNL     1      -1.033  11.519  21.274  0.00  0.00    +0.000 OA
ENDBRANCH  12  18
BRANCH   1  23
ATOM     23  S   UNL     1       7.164   5.278  16.666  0.00  0.00    +0.000 S 
ATOM     24  O   UNL     1       7.951   4.250  17.314  0.00  0.00    +0.000 OA
ATOM     25  O   UNL     1       7.745   6.572  16.378  0.00  0.00    +0.000 OA
BRANCH  23  30
ATOM     26  C   UNL     1       4.995   3.060  11.456  0.00  0.00    +0.000 C 
ATOM     27  C   UNL     1       5.537   3.624  12.737  0.00  0.00    +0.000 A 
ATOM     28  C   UNL     1       6.830   4.161  12.799  0.00  0.00    +0.000 A 
ATOM     29  C   UNL     1       7.328   4.672  14.000  0.00  0.00    +0.000 A 
ATOM     30  C   UNL     1       6.521   4.653  15.140  0.00  0.00    +0.000 A 
ATOM     31  C   UNL     1       5.232   4.123  15.095  0.00  0.00    +0.000 A 
ATOM     32  C   UNL     1       4.743   3.610  13.893  0.00  0.00    +0.000 A 
ENDBRANCH  23  30
ENDBRANCH   1  23
TORSDOF 3
ENDMDL
MODEL 2
REMARK VINA RESULT:      -8.8      6.126      7.731
REMARK  Name = 
REMARK  4 active torsions:
REMARK  status: ('A' for Active; 'I' for Inactive)
REMARK    1  A    between atoms: C_1  and  C_2
REMARK    2  A    between atoms: C_5  and  S_6
REMARK    3  A    between atoms: S_6  and  N_9
REMARK    4  A    between atoms: C_20  and  C_21
REMARK                            x       y       z     vdW  Elec       q    Type
REMARK                         _______ _______ _______ _____ _____    ______ ____
ROOT
ATOM      1  N   UNL     1       7.747   6.820  18.485  0.00  0.00    +0.000 N 
ATOM      2  C   UNL     1       7.454   7.293  17.212  0.00  0.00    +0.000 C 
ATOM      3  O   UNL     1       6.958   6.584  16.346  0.00  0.00    +0.000 OA
ATOM      4  N   UNL     1       7.721   8.603  16.942  0.00  0.00    +0.000 N 
ATOM      5  C   UNL     1       8.292   9.531  17.795  0.00  0.00    +0.000 A 
ATOM      6  N   UNL     1       8.858   9.094  18.932  0.00  0.00    +0.000 NA
ATOM      7  C   UNL     1       9.370  10.022  19.760  0.00  0.00    +0.000 A 
ATOM      8  C   UNL     1       9.312  11.367  19.497  0.00  0.00    +0.000 A 
ATOM      9  C   UNL     1       8.702  11.741  18.316  0.00  0.00    +0.000 A 
ATOM     10  N   UNL     1       8.216  10.825  17.435  0.00  0.00    +0.000 NA
ATOM     11  C   UNL     1       8.560  13.200  17.953  0.00  0.00    +0.000 C 
ATOM     12  C   UNL     1       8.721  14.134  19.168  0.00  0.00    +0.000 C 
ATOM     13  C   UNL     1       9.966  13.766  19.976  0.00  0.00    +0.000 C 
ATOM     14  C   UNL     1       9.872  12.339  20.440  0.00  0.00    +0.000 C 
ATOM     15  O   UNL     1      10.291  11.963  21.529  0.00  0.00    +0.000 OA
ATOM     16  H   UNL     1       8.233   7.438  19.130  0.00  0.00    +0.000 HD
ATOM     17  H   UNL     1       7.398   8.947  16.052  0.00  0.00    +0.000 HD
ENDROOT
BRANCH  12  18
ATOM     18  C   UNL     1       8.781  15.565  18.747  0.00  0.00    +0.000 A 
ATOM     19  C   UNL     1       7.911  16.628  18.869  0.00  0.00    +0.000 A 
ATOM     20  C   UNL     1       8.544  17.734  18.250  0.00  0.00    +0.000 A 
ATOM     21  C   UNL     1       9.765  17.279  17.809  0.00  0.00    +0.000 A 
ATOM     22  O   UNL     1       9.920  15.965  18.115  0.00  0.00    +0.000 OA
ENDBRANCH  12  18
BRANCH   1  23
ATOM     23  S   UNL     1       7.460   5.313  19.087  0.00  0.00    +0.000 S 
ATOM     24  O   UNL     1       7.655   5.343  20.522  0.00  0.00    +0.000 OA
ATOM     25  O   UNL     1       8.223   4.400  18.264  0.00  0.00    +0.000 OA
BRANCH  23  30
ATOM     26  C   UNL     1       1.611   4.362  17.800  0.00  0.00    +0.000 C 
ATOM     27  C   UNL     1       3.055   4.597  18.136  0.00  0.00    +0.000 A 
ATOM     28  C   UNL     1       3.433   5.617  19.020  0.00  0.00    +0.000 A 
ATOM     29  C   UNL     1       4.780   5.835  19.316  0.00  0.00    +0.000 A 
ATOM     30  C   UNL     1       5.752   5.018  18.731  0.00  0.00    +0.000 A 
ATOM     31  C   UNL     1       5.392   3.998  17.850  0.00  0.00    +0.000 A 
ATOM     32  C   UNL     1       4.044   3.791  17.555  0.00  0.00    +0.000 A 
ENDBRANCH  23  30
ENDBRANCH   1  23
TORSDOF 3
ENDMDL
MODEL 3
REMARK VINA RESULT:      -8.8      2.355      3.143
REMARK  Name = 
REMARK  4 active torsions:
REMARK  status: ('A' for Active; 'I' for Inactive)
REMARK    1  A    between atoms: C_1  and  C_2
REMARK    2  A    between atoms: C_5  and  S_6
REMARK    3  A    between atoms: S_6  and  N_9
REMARK    4  A    between atoms: C_20  and  C_21
REMARK                            x       y       z     vdW  Elec       q    Type
REMARK                         _______ _______ _______ _____ _____    ______ ____
ROOT
ATOM      1  N   UNL     1       3.219   4.190  19.741  0.00  0.00    +0.000 N 
ATOM      2  C   UNL     1       2.445   4.183  20.894  0.00  0.00    +0.000 C 
ATOM      3  O   UNL     1       2.378   3.210  21.635  0.00  0.00    +0.000 OA
ATOM      4  N   UNL     1       1.754   5.318  21.205  0.00  0.00    +0.000 N 
ATOM      5  C   UNL     1       1.707   6.491  20.473  0.00  0.00    +0.000 A 
ATOM      6  N   UNL     1       2.191   6.487  19.221  0.00  0.00    +0.000 NA
ATOM      7  C   UNL     1       2.167   7.652  18.547  0.00  0.00    +0.000 A 
ATOM      8  C   UNL     1       1.699   8.818  19.096  0.00  0.00    +0.000 A 
ATOM      9  C   UNL     1       1.232   8.748  20.394  0.00  0.00    +0.000 A 
ATOM     10  N   UNL     1       1.198   7.576  21.084  0.00  0.00    +0.000 NA
ATOM     11  C   UNL     1       0.725   9.986  21.097  0.00  0.00    +0.000 C 
ATOM     12  C   UNL     1       1.205  11.288  20.427  0.00  0.00    +0.000 C 
ATOM     13  C   UNL     1       0.979  11.239  18.916  0.00  0.00    +0.000 C 
ATOM     14  C   UNL     1       1.709  10.065  18.326  0.00  0.00    +0.000 C 
ATOM     15  O   UNL     1       2.247  10.099  17.225  0.00  0.00    +0.000 OA
ATOM     16  H   UNL     1       3.167   4.999  19.128  0.00  0.00    +0.000 HD
ATOM     17  H   UNL     1       1.292   5.325  22.099  0.00  0.00    +0.000 HD
ENDROOT
BRANCH  12  18
ATOM     18  C   UNL     1       0.527  12.481  21.015  0.00  0.00    +0.000 A 
ATOM     19  C   UNL     1       0.375  13.787  20.601  0.00  0.00    +0.000 A 
ATOM     20  C   UNL     1      -0.368  14.441  21.614  0.00  0.00    +0.000 A 
ATOM     21  C   UNL     1      -0.638  13.489  22.568  0.00  0.00    +0.000 A 
ATOM     22  O   UNL     1      -0.105  12.293  22.208  0.00  0.00    +0.000 OA
ENDBRANCH  12  18
BRANCH   1  23
ATOM     23  S   UNL     1       4.197   2.987  19.180  0.00  0.00    +0.000 S 
ATOM     24  O   UNL     1       3.368   1.899  18.707  0.00  0.00    +0.000 OA
ATOM     25  O   UNL     1       5.185   2.759  20.212  0.00  0.00    +0.000 OA
BRANCH  23  30
ATOM     26  C   UNL     1       7.149   5.417  14.474  0.00  0.00    +0.000 C 
ATOM     27  C   UNL     1       6.421   4.831  15.648  0.00  0.00    +0.000 A 
ATOM     28  C   UNL     1       6.975   4.872  16.934  0.00  0.00    +0.000 A 
ATOM     29  C   UNL     1       6.294   4.312  18.017  0.00  0.00    +0.000 A 
ATOM     30  C   UNL     1       5.046   3.718  17.810  0.00  0.00    +0.000 A 
ATOM     31  C   UNL     1       4.480   3.670  16.536  0.00  0.00    +0.000 A 
ATOM     32  C   UNL     1       5.169   4.227  15.458  0.00  0.00    +0.000 A 
ENDBRANCH  23  30
ENDBRANCH   1  23
TORSDOF 3
ENDMDL
MODEL 4
REMARK VINA RESULT:      -8.7      2.985      3.800
REMARK  Name = 
REMARK  4 active torsions:
REMARK  status: ('A' for Active; 'I' for Inactive)
REMARK    1  A    between atoms: C_1  and  C_2
REMARK    2  A    between atoms: C_5  and  S_6
REMARK    3  A    between atoms: S_6  and  N_9
REMARK    4  A    between atoms: C_20  and  C_21
REMARK                            x       y       z     vdW  Elec       q    Type
REMARK                         _______ _______ _______ _____ _____    ______ ____
ROOT
ATOM      1  N   UNL     1       3.413   5.116  19.555  0.00  0.00    +0.000 N 
ATOM      2  C   UNL     1       2.551   4.649  20.539  0.00  0.00    +0.000 C 
ATOM      3  O   UNL     1       2.607   3.505  20.972  0.00  0.00    +0.000 OA
ATOM      4  N   UNL     1       1.627   5.518  21.042  0.00  0.00    +0.000 N 
ATOM      5  C   UNL     1       1.420   6.830  20.656  0.00  0.00    +0.000 A 
ATOM      6  N   UNL     1       2.010   7.269  19.532  0.00  0.00    +0.000 NA
ATOM      7  C   UNL     1       1.823   8.560  19.203  0.00  0.00    +0.000 A 
ATOM      8  C   UNL     1       1.087   9.425  19.973  0.00  0.00    +0.000 A 
ATOM      9  C   UNL     1       0.524   8.905  21.121  0.00  0.00    +0.000 A 
ATOM     10  N   UNL     1       0.655   7.593  21.457  0.00  0.00    +0.000 NA
ATOM     11  C   UNL     1      -0.277   9.785  22.051  0.00  0.00    +0.000 C 
ATOM     12  C   UNL     1       0.000  11.286  21.835  0.00  0.00    +0.000 C 
ATOM     13  C   UNL     1      -0.071  11.645  20.351  0.00  0.00    +0.000 C 
ATOM     14  C   UNL     1       0.926  10.827  19.577  0.00  0.00    +0.000 C 
ATOM     15  O   UNL     1       1.547  11.267  18.616  0.00  0.00    +0.000 OA
ATOM     16  H   UNL     1       3.261   6.050  19.183  0.00  0.00    +0.000 HD
ATOM     17  H   UNL     1       1.092   5.189  21.828  0.00  0.00    +0.000 HD
ENDROOT
BRANCH  12  18
ATOM     18  C   UNL     1      -0.949  12.130  22.619  0.00  0.00    +0.000 A 
ATOM     19  C   UNL     1      -2.269  11.983  22.987  0.00  0.00    +0.000 A 
ATOM     20  C   UNL     1      -2.609  13.145  23.723  0.00  0.00    +0.000 A 
ATOM     21  C   UNL     1      -1.471  13.914  23.772  0.00  0.00    +0.000 A 
ATOM     22  O   UNL     1      -0.456  13.301  23.112  0.00  0.00    +0.000 OA
ENDBRANCH  12  18
BRANCH   1  23
ATOM     23  S   UNL     1       4.655   4.302  18.838  0.00  0.00    +0.000 S 
ATOM     24  O   UNL     1       4.164   3.688  17.622  0.00  0.00    +0.000 OA
ATOM     25  O   UNL     1       5.257   3.493  19.875  0.00  0.00    +0.000 OA
BRANCH  23  30
ATOM     26  C   UNL     1       8.628   8.682  17.495  0.00  0.00    +0.000 C 
ATOM     27  C   UNL     1       7.643   7.594  17.810  0.00  0.00    +0.000 A 
ATOM     28  C   UNL     1       6.408   7.526  17.150  0.00  0.00    +0.000 A 
ATOM     29  C   UNL     1       5.494   6.516  17.460  0.00  0.00    +0.000 A 
ATOM     30  C   UNL     1       5.825   5.565  18.429  0.00  0.00    +0.000 A 
ATOM     31  C   UNL     1       7.050   5.619  19.094  0.00  0.00    +0.000 A 
ATOM     32  C   UNL     1       7.956   6.633  18.782  0.00  0.00    +0.000 A 
ENDBRANCH  23  30
ENDBRANCH   1  23
TORSDOF 3
ENDMDL
MODEL 5
REMARK VINA RESULT:      -8.6      2.432      3.244
REMARK  Name = 
REMARK  4 active torsions:
REMARK  status: ('A' for Active; 'I' for Inactive)
REMARK    1  A    between atoms: C_1  and  C_2
REMARK    2  A    between atoms: C_5  and  S_6
REMARK    3  A    between atoms: S_6  and  N_9
REMARK    4  A    between atoms: C_20  and  C_21
REMARK                            x       y       z     vdW  Elec       q    Type
REMARK                         _______ _______ _______ _____ _____    ______ ____
ROOT
ATOM      1  N   UNL     1       3.213   4.173  19.797  0.00  0.00    +0.000 N 
ATOM      2  C   UNL     1       2.437   4.175  20.948  0.00  0.00    +0.000 C 
ATOM      3  O   UNL     1       2.365   3.207  21.695  0.00  0.00    +0.000 OA
ATOM      4  N   UNL     1       1.749   5.314  21.251  0.00  0.00    +0.000 N 
ATOM      5  C   UNL     1       1.706   6.484  20.513  0.00  0.00    +0.000 A 
ATOM      6  N   UNL     1       2.193   6.470  19.261  0.00  0.00    +0.000 NA
ATOM      7  C   UNL     1       2.174   7.631  18.581  0.00  0.00    +0.000 A 
ATOM      8  C   UNL     1       1.708   8.802  19.122  0.00  0.00    +0.000 A 
ATOM      9  C   UNL     1       1.238   8.741  20.419  0.00  0.00    +0.000 A 
ATOM     10  N   UNL     1       1.200   7.573  21.116  0.00  0.00    +0.000 NA
ATOM     11  C   UNL     1       0.734   9.984  21.113  0.00  0.00    +0.000 C 
ATOM     12  C   UNL     1       1.220  11.281  20.437  0.00  0.00    +0.000 C 
ATOM     13  C   UNL     1       0.996  11.224  18.926  0.00  0.00    +0.000 C 
ATOM     14  C   UNL     1       1.724  10.044  18.344  0.00  0.00    +0.000 C 
ATOM     15  O   UNL     1       2.264  10.070  17.244  0.00  0.00    +0.000 OA
ATOM     16  H   UNL     1       3.164   4.979  19.179  0.00  0.00    +0.000 HD
ATOM     17  H   UNL     1       1.285   5.328  22.145  0.00  0.00    +0.000 HD
ENDROOT
BRANCH  12  18
ATOM     18  C   UNL     1       0.544  12.480  21.017  0.00  0.00    +0.000 A 
ATOM     19  C   UNL     1      -0.777  12.838  21.183  0.00  0.00    +0.000 A 
ATOM     20  C   UNL     1      -0.769  14.116  21.793  0.00  0.00    +0.000 A 
ATOM     21  C   UNL     1       0.554  14.446  21.976  0.00  0.00    +0.000 A 
ATOM     22  O   UNL     1       1.357  13.453  21.515  0.00  0.00    +0.000 OA
ENDBRANCH  12  18
BRANCH   1  23
ATOM     23  S   UNL     1       4.188   2.963  19.245  0.00  0.00    +0.000 S 
ATOM     24  O   UNL     1       3.356   1.877  18.772  0.00  0.00    +0.000 OA
ATOM     25  O   UNL     1       5.171   2.736  20.282  0.00  0.00    +0.000 OA
BRANCH  23  30
ATOM     26  C   UNL     1       7.086   5.514  14.569  0.00  0.00    +0.000 C 
ATOM     27  C   UNL     1       6.367   4.868  15.716  0.00  0.00    +0.000 A 
ATOM     28  C   UNL     1       5.133   4.230  15.527  0.00  0.00    +0.000 A 
ATOM     29  C   UNL     1       4.467   3.643  16.605  0.00  0.00    +0.000 A 
ATOM     30  C   UNL     1       5.047   3.686  17.876  0.00  0.00    +0.000 A 
ATOM     31  C   UNL     1       6.275   4.316  18.080  0.00  0.00    +0.000 A 
ATOM     32  C   UNL     1       6.931   4.905  17.000  0.00  0.00    +0.000 A 
ENDBRANCH  23  30
ENDBRANCH   1  23
TORSDOF 3
ENDMDL
MODEL 6
REMARK VINA RESULT:      -8.6      3.300     10.350
REMARK  Name = 
REMARK  4 active torsions:
REMARK  status: ('A' for Active; 'I' for Inactive)
REMARK    1  A    between atoms: C_1  and  C_2
REMARK    2  A    between atoms: C_5  and  S_6
REMARK    3  A    between atoms: S_6  and  N_9
REMARK    4  A    between atoms: C_20  and  C_21
REMARK                            x       y       z     vdW  Elec       q    Type
REMARK                         _______ _______ _______ _____ _____    ______ ____
ROOT
ATOM      1  N   UNL     1       0.280  11.728  20.321  0.00  0.00    +0.000 N 
ATOM      2  C   UNL     1       0.526  12.117  19.010  0.00  0.00    +0.000 C 
ATOM      3  O   UNL     1       0.250  13.235  18.594  0.00  0.00    +0.000 OA
ATOM      4  N   UNL     1       1.113  11.211  18.176  0.00  0.00    +0.000 N 
ATOM      5  C   UNL     1       1.472   9.910  18.479  0.00  0.00    +0.000 A 
ATOM      6  N   UNL     1       1.020   9.369  19.621  0.00  0.00    +0.000 NA
ATOM      7  C   UNL     1       1.416   8.115  19.908  0.00  0.00    +0.000 A 
ATOM      8  C   UNL     1       2.267   7.402  19.103  0.00  0.00    +0.000 A 
ATOM      9  C   UNL     1       2.703   8.030  17.953  0.00  0.00    +0.000 A 
ATOM     10  N   UNL     1       2.282   9.278  17.611  0.00  0.00    +0.000 NA
ATOM     11  C   UNL     1       3.667   7.339  17.017  0.00  0.00    +0.000 C 
ATOM     12  C   UNL     1       4.409   6.167  17.688  0.00  0.00    +0.000 C 
ATOM     13  C   UNL     1       3.430   5.256  18.430  0.00  0.00    +0.000 C 
ATOM     14  C   UNL     1       2.682   6.045  19.468  0.00  0.00    +0.000 C 
ATOM     15  O   UNL     1       2.365   5.581  20.558  0.00  0.00    +0.000 OA
ATOM     16  H   UNL     1       0.457  10.761  20.580  0.00  0.00    +0.000 HD
ATOM     17  H   UNL     1       1.381  11.554  17.268  0.00  0.00    +0.000 HD
ENDROOT
BRANCH  12  18
ATOM     18  C   UNL     1       5.194   5.381  16.691  0.00  0.00    +0.000 A 
ATOM     19  C   UNL     1       5.114   4.086  16.226  0.00  0.00    +0.000 A 
ATOM     20  C   UNL     1       6.160   3.936  15.283  0.00  0.00    +0.000 A 
ATOM     21  C   UNL     1       6.797   5.153  15.220  0.00  0.00    +0.000 A 
ATOM     22  O   UNL     1       6.211   6.039  16.065  0.00  0.00    +0.000 OA
ENDBRANCH  12  18
BRANCH   1  23
ATOM     23  S   UNL     1      -0.349  12.644  21.540  0.00  0.00    +0.000 S 
ATOM     24  O   UNL     1       0.129  14.002  21.392  0.00  0.00    +0.000 OA
ATOM     25  O   UNL     1      -0.101  11.909  22.761  0.00  0.00    +0.000 OA
BRANCH  23  30
ATOM     26  C   UNL     1      -6.335  12.583  20.579  0.00  0.00    +0.000 C 
ATOM     27  C   UNL     1      -4.856  12.586  20.829  0.00  0.00    +0.000 A 
ATOM     28  C   UNL     1      -4.344  12.747  22.124  0.00  0.00    +0.000 A 
ATOM     29  C   UNL     1      -2.965  12.760  22.344  0.00  0.00    +0.000 A 
ATOM     30  C   UNL     1      -2.096  12.601  21.261  0.00  0.00    +0.000 A 
ATOM     31  C   UNL     1      -2.590  12.438  19.967  0.00  0.00    +0.000 A 
ATOM     32  C   UNL     1      -3.968  12.431  19.755  0.00  0.00    +0.000 A 
ENDBRANCH  23  30
ENDBRANCH   1  23
TORSDOF 3
ENDMDL
MODEL 7
REMARK VINA RESULT:      -8.4      3.389     10.423
REMARK  Name = 
REMARK  4 active torsions:
REMARK  status: ('A' for Active; 'I' for Inactive)
REMARK    1  A    between atoms: C_1  and  C_2
REMARK    2  A    between atoms: C_5  and  S_6
REMARK    3  A    between atoms: S_6  and  N_9
REMARK    4  A    between atoms: C_20  and  C_21
REMARK                            x       y       z     vdW  Elec       q    Type
REMARK                         _______ _______ _______ _____ _____    ______ ____
ROOT
ATOM      1  N   UNL     1       0.405  11.770  20.532  0.00  0.00    +0.000 N 
ATOM      2  C   UNL     1       0.597  12.173  19.217  0.00  0.00    +0.000 C 
ATOM      3  O   UNL     1       0.323  13.301  18.828  0.00  0.00    +0.000 OA
ATOM      4  N   UNL     1       1.130  11.268  18.345  0.00  0.00    +0.000 N 
ATOM      5  C   UNL     1       1.479   9.957  18.614  0.00  0.00    +0.000 A 
ATOM      6  N   UNL     1       1.070   9.408  19.769  0.00  0.00    +0.000 NA
ATOM      7  C   UNL     1       1.457   8.144  20.021  0.00  0.00    +0.000 A 
ATOM      8  C   UNL     1       2.257   7.427  19.168  0.00  0.00    +0.000 A 
ATOM      9  C   UNL     1       2.651   8.064  18.007  0.00  0.00    +0.000 A 
ATOM     10  N   UNL     1       2.237   9.323  17.701  0.00  0.00    +0.000 NA
ATOM     11  C   UNL     1       3.558   7.369  17.019  0.00  0.00    +0.000 C 
ATOM     12  C   UNL     1       4.309   6.175  17.640  0.00  0.00    +0.000 C 
ATOM     13  C   UNL     1       3.349   5.271  18.414  0.00  0.00    +0.000 C 
ATOM     14  C   UNL     1       2.664   6.058  19.496  0.00  0.00    +0.000 C 
ATOM     15  O   UNL     1       2.389   5.585  20.593  0.00  0.00    +0.000 OA
ATOM     16  H   UNL     1       0.577  10.797  20.770  0.00  0.00    +0.000 HD
ATOM     17  H   UNL     1       1.362  11.619  17.430  0.00  0.00    +0.000 HD
ENDROOT
BRANCH  12  18
ATOM     18  C   UNL     1       5.033   5.390  16.597  0.00  0.00    +0.000 A 
ATOM     19  C   UNL     1       5.073   4.051  16.273  0.00  0.00    +0.000 A 
ATOM     20  C   UNL     1       5.967   3.932  15.181  0.00  0.00    +0.000 A 
ATOM     21  C   UNL     1       6.399   5.206  14.898  0.00  0.00    +0.000 A 
ATOM     22  O   UNL     1       5.830   6.099  15.748  0.00  0.00    +0.000 OA
ENDBRANCH  12  18
BRANCH   1  23
ATOM     23  S   UNL     1      -0.150  12.679  21.790  0.00  0.00    +0.000 S 
ATOM     24  O   UNL     1       0.693  13.848  21.925  0.00  0.00    +0.000 OA
ATOM     25  O   UNL     1      -0.319  11.767  22.900  0.00  0.00    +0.000 OA
BRANCH  23  30
ATOM     26  C   UNL     1      -5.738  14.354  20.136  0.00  0.00    +0.000 C 
ATOM     27  C   UNL     1      -4.352  13.935  20.528  0.00  0.00    +0.000 A 
ATOM     28  C   UNL     1      -3.861  12.665  20.195  0.00  0.00    +0.000 A 
ATOM     29  C   UNL     1      -2.574  12.281  20.576  0.00  0.00    +0.000 A 
ATOM     30  C   UNL     1      -1.772  13.179  21.286  0.00  0.00    +0.000 A 
ATOM     31  C   UNL     1      -2.245  14.446  21.624  0.00  0.00    +0.000 A 
ATOM     32  C   UNL     1      -3.534  14.821  21.245  0.00  0.00    +0.000 A 
ENDBRANCH  23  30
ENDBRANCH   1  23
TORSDOF 3
ENDMDL
MODEL 8
REMARK VINA RESULT:      -8.4      4.224      9.883
REMARK  Name = 
REMARK  4 active torsions:
REMARK  status: ('A' for Active; 'I' for Inactive)
REMARK    1  A    between atoms: C_1  and  C_2
REMARK    2  A    between atoms: C_5  and  S_6
REMARK    3  A    between atoms: S_6  and  N_9
REMARK    4  A    between atoms: C_20  and  C_21
REMARK                            x       y       z     vdW  Elec       q    Type
REMARK                         _______ _______ _______ _____ _____    ______ ____
ROOT
ATOM      1  N   UNL     1      -0.717  11.505  21.192  0.00  0.00    +0.000 N 
ATOM      2  C   UNL     1      -0.705  10.689  22.316  0.00  0.00    +0.000 C 
ATOM      3  O   UNL     1      -1.300  10.981  23.346  0.00  0.00    +0.000 OA
ATOM      4  N   UNL     1      -0.013   9.516  22.244  0.00  0.00    +0.000 N 
ATOM      5  C   UNL     1       0.722   9.045  21.170  0.00  0.00    +0.000 A 
ATOM      6  N   UNL     1       0.993   9.887  20.160  0.00  0.00    +0.000 NA
ATOM      7  C   UNL     1       1.676   9.392  19.112  0.00  0.00    +0.000 A 
ATOM      8  C   UNL     1       2.071   8.081  19.035  0.00  0.00    +0.000 A 
ATOM      9  C   UNL     1       1.743   7.271  20.104  0.00  0.00    +0.000 A 
ATOM     10  N   UNL     1       1.095   7.753  21.200  0.00  0.00    +0.000 NA
ATOM     11  C   UNL     1       2.106   5.805  20.099  0.00  0.00    +0.000 C 
ATOM     12  C   UNL     1       2.416   5.275  18.685  0.00  0.00    +0.000 C 
ATOM     13  C   UNL     1       3.386   6.205  17.956  0.00  0.00    +0.000 C 
ATOM     14  C   UNL     1       2.800   7.586  17.863  0.00  0.00    +0.000 C 
ATOM     15  O   UNL     1       2.958   8.314  16.890  0.00  0.00    +0.000 OA
ATOM     16  H   UNL     1      -0.136  11.244  20.399  0.00  0.00    +0.000 HD
ATOM     17  H   UNL     1      -0.112   8.894  23.030  0.00  0.00    +0.000 HD
ENDROOT
BRANCH  12  18
ATOM     18  C   UNL     1       2.966   3.888  18.736  0.00  0.00    +0.000 A 
ATOM     19  C   UNL     1       2.920   2.815  17.872  0.00  0.00    +0.000 A 
ATOM     20  C   UNL     1       3.631   1.765  18.502  0.00  0.00    +0.000 A 
ATOM     21  C   UNL     1       4.081   2.271  19.699  0.00  0.00    +0.000 A 
ATOM     22  O   UNL     1       3.690   3.562  19.845  0.00  0.00    +0.000 OA
ENDBRANCH  12  18
BRANCH   1  23
ATOM     23  S   UNL     1      -1.526  12.928  20.991  0.00  0.00    +0.000 S 
ATOM     24  O   UNL     1      -0.744  13.786  20.126  0.00  0.00    +0.000 OA
ATOM     25  O   UNL     1      -1.897  13.369  22.318  0.00  0.00    +0.000 OA
BRANCH  23  30
ATOM     26  C   UNL     1      -6.646  11.264  18.201  0.00  0.00    +0.000 C 
ATOM     27  C   UNL     1      -5.374  11.685  18.877  0.00  0.00    +0.000 A 
ATOM     28  C   UNL     1      -4.131  11.497  18.256  0.00  0.00    +0.000 A 
ATOM     29  C   UNL     1      -2.953  11.881  18.900  0.00  0.00    +0.000 A 
ATOM     30  C   UNL     1      -3.022  12.466  20.167  0.00  0.00    +0.000 A 
ATOM     31  C   UNL     1      -4.251  12.661  20.797  0.00  0.00    +0.000 A 
ATOM     32  C   UNL     1      -5.424  12.270  20.150  0.00  0.00    +0.000 A 
ENDBRANCH  23  30
ENDBRANCH   1  23
TORSDOF 3
ENDMDL
MODEL 9
REMARK VINA RESULT:      -8.3      4.343     10.219
REMARK  Name = 
REMARK  4 active torsions:
REMARK  status: ('A' for Active; 'I' for Inactive)
REMARK    1  A    between atoms: C_1  and  C_2
REMARK    2  A    between atoms: C_5  and  S_6
REMARK    3  A    between atoms: S_6  and  N_9
REMARK    4  A    between atoms: C_20  and  C_21
REMARK                            x       y       z     vdW  Elec       q    Type
REMARK                         _______ _______ _______ _____ _____    ______ ____
ROOT
ATOM      1  N   UNL     1      -0.798  11.784  21.170  0.00  0.00    +0.000 N 
ATOM      2  C   UNL     1      -0.735  11.007  22.319  0.00  0.00    +0.000 C 
ATOM      3  O   UNL     1      -1.291  11.328  23.362  0.00  0.00    +0.000 OA
ATOM      4  N   UNL     1      -0.036   9.836  22.260  0.00  0.00    +0.000 N 
ATOM      5  C   UNL     1       0.660   9.335  21.174  0.00  0.00    +0.000 A 
ATOM      6  N   UNL     1       0.884  10.145  20.127  0.00  0.00    +0.000 NA
ATOM      7  C   UNL     1       1.530   9.619  19.070  0.00  0.00    +0.000 A 
ATOM      8  C   UNL     1       1.933   8.309  19.021  0.00  0.00    +0.000 A 
ATOM      9  C   UNL     1       1.654   7.534  20.129  0.00  0.00    +0.000 A 
ATOM     10  N   UNL     1       1.045   8.048  21.232  0.00  0.00    +0.000 NA
ATOM     11  C   UNL     1       2.029   6.071  20.159  0.00  0.00    +0.000 C 
ATOM     12  C   UNL     1       2.288   5.496  18.752  0.00  0.00    +0.000 C 
ATOM     13  C   UNL     1       3.220   6.407  17.954  0.00  0.00    +0.000 C 
ATOM     14  C   UNL     1       2.619   7.780  17.839  0.00  0.00    +0.000 C 
ATOM     15  O   UNL     1       2.733   8.476  16.836  0.00  0.00    +0.000 OA
ATOM     16  H   UNL     1      -0.247  11.501  20.364  0.00  0.00    +0.000 HD
ATOM     17  H   UNL     1      -0.099   9.241  23.069  0.00  0.00    +0.000 HD
ENDROOT
BRANCH  12  18
ATOM     18  C   UNL     1       2.852   4.115  18.828  0.00  0.00    +0.000 A 
ATOM     19  C   UNL     1       2.591   2.944  18.150  0.00  0.00    +0.000 A 
ATOM     20  C   UNL     1       3.460   1.967  18.693  0.00  0.00    +0.000 A 
ATOM     21  C   UNL     1       4.208   2.609  19.652  0.00  0.00    +0.000 A 
ATOM     22  O   UNL     1       3.851   3.916  19.734  0.00  0.00    +0.000 OA
ENDBRANCH  12  18
BRANCH   1  23
ATOM     23  S   UNL     1      -1.627  13.193  20.954  0.00  0.00    +0.000 S 
ATOM     24  O   UNL     1      -1.112  13.856  19.774  0.00  0.00    +0.000 OA
ATOM     25  O   UNL     1      -1.616  13.865  22.235  0.00  0.00    +0.000 OA
BRANCH  23  30
ATOM     26  C   UNL     1      -7.359  11.508  19.917  0.00  0.00    +0.000 C 
ATOM     27  C   UNL     1      -5.940  11.915  20.189  0.00  0.00    +0.000 A 
ATOM     28  C   UNL     1      -5.566  12.440  21.434  0.00  0.00    +0.000 A 
ATOM     29  C   UNL     1      -4.245  12.828  21.671  0.00  0.00    +0.000 A 
ATOM     30  C   UNL     1      -3.294  12.677  20.658  0.00  0.00    +0.000 A 
ATOM     31  C   UNL     1      -3.650  12.155  19.415  0.00  0.00    +0.000 A 
ATOM     32  C   UNL     1      -4.972  11.776  19.184  0.00  0.00    +0.000 A 
ENDBRANCH  23  30
ENDBRANCH   1  23
TORSDOF 3
ENDMDL
