MODEL 1
REMARK VINA RESULT:      -6.9      0.000      0.000
REMARK  Name = 
REMARK  4 active torsions:
REMARK  status: ('A' for Active; 'I' for Inactive)
REMARK    1  A    between atoms: O_1  and  C_2
REMARK    2  A    between atoms: C_8  and  C_9
REMARK    3  A    between atoms: C_9  and  N_10
REMARK    4  A    between atoms: N_10  and  C_11
REMARK                            x       y       z     vdW  Elec       q    Type
REMARK                         _______ _______ _______ _____ _____    ______ ____
ROOT
ATOM      1  C   UNL     1       2.936   3.459  17.038  0.00  0.00    +0.000 C 
ENDROOT
BRANCH   1   8
ATOM      2  C   UNL     1       1.898   2.605  19.210  0.00  0.00    +0.000 A 
ATOM      3  C   UNL     1       1.345   2.835  20.472  0.00  0.00    +0.000 A 
ATOM      4  C   UNL     1       1.246   4.139  20.961  0.00  0.00    +0.000 A 
ATOM      5  C   UNL     1       1.699   5.203  20.186  0.00  0.00    +0.000 A 
ATOM      6 CL   UNL     1       1.570   6.811  20.781  0.00  0.00    +0.000 Cl
ATOM      7  C   UNL     1       2.251   4.973  18.926  0.00  0.00    +0.000 A 
ATOM      8  C   UNL     1       2.363   3.662  18.422  0.00  0.00    +0.000 A 
BRANCH   2   9
ATOM      9  O   UNL     1       1.986   1.328  18.730  0.00  0.00    +0.000 OA
ATOM     10  H   UNL     1       1.665   1.314  17.811  0.00  0.00    +0.000 HD
ENDBRANCH   2   9
ENDBRANCH   1   8
BRANCH   1  11
ATOM     11  N   UNL     1       4.310   2.967  17.156  0.00  0.00    +0.000 N 
ATOM     12  H   UNL     1       4.374   2.013  16.807  0.00  0.00    +0.000 HD
BRANCH  11  13
ATOM     13  C   UNL     1       5.391   3.764  16.775  0.00  0.00    +0.000 A 
ATOM     14  C   UNL     1       5.799   3.910  15.445  0.00  0.00    +0.000 A 
ATOM     15  C   UNL     1       6.815   4.808  15.097  0.00  0.00    +0.000 A 
ATOM     16 CL   UNL     1       7.283   4.962  13.446  0.00  0.00    +0.000 Cl
ATOM     17  C   UNL     1       7.437   5.589  16.061  0.00  0.00    +0.000 A 
ATOM     18  C   UNL     1       7.023   5.473  17.381  0.00  0.00    +0.000 A 
ATOM     19 CL   UNL     1       7.766   6.445  18.594  0.00  0.00    +0.000 Cl
ATOM     20  C   UNL     1       6.003   4.585  17.735  0.00  0.00    +0.000 A 
ENDBRANCH  11  13
ENDBRANCH   1  11
TORSDOF 4
ENDMDL
MODEL 2
REMARK VINA RESULT:      -6.9      1.025      2.305
REMARK  Name = 
REMARK  4 active torsions:
REMARK  status: ('A' for Active; 'I' for Inactive)
REMARK    1  A    between atoms: O_1  and  C_2
REMARK    2  A    between atoms: C_8  and  C_9
REMARK    3  A    between atoms: C_9  and  N_10
REMARK    4  A    between atoms: N_10  and  C_11
REMARK                            x       y       z     vdW  Elec       q    Type
REMARK                         _______ _______ _______ _____ _____    ______ ____
ROOT
ATOM      1  C   UNL     1       4.663   3.137  19.226  0.00  0.00    +0.000 C 
ENDROOT
BRANCH   1   8
ATOM      2  C   UNL     1       2.163   2.697  19.499  0.00  0.00    +0.000 A 
ATOM      3  C   UNL     1       0.878   3.124  19.845  0.00  0.00    +0.000 A 
ATOM      4  C   UNL     1       0.681   4.423  20.319  0.00  0.00    +0.000 A 
ATOM      5  C   UNL     1       1.767   5.285  20.442  0.00  0.00    +0.000 A 
ATOM      6 CL   UNL     1       1.526   6.888  21.016  0.00  0.00    +0.000 Cl
ATOM      7  C   UNL     1       3.048   4.858  20.096  0.00  0.00    +0.000 A 
ATOM      8  C   UNL     1       3.264   3.550  19.622  0.00  0.00    +0.000 A 
BRANCH   2   9
ATOM      9  O   UNL     1       2.352   1.428  19.028  0.00  0.00    +0.000 OA
ATOM     10  H   UNL     1       1.902   0.801  19.620  0.00  0.00    +0.000 HD
ENDBRANCH   2   9
ENDBRANCH   1   8
BRANCH   1  11
ATOM     11  N   UNL     1       4.722   2.976  17.772  0.00  0.00    +0.000 N 
ATOM     12  H   UNL     1       3.802   2.743  17.406  0.00  0.00    +0.000 HD
BRANCH  11  13
ATOM     13  C   UNL     1       5.414   3.892  16.978  0.00  0.00    +0.000 A 
ATOM     14  C   UNL     1       6.042   5.029  17.496  0.00  0.00    +0.000 A 
ATOM     15  C   UNL     1       6.820   5.858  16.680  0.00  0.00    +0.000 A 
ATOM     16 CL   UNL     1       7.582   7.245  17.360  0.00  0.00    +0.000 Cl
ATOM     17  C   UNL     1       7.001   5.567  15.334  0.00  0.00    +0.000 A 
ATOM     18  C   UNL     1       6.404   4.427  14.813  0.00  0.00    +0.000 A 
ATOM     19 CL   UNL     1       6.629   4.034  13.151  0.00  0.00    +0.000 Cl
ATOM     20  C   UNL     1       5.633   3.590  15.625  0.00  0.00    +0.000 A 
ENDBRANCH  11  13
ENDBRANCH   1  11
TORSDOF 4
ENDMDL
MODEL 3
REMARK VINA RESULT:      -6.9      0.221      2.126
REMARK  Name = 
REMARK  4 active torsions:
REMARK  status: ('A' for Active; 'I' for Inactive)
REMARK    1  A    between atoms: O_1  and  C_2
REMARK    2  A    between atoms: C_8  and  C_9
REMARK    3  A    between atoms: C_9  and  N_10
REMARK    4  A    between atoms: N_10  and  C_11
REMARK                            x       y       z     vdW  Elec       q    Type
REMARK                         _______ _______ _______ _____ _____    ______ ____
ROOT
ATOM      1  C   UNL     1       2.669   3.498  17.007  0.00  0.00    +0.000 C 
ENDROOT
BRANCH   1   8
ATOM      2  C   UNL     1       1.857   2.588  19.250  0.00  0.00    +0.000 A 
ATOM      3  C   UNL     1       1.412   2.785  20.560  0.00  0.00    +0.000 A 
ATOM      4  C   UNL     1       1.318   4.080  21.074  0.00  0.00    +0.000 A 
ATOM      5  C   UNL     1       1.668   5.167  20.277  0.00  0.00    +0.000 A 
ATOM      6 CL   UNL     1       1.544   6.763  20.904  0.00  0.00    +0.000 Cl
ATOM      7  C   UNL     1       2.110   4.968  18.970  0.00  0.00    +0.000 A 
ATOM      8  C   UNL     1       2.217   3.668  18.439  0.00  0.00    +0.000 A 
BRANCH   2   9
ATOM      9  O   UNL     1       1.940   1.320  18.746  0.00  0.00    +0.000 OA
ATOM     10  H   UNL     1       2.496   0.782  19.336  0.00  0.00    +0.000 HD
ENDBRANCH   2   9
ENDBRANCH   1   8
BRANCH   1  11
ATOM     11  N   UNL     1       4.050   3.012  16.995  0.00  0.00    +0.000 N 
ATOM     12  H   UNL     1       4.117   2.155  16.450  0.00  0.00    +0.000 HD
BRANCH  11  13
ATOM     13  C   UNL     1       5.115   3.888  16.775  0.00  0.00    +0.000 A 
ATOM     14  C   UNL     1       5.817   4.511  17.812  0.00  0.00    +0.000 A 
ATOM     15  C   UNL     1       6.949   5.291  17.550  0.00  0.00    +0.000 A 
ATOM     16 CL   UNL     1       7.788   6.035  18.858  0.00  0.00    +0.000 Cl
ATOM     17  C   UNL     1       7.416   5.457  16.253  0.00  0.00    +0.000 A 
ATOM     18  C   UNL     1       6.745   4.822  15.217  0.00  0.00    +0.000 A 
ATOM     19 CL   UNL     1       7.315   4.996  13.602  0.00  0.00    +0.000 Cl
ATOM     20  C   UNL     1       5.618   4.034  15.472  0.00  0.00    +0.000 A 
ENDBRANCH  11  13
ENDBRANCH   1  11
TORSDOF 4
ENDMDL
MODEL 4
REMARK VINA RESULT:      -6.9      1.251      1.383
REMARK  Name = 
REMARK  4 active torsions:
REMARK  status: ('A' for Active; 'I' for Inactive)
REMARK    1  A    between atoms: O_1  and  C_2
REMARK    2  A    between atoms: C_8  and  C_9
REMARK    3  A    between atoms: C_9  and  N_10
REMARK    4  A    between atoms: N_10  and  C_11
REMARK                            x       y       z     vdW  Elec       q    Type
REMARK                         _______ _______ _______ _____ _____    ______ ____
ROOT
ATOM      1  C   UNL     1       4.533   2.776  19.032  0.00  0.00    +0.000 C 
ENDROOT
BRANCH   1   8
ATOM      2  C   UNL     1       2.020   2.512  19.404  0.00  0.00    +0.000 A 
ATOM      3  C   UNL     1       0.782   3.030  19.793  0.00  0.00    +0.000 A 
ATOM      4  C   UNL     1       0.693   4.344  20.257  0.00  0.00    +0.000 A 
ATOM      5  C   UNL     1       1.839   5.131  20.329  0.00  0.00    +0.000 A 
ATOM      6 CL   UNL     1       1.731   6.752  20.891  0.00  0.00    +0.000 Cl
ATOM      7  C   UNL     1       3.074   4.613  19.940  0.00  0.00    +0.000 A 
ATOM      8  C   UNL     1       3.182   3.288  19.475  0.00  0.00    +0.000 A 
BRANCH   2   9
ATOM      9  O   UNL     1       2.104   1.229  18.942  0.00  0.00    +0.000 OA
ATOM     10  H   UNL     1       1.821   0.621  19.647  0.00  0.00    +0.000 HD
ENDBRANCH   2   9
ENDBRANCH   1   8
BRANCH   1  11
ATOM     11  N   UNL     1       5.538   3.816  19.259  0.00  0.00    +0.000 N 
ATOM     12  H   UNL     1       6.231   3.496  19.932  0.00  0.00    +0.000 HD
BRANCH  11  13
ATOM     13  C   UNL     1       6.096   4.518  18.188  0.00  0.00    +0.000 A 
ATOM     14  C   UNL     1       5.947   4.120  16.855  0.00  0.00    +0.000 A 
ATOM     15  C   UNL     1       6.426   4.915  15.808  0.00  0.00    +0.000 A 
ATOM     16 CL   UNL     1       6.216   4.392  14.180  0.00  0.00    +0.000 Cl
ATOM     17  C   UNL     1       7.051   6.129  16.062  0.00  0.00    +0.000 A 
ATOM     18  C   UNL     1       7.181   6.548  17.379  0.00  0.00    +0.000 A 
ATOM     19 CL   UNL     1       7.935   8.058  17.720  0.00  0.00    +0.000 Cl
ATOM     20  C   UNL     1       6.697   5.763  18.430  0.00  0.00    +0.000 A 
ENDBRANCH  11  13
ENDBRANCH   1  11
TORSDOF 4
ENDMDL
MODEL 5
REMARK VINA RESULT:      -6.8      1.537      2.858
REMARK  Name = 
REMARK  4 active torsions:
REMARK  status: ('A' for Active; 'I' for Inactive)
REMARK    1  A    between atoms: O_1  and  C_2
REMARK    2  A    between atoms: C_8  and  C_9
REMARK    3  A    between atoms: C_9  and  N_10
REMARK    4  A    between atoms: N_10  and  C_11
REMARK                            x       y       z     vdW  Elec       q    Type
REMARK                         _______ _______ _______ _____ _____    ______ ____
ROOT
ATOM      1  C   UNL     1       2.392   3.777  17.516  0.00  0.00    +0.000 C 
ENDROOT
BRANCH   1   8
ATOM      2  C   UNL     1       2.042   4.874  19.795  0.00  0.00    +0.000 A 
ATOM      3  C   UNL     1       1.913   6.011  20.596  0.00  0.00    +0.000 A 
ATOM      4  C   UNL     1       2.014   7.281  20.023  0.00  0.00    +0.000 A 
ATOM      5  C   UNL     1       2.244   7.404  18.655  0.00  0.00    +0.000 A 
ATOM      6 CL   UNL     1       2.361   8.966  17.945  0.00  0.00    +0.000 Cl
ATOM      7  C   UNL     1       2.373   6.269  17.857  0.00  0.00    +0.000 A 
ATOM      8  C   UNL     1       2.279   4.982  18.421  0.00  0.00    +0.000 A 
BRANCH   2   9
ATOM      9  O   UNL     1       1.934   3.633  20.357  0.00  0.00    +0.000 OA
ATOM     10  H   UNL     1       2.797   3.379  20.730  0.00  0.00    +0.000 HD
ENDBRANCH   2   9
ENDBRANCH   1   8
BRANCH   1  11
ATOM     11  N   UNL     1       3.721   3.183  17.671  0.00  0.00    +0.000 N 
ATOM     12  H   UNL     1       3.737   2.246  17.273  0.00  0.00    +0.000 HD
BRANCH  11  13
ATOM     13  C   UNL     1       4.872   3.920  17.385  0.00  0.00    +0.000 A 
ATOM     14  C   UNL     1       5.717   4.429  18.377  0.00  0.00    +0.000 A 
ATOM     15  C   UNL     1       6.920   5.063  18.045  0.00  0.00    +0.000 A 
ATOM     16 CL   UNL     1       7.935   5.669  19.298  0.00  0.00    +0.000 Cl
ATOM     17  C   UNL     1       7.314   5.194  16.720  0.00  0.00    +0.000 A 
ATOM     18  C   UNL     1       6.497   4.670  15.727  0.00  0.00    +0.000 A 
ATOM     19 CL   UNL     1       6.972   4.803  14.077  0.00  0.00    +0.000 Cl
ATOM     20  C   UNL     1       5.299   4.028  16.053  0.00  0.00    +0.000 A 
ENDBRANCH  11  13
ENDBRANCH   1  11
TORSDOF 4
ENDMDL
MODEL 6
REMARK VINA RESULT:      -6.7      2.880      7.083
REMARK  Name = 
REMARK  4 active torsions:
REMARK  status: ('A' for Active; 'I' for Inactive)
REMARK    1  A    between atoms: O_1  and  C_2
REMARK    2  A    between atoms: C_8  and  C_9
REMARK    3  A    between atoms: C_9  and  N_10
REMARK    4  A    between atoms: N_10  and  C_11
REMARK                            x       y       z     vdW  Elec       q    Type
REMARK                         _______ _______ _______ _____ _____    ______ ____
ROOT
ATOM      1  C   UNL     1       5.674   4.044  16.219  0.00  0.00    +0.000 C 
ENDROOT
BRANCH   1   8
ATOM      2  C   UNL     1       7.163   5.034  14.396  0.00  0.00    +0.000 A 
ATOM      3  C   UNL     1       7.581   5.104  13.064  0.00  0.00    +0.000 A 
ATOM      4  C   UNL     1       7.005   4.263  12.110  0.00  0.00    +0.000 A 
ATOM      5  C   UNL     1       6.017   3.359  12.491  0.00  0.00    +0.000 A 
ATOM      6 CL   UNL     1       5.299   2.329  11.316  0.00  0.00    +0.000 Cl
ATOM      7  C   UNL     1       5.601   3.290  13.820  0.00  0.00    +0.000 A 
ATOM      8  C   UNL     1       6.177   4.127  14.796  0.00  0.00    +0.000 A 
BRANCH   2   9
ATOM      9  O   UNL     1       7.723   5.863  15.327  0.00  0.00    +0.000 OA
ATOM     10  H   UNL     1       8.472   6.333  14.921  0.00  0.00    +0.000 HD
ENDBRANCH   2   9
ENDBRANCH   1   8
BRANCH   1  11
ATOM     11  N   UNL     1       4.789   5.180  16.482  0.00  0.00    +0.000 N 
ATOM     12  H   UNL     1       4.431   5.557  15.608  0.00  0.00    +0.000 HD
BRANCH  11  13
ATOM     13  C   UNL     1       3.824   5.117  17.489  0.00  0.00    +0.000 A 
ATOM     14  C   UNL     1       3.479   6.214  18.285  0.00  0.00    +0.000 A 
ATOM     15  C   UNL     1       2.427   6.137  19.205  0.00  0.00    +0.000 A 
ATOM     16 CL   UNL     1       2.032   7.514  20.160  0.00  0.00    +0.000 Cl
ATOM     17  C   UNL     1       1.686   4.971  19.342  0.00  0.00    +0.000 A 
ATOM     18  C   UNL     1       2.000   3.883  18.540  0.00  0.00    +0.000 A 
ATOM     19 CL   UNL     1       1.083   2.431  18.678  0.00  0.00    +0.000 Cl
ATOM     20  C   UNL     1       3.045   3.956  17.613  0.00  0.00    +0.000 A 
ENDBRANCH  11  13
ENDBRANCH   1  11
TORSDOF 4
ENDMDL
MODEL 7
REMARK VINA RESULT:      -6.7      2.696      6.133
REMARK  Name = 
REMARK  4 active torsions:
REMARK  status: ('A' for Active; 'I' for Inactive)
REMARK    1  A    between atoms: O_1  and  C_2
REMARK    2  A    between atoms: C_8  and  C_9
REMARK    3  A    between atoms: C_9  and  N_10
REMARK    4  A    between atoms: N_10  and  C_11
REMARK                            x       y       z     vdW  Elec       q    Type
REMARK                         _______ _______ _______ _____ _____    ______ ____
ROOT
ATOM      1  C   UNL     1       4.905   4.037  16.901  0.00  0.00    +0.000 C 
ENDROOT
BRANCH   1   8
ATOM      2  C   UNL     1       6.103   6.285  16.714  0.00  0.00    +0.000 A 
ATOM      3  C   UNL     1       7.052   7.205  17.168  0.00  0.00    +0.000 A 
ATOM      4  C   UNL     1       7.815   6.915  18.301  0.00  0.00    +0.000 A 
ATOM      5  C   UNL     1       7.625   5.710  18.972  0.00  0.00    +0.000 A 
ATOM      6 CL   UNL     1       8.570   5.346  20.362  0.00  0.00    +0.000 Cl
ATOM      7  C   UNL     1       6.679   4.792  18.518  0.00  0.00    +0.000 A 
ATOM      8  C   UNL     1       5.897   5.072  17.380  0.00  0.00    +0.000 A 
BRANCH   2   9
ATOM      9  O   UNL     1       5.363   6.567  15.600  0.00  0.00    +0.000 OA
ATOM     10  H   UNL     1       5.923   6.453  14.813  0.00  0.00    +0.000 HD
ENDBRANCH   2   9
ENDBRANCH   1   8
BRANCH   1  11
ATOM     11  N   UNL     1       3.550   4.575  17.032  0.00  0.00    +0.000 N 
ATOM     12  H   UNL     1       2.911   4.072  16.420  0.00  0.00    +0.000 HD
BRANCH  11  13
ATOM     13  C   UNL     1       3.006   4.849  18.288  0.00  0.00    +0.000 A 
ATOM     14  C   UNL     1       2.723   6.146  18.730  0.00  0.00    +0.000 A 
ATOM     15  C   UNL     1       2.074   6.366  19.951  0.00  0.00    +0.000 A 
ATOM     16 CL   UNL     1       1.738   7.979  20.454  0.00  0.00    +0.000 Cl
ATOM     17  C   UNL     1       1.680   5.302  20.751  0.00  0.00    +0.000 A 
ATOM     18  C   UNL     1       1.931   4.009  20.311  0.00  0.00    +0.000 A 
ATOM     19 CL   UNL     1       1.434   2.672  21.276  0.00  0.00    +0.000 Cl
ATOM     20  C   UNL     1       2.572   3.782  19.089  0.00  0.00    +0.000 A 
ENDBRANCH  11  13
ENDBRANCH   1  11
TORSDOF 4
ENDMDL
MODEL 8
REMARK VINA RESULT:      -6.7      2.817      6.875
REMARK  Name = 
REMARK  4 active torsions:
REMARK  status: ('A' for Active; 'I' for Inactive)
REMARK    1  A    between atoms: O_1  and  C_2
REMARK    2  A    between atoms: C_8  and  C_9
REMARK    3  A    between atoms: C_9  and  N_10
REMARK    4  A    between atoms: N_10  and  C_11
REMARK                            x       y       z     vdW  Elec       q    Type
REMARK                         _______ _______ _______ _____ _____    ______ ____
ROOT
ATOM      1  C   UNL     1       5.536   4.042  16.342  0.00  0.00    +0.000 C 
ENDROOT
BRANCH   1   8
ATOM      2  C   UNL     1       7.119   5.020  14.592  0.00  0.00    +0.000 A 
ATOM      3  C   UNL     1       7.581   5.108  13.277  0.00  0.00    +0.000 A 
ATOM      4  C   UNL     1       7.006   4.312  12.283  0.00  0.00    +0.000 A 
ATOM      5  C   UNL     1       5.974   3.437  12.610  0.00  0.00    +0.000 A 
ATOM      6 CL   UNL     1       5.257   2.464  11.388  0.00  0.00    +0.000 Cl
ATOM      7  C   UNL     1       5.513   3.351  13.924  0.00  0.00    +0.000 A 
ATOM      8  C   UNL     1       6.087   4.142  14.938  0.00  0.00    +0.000 A 
BRANCH   2   9
ATOM      9  O   UNL     1       7.678   5.805  15.561  0.00  0.00    +0.000 OA
ATOM     10  H   UNL     1       7.589   5.357  16.420  0.00  0.00    +0.000 HD
ENDBRANCH   2   9
ENDBRANCH   1   8
BRANCH   1  11
ATOM     11  N   UNL     1       4.639   5.173  16.586  0.00  0.00    +0.000 N 
ATOM     12  H   UNL     1       4.381   5.614  15.706  0.00  0.00    +0.000 HD
BRANCH  11  13
ATOM     13  C   UNL     1       3.571   5.060  17.478  0.00  0.00    +0.000 A 
ATOM     14  C   UNL     1       2.833   3.882  17.637  0.00  0.00    +0.000 A 
ATOM     15  C   UNL     1       1.845   3.778  18.623  0.00  0.00    +0.000 A 
ATOM     16 CL   UNL     1       0.964   2.307  18.791  0.00  0.00    +0.000 Cl
ATOM     17  C   UNL     1       1.578   4.838  19.480  0.00  0.00    +0.000 A 
ATOM     18  C   UNL     1       2.322   6.003  19.349  0.00  0.00    +0.000 A 
ATOM     19 CL   UNL     1       2.024   7.326  20.412  0.00  0.00    +0.000 Cl
ATOM     20  C   UNL     1       3.316   6.111  18.372  0.00  0.00    +0.000 A 
ENDBRANCH  11  13
ENDBRANCH   1  11
TORSDOF 4
ENDMDL
MODEL 9
REMARK VINA RESULT:      -6.7      2.686      5.993
REMARK  Name = 
REMARK  4 active torsions:
REMARK  status: ('A' for Active; 'I' for Inactive)
REMARK    1  A    between atoms: O_1  and  C_2
REMARK    2  A    between atoms: C_8  and  C_9
REMARK    3  A    between atoms: C_9  and  N_10
REMARK    4  A    between atoms: N_10  and  C_11
REMARK                            x       y       z     vdW  Elec       q    Type
REMARK                         _______ _______ _______ _____ _____    ______ ____
ROOT
ATOM      1  C   UNL     1       4.961   3.959  16.790  0.00  0.00    +0.000 C 
ENDROOT
BRANCH   1   8
ATOM      2  C   UNL     1       6.092   6.244  16.637  0.00  0.00    +0.000 A 
ATOM      3  C   UNL     1       7.004   7.189  17.112  0.00  0.00    +0.000 A 
ATOM      4  C   UNL     1       7.759   6.915  18.255  0.00  0.00    +0.000 A 
ATOM      5  C   UNL     1       7.597   5.699  18.914  0.00  0.00    +0.000 A 
ATOM      6 CL   UNL     1       8.531   5.354  20.315  0.00  0.00    +0.000 Cl
ATOM      7  C   UNL     1       6.686   4.756  18.439  0.00  0.00    +0.000 A 
ATOM      8  C   UNL     1       5.913   5.021  17.291  0.00  0.00    +0.000 A 
BRANCH   2   9
ATOM      9  O   UNL     1       5.360   6.511  15.514  0.00  0.00    +0.000 OA
ATOM     10  H   UNL     1       4.464   6.150  15.628  0.00  0.00    +0.000 HD
ENDBRANCH   2   9
ENDBRANCH   1   8
BRANCH   1  11
ATOM     11  N   UNL     1       3.587   4.447  16.919  0.00  0.00    +0.000 N 
ATOM     12  H   UNL     1       2.974   3.949  16.278  0.00  0.00    +0.000 HD
BRANCH  11  13
ATOM     13  C   UNL     1       3.015   4.653  18.176  0.00  0.00    +0.000 A 
ATOM     14  C   UNL     1       2.893   3.640  19.133  0.00  0.00    +0.000 A 
ATOM     15  C   UNL     1       2.418   3.918  20.420  0.00  0.00    +0.000 A 
ATOM     16 CL   UNL     1       2.290   2.642  21.571  0.00  0.00    +0.000 Cl
ATOM     17  C   UNL     1       2.067   5.210  20.787  0.00  0.00    +0.000 A 
ATOM     18  C   UNL     1       2.208   6.229  19.855  0.00  0.00    +0.000 A 
ATOM     19 CL   UNL     1       1.798   7.844  20.292  0.00  0.00    +0.000 Cl
ATOM     20  C   UNL     1       2.690   5.960  18.570  0.00  0.00    +0.000 A 
ENDBRANCH  11  13
ENDBRANCH   1  11
TORSDOF 4
ENDMDL
