MODEL 1
REMARK VINA RESULT:      -8.4      0.000      0.000
REMARK  Name = 
REMARK  10 active torsions:
REMARK  status: ('A' for Active; 'I' for Inactive)
REMARK    1  A    between atoms: C_1  and  C_2
REMARK    2  A    between atoms: C_2  and  C_3
REMARK    3  A    between atoms: C_3  and  C_4
REMARK    4  A    between atoms: C_6  and  C_7
REMARK    5  A    between atoms: C_7  and  N_8
REMARK    6  A    between atoms: N_8  and  C_9
REMARK    7  A    between atoms: C_9  and  C_10
REMARK    8  A    between atoms: C_9  and  C_16
REMARK    9  A    between atoms: C_16  and  C_17
REMARK   10  A    between atoms: C_17  and  O_18
REMARK                            x       y       z     vdW  Elec       q    Type
REMARK                         _______ _______ _______ _____ _____    ______ ____
ROOT
ATOM      1  C   UNL     1       3.443   5.752  18.110  0.00  0.00    +0.000 C 
ENDROOT
BRANCH   1   2
ATOM      2  C   UNL     1       2.572   6.914  18.618  0.00  0.00    +0.000 A 
ATOM      3  C   UNL     1       2.183   7.970  17.779  0.00  0.00    +0.000 A 
ATOM      4  C   UNL     1       1.532   9.097  18.274  0.00  0.00    +0.000 A 
ATOM      5  C   UNL     1       1.234   9.182  19.625  0.00  0.00    +0.000 A 
ATOM      6  C   UNL     1       1.563   8.132  20.473  0.00  0.00    +0.000 A 
ATOM      7  C   UNL     1       2.212   6.997  19.975  0.00  0.00    +0.000 A 
ENDBRANCH   1   2
BRANCH   1   8
ATOM      8  C   UNL     1       2.912   4.315  18.611  0.00  0.00    +0.000 C 
ATOM      9  C   UNL     1       1.499   3.890  18.107  0.00  0.00    +0.000 C 
ATOM     10  C   UNL     1       0.904   2.691  18.837  0.00  0.00    +0.000 C 
ATOM     11  O   UNL     1       0.933   2.889  20.243  0.00  0.00    +0.000 OA
ATOM     12  C   UNL     1       2.261   3.032  20.738  0.00  0.00    +0.000 C 
ATOM     13  C   UNL     1       2.903   4.292  20.167  0.00  0.00    +0.000 C 
BRANCH   8  14
ATOM     14  C   UNL     1       3.900   3.221  18.082  0.00  0.00    +0.000 C 
BRANCH  14  15
ATOM     15  O   UNL     1       5.137   3.234  18.782  0.00  0.00    +0.000 OA
ATOM     16  H   UNL     1       5.307   4.155  19.050  0.00  0.00    +0.000 HD
ENDBRANCH  14  15
ENDBRANCH   8  14
ENDBRANCH   1   8
BRANCH   1  17
ATOM     17  N   UNL     1       4.896   6.067  18.152  0.00  0.00    +0.000 NA
ATOM     18  H   UNL     1       5.110   6.649  18.959  0.00  0.00    +0.000 HD
BRANCH  17  19
ATOM     19  C   UNL     1       5.420   6.690  16.944  0.00  0.00    +0.000 C 
BRANCH  19  22
ATOM     20  C   UNL     1       6.563   4.805  14.213  0.00  0.00    +0.000 A 
ATOM     21  N   UNL     1       5.526   5.125  14.952  0.00  0.00    +0.000 NA
ATOM     22  C   UNL     1       6.126   5.810  15.975  0.00  0.00    +0.000 A 
ATOM     23  N   UNL     1       7.465   5.880  15.903  0.00  0.00    +0.000 NA
ATOM     24  O   UNL     1       7.756   5.228  14.718  0.00  0.00    +0.000 OA
BRANCH  20  25
ATOM     25  C   UNL     1       6.631   4.107  12.916  0.00  0.00    +0.000 C 
BRANCH  25  27
ATOM     26  C   UNL     1       4.604   3.466  11.612  0.00  0.00    +0.000 C 
ATOM     27  C   UNL     1       5.490   3.107  12.784  0.00  0.00    +0.000 C 
ENDBRANCH  25  27
ENDBRANCH  20  25
ENDBRANCH  19  22
ENDBRANCH  17  19
ENDBRANCH   1  17
TORSDOF 9
ENDMDL
MODEL 2
REMARK VINA RESULT:      -8.1      0.968      1.727
REMARK  Name = 
REMARK  10 active torsions:
REMARK  status: ('A' for Active; 'I' for Inactive)
REMARK    1  A    between atoms: C_1  and  C_2
REMARK    2  A    between atoms: C_2  and  C_3
REMARK    3  A    between atoms: C_3  and  C_4
REMARK    4  A    between atoms: C_6  and  C_7
REMARK    5  A    between atoms: C_7  and  N_8
REMARK    6  A    between atoms: N_8  and  C_9
REMARK    7  A    between atoms: C_9  and  C_10
REMARK    8  A    between atoms: C_9  and  C_16
REMARK    9  A    between atoms: C_16  and  C_17
REMARK   10  A    between atoms: C_17  and  O_18
REMARK                            x       y       z     vdW  Elec       q    Type
REMARK                         _______ _______ _______ _____ _____    ______ ____
ROOT
ATOM      1  C   UNL     1       3.371   5.854  17.973  0.00  0.00    +0.000 C 
ENDROOT
BRANCH   1   2
ATOM      2  C   UNL     1       2.511   6.984  18.563  0.00  0.00    +0.000 A 
ATOM      3  C   UNL     1       2.049   8.052  17.776  0.00  0.00    +0.000 A 
ATOM      4  C   UNL     1       1.408   9.152  18.340  0.00  0.00    +0.000 A 
ATOM      5  C   UNL     1       1.195   9.199  19.708  0.00  0.00    +0.000 A 
ATOM      6  C   UNL     1       1.597   8.136  20.507  0.00  0.00    +0.000 A 
ATOM      7  C   UNL     1       2.235   7.027  19.941  0.00  0.00    +0.000 A 
ENDBRANCH   1   2
BRANCH   1   8
ATOM      8  C   UNL     1       2.972   4.404  18.553  0.00  0.00    +0.000 C 
ATOM      9  C   UNL     1       3.293   4.153  20.058  0.00  0.00    +0.000 C 
ATOM     10  C   UNL     1       3.196   2.693  20.488  0.00  0.00    +0.000 C 
ATOM     11  O   UNL     1       3.964   1.861  19.631  0.00  0.00    +0.000 OA
ATOM     12  C   UNL     1       3.502   1.906  18.284  0.00  0.00    +0.000 C 
ATOM     13  C   UNL     1       3.687   3.308  17.712  0.00  0.00    +0.000 C 
BRANCH   8  14
ATOM     14  C   UNL     1       1.421   4.235  18.414  0.00  0.00    +0.000 C 
BRANCH  14  15
ATOM     15  O   UNL     1       1.009   4.173  17.056  0.00  0.00    +0.000 OA
ATOM     16  H   UNL     1       0.118   4.562  17.006  0.00  0.00    +0.000 HD
ENDBRANCH  14  15
ENDBRANCH   8  14
ENDBRANCH   1   8
BRANCH   1  17
ATOM     17  N   UNL     1       4.802   6.236  17.837  0.00  0.00    +0.000 NA
ATOM     18  H   UNL     1       5.049   6.939  18.531  0.00  0.00    +0.000 HD
BRANCH  17  19
ATOM     19  C   UNL     1       5.187   6.698  16.511  0.00  0.00    +0.000 C 
BRANCH  19  22
ATOM     20  C   UNL     1       6.574   4.640  14.029  0.00  0.00    +0.000 A 
ATOM     21  N   UNL     1       5.478   4.988  14.661  0.00  0.00    +0.000 NA
ATOM     22  C   UNL     1       5.983   5.766  15.669  0.00  0.00    +0.000 A 
ATOM     23  N   UNL     1       7.321   5.865  15.692  0.00  0.00    +0.000 NA
ATOM     24  O   UNL     1       7.716   5.133  14.587  0.00  0.00    +0.000 OA
BRANCH  20  25
ATOM     25  C   UNL     1       6.755   3.848  12.799  0.00  0.00    +0.000 C 
BRANCH  25  27
ATOM     26  C   UNL     1       5.614   2.071  11.473  0.00  0.00    +0.000 C 
ATOM     27  C   UNL     1       5.416   3.324  12.296  0.00  0.00    +0.000 C 
ENDBRANCH  25  27
ENDBRANCH  20  25
ENDBRANCH  19  22
ENDBRANCH  17  19
ENDBRANCH   1  17
TORSDOF 9
ENDMDL
MODEL 3
REMARK VINA RESULT:      -8.0      1.318      1.753
REMARK  Name = 
REMARK  10 active torsions:
REMARK  status: ('A' for Active; 'I' for Inactive)
REMARK    1  A    between atoms: C_1  and  C_2
REMARK    2  A    between atoms: C_2  and  C_3
REMARK    3  A    between atoms: C_3  and  C_4
REMARK    4  A    between atoms: C_6  and  C_7
REMARK    5  A    between atoms: C_7  and  N_8
REMARK    6  A    between atoms: N_8  and  C_9
REMARK    7  A    between atoms: C_9  and  C_10
REMARK    8  A    between atoms: C_9  and  C_16
REMARK    9  A    between atoms: C_16  and  C_17
REMARK   10  A    between atoms: C_17  and  O_18
REMARK                            x       y       z     vdW  Elec       q    Type
REMARK                         _______ _______ _______ _____ _____    ______ ____
ROOT
ATOM      1  C   UNL     1       4.163   5.117  18.887  0.00  0.00    +0.000 C 
ENDROOT
BRANCH   1   2
ATOM      2  C   UNL     1       3.392   6.444  18.776  0.00  0.00    +0.000 A 
ATOM      3  C   UNL     1       2.520   6.881  19.786  0.00  0.00    +0.000 A 
ATOM      4  C   UNL     1       1.705   7.997  19.617  0.00  0.00    +0.000 A 
ATOM      5  C   UNL     1       1.760   8.717  18.434  0.00  0.00    +0.000 A 
ATOM      6  C   UNL     1       2.648   8.339  17.435  0.00  0.00    +0.000 A 
ATOM      7  C   UNL     1       3.472   7.221  17.607  0.00  0.00    +0.000 A 
ENDBRANCH   1   2
BRANCH   1   8
ATOM      8  C   UNL     1       3.186   3.849  19.082  0.00  0.00    +0.000 C 
ATOM      9  C   UNL     1       1.870   3.858  18.245  0.00  0.00    +0.000 C 
ATOM     10  C   UNL     1       0.840   2.822  18.680  0.00  0.00    +0.000 C 
ATOM     11  O   UNL     1       0.588   2.912  20.075  0.00  0.00    +0.000 OA
ATOM     12  C   UNL     1       1.756   2.656  20.849  0.00  0.00    +0.000 C 
ATOM     13  C   UNL     1       2.808   3.728  20.586  0.00  0.00    +0.000 C 
BRANCH   8  14
ATOM     14  C   UNL     1       3.964   2.564  18.638  0.00  0.00    +0.000 C 
BRANCH  14  15
ATOM     15  O   UNL     1       4.426   2.654  17.298  0.00  0.00    +0.000 OA
ATOM     16  H   UNL     1       3.859   3.299  16.839  0.00  0.00    +0.000 HD
ENDBRANCH  14  15
ENDBRANCH   8  14
ENDBRANCH   1   8
BRANCH   1  17
ATOM     17  N   UNL     1       5.399   5.241  19.705  0.00  0.00    +0.000 NA
ATOM     18  H   UNL     1       5.614   6.221  19.876  0.00  0.00    +0.000 HD
BRANCH  17  19
ATOM     19  C   UNL     1       6.566   4.570  19.149  0.00  0.00    +0.000 C 
BRANCH  19  22
ATOM     20  C   UNL     1       7.025   5.109  15.711  0.00  0.00    +0.000 A 
ATOM     21  N   UNL     1       6.817   4.216  16.651  0.00  0.00    +0.000 NA
ATOM     22  C   UNL     1       6.994   4.969  17.781  0.00  0.00    +0.000 A 
ATOM     23  N   UNL     1       7.335   6.249  17.564  0.00  0.00    +0.000 NA
ATOM     24  O   UNL     1       7.335   6.349  16.184  0.00  0.00    +0.000 OA
BRANCH  20  25
ATOM     25  C   UNL     1       6.932   4.990  14.245  0.00  0.00    +0.000 C 
BRANCH  25  27
ATOM     26  C   UNL     1       6.126   3.476  12.434  0.00  0.00    +0.000 C 
ATOM     27  C   UNL     1       5.901   3.938  13.857  0.00  0.00    +0.000 C 
ENDBRANCH  25  27
ENDBRANCH  20  25
ENDBRANCH  19  22
ENDBRANCH  17  19
ENDBRANCH   1  17
TORSDOF 9
ENDMDL
MODEL 4
REMARK VINA RESULT:      -7.9      0.935      1.371
REMARK  Name = 
REMARK  10 active torsions:
REMARK  status: ('A' for Active; 'I' for Inactive)
REMARK    1  A    between atoms: C_1  and  C_2
REMARK    2  A    between atoms: C_2  and  C_3
REMARK    3  A    between atoms: C_3  and  C_4
REMARK    4  A    between atoms: C_6  and  C_7
REMARK    5  A    between atoms: C_7  and  N_8
REMARK    6  A    between atoms: N_8  and  C_9
REMARK    7  A    between atoms: C_9  and  C_10
REMARK    8  A    between atoms: C_9  and  C_16
REMARK    9  A    between atoms: C_16  and  C_17
REMARK   10  A    between atoms: C_17  and  O_18
REMARK                            x       y       z     vdW  Elec       q    Type
REMARK                         _______ _______ _______ _____ _____    ______ ____
ROOT
ATOM      1  C   UNL     1       3.850   5.624  18.334  0.00  0.00    +0.000 C 
ENDROOT
BRANCH   1   2
ATOM      2  C   UNL     1       3.035   6.894  18.633  0.00  0.00    +0.000 A 
ATOM      3  C   UNL     1       2.452   7.121  19.890  0.00  0.00    +0.000 A 
ATOM      4  C   UNL     1       1.585   8.188  20.112  0.00  0.00    +0.000 A 
ATOM      5  C   UNL     1       1.299   9.069  19.081  0.00  0.00    +0.000 A 
ATOM      6  C   UNL     1       1.898   8.899  17.840  0.00  0.00    +0.000 A 
ATOM      7  C   UNL     1       2.773   7.831  17.617  0.00  0.00    +0.000 A 
ENDBRANCH   1   2
BRANCH   1   8
ATOM      8  C   UNL     1       2.972   4.279  18.472  0.00  0.00    +0.000 C 
ATOM      9  C   UNL     1       1.445   4.422  18.190  0.00  0.00    +0.000 C 
ATOM     10  C   UNL     1       0.609   3.225  18.629  0.00  0.00    +0.000 C 
ATOM     11  O   UNL     1       0.873   2.891  19.983  0.00  0.00    +0.000 OA
ATOM     12  C   UNL     1       2.233   2.518  20.189  0.00  0.00    +0.000 C 
ATOM     13  C   UNL     1       3.152   3.702  19.906  0.00  0.00    +0.000 C 
BRANCH   8  14
ATOM     14  C   UNL     1       3.504   3.242  17.426  0.00  0.00    +0.000 C 
BRANCH  14  15
ATOM     15  O   UNL     1       4.796   2.757  17.763  0.00  0.00    +0.000 OA
ATOM     16  H   UNL     1       4.777   2.516  18.707  0.00  0.00    +0.000 HD
ENDBRANCH  14  15
ENDBRANCH   8  14
ENDBRANCH   1   8
BRANCH   1  17
ATOM     17  N   UNL     1       5.224   5.680  18.900  0.00  0.00    +0.000 NA
ATOM     18  H   UNL     1       5.217   6.150  19.803  0.00  0.00    +0.000 HD
BRANCH  17  19
ATOM     19  C   UNL     1       6.216   6.299  18.032  0.00  0.00    +0.000 C 
BRANCH  19  22
ATOM     20  C   UNL     1       6.226   4.520  15.006  0.00  0.00    +0.000 A 
ATOM     21  N   UNL     1       6.639   4.543  16.252  0.00  0.00    +0.000 NA
ATOM     22  C   UNL     1       6.290   5.812  16.628  0.00  0.00    +0.000 A 
ATOM     23  N   UNL     1       5.729   6.556  15.661  0.00  0.00    +0.000 NA
ATOM     24  O   UNL     1       5.667   5.689  14.586  0.00  0.00    +0.000 OA
BRANCH  20  25
ATOM     25  C   UNL     1       6.233   3.425  14.019  0.00  0.00    +0.000 C 
BRANCH  25  27
ATOM     26  C   UNL     1       5.015   3.306  11.846  0.00  0.00    +0.000 C 
ATOM     27  C   UNL     1       6.139   3.978  12.603  0.00  0.00    +0.000 C 
ENDBRANCH  25  27
ENDBRANCH  20  25
ENDBRANCH  19  22
ENDBRANCH  17  19
ENDBRANCH   1  17
TORSDOF 9
ENDMDL
MODEL 5
REMARK VINA RESULT:      -7.9      1.054      1.635
REMARK  Name = 
REMARK  10 active torsions:
REMARK  status: ('A' for Active; 'I' for Inactive)
REMARK    1  A    between atoms: C_1  and  C_2
REMARK    2  A    between atoms: C_2  and  C_3
REMARK    3  A    between atoms: C_3  and  C_4
REMARK    4  A    between atoms: C_6  and  C_7
REMARK    5  A    between atoms: C_7  and  N_8
REMARK    6  A    between atoms: N_8  and  C_9
REMARK    7  A    between atoms: C_9  and  C_10
REMARK    8  A    between atoms: C_9  and  C_16
REMARK    9  A    between atoms: C_16  and  C_17
REMARK   10  A    between atoms: C_17  and  O_18
REMARK                            x       y       z     vdW  Elec       q    Type
REMARK                         _______ _______ _______ _____ _____    ______ ____
ROOT
ATOM      1  C   UNL     1       3.135   5.986  18.211  0.00  0.00    +0.000 C 
ENDROOT
BRANCH   1   2
ATOM      2  C   UNL     1       2.451   7.284  18.672  0.00  0.00    +0.000 A 
ATOM      3  C   UNL     1       2.105   7.502  20.016  0.00  0.00    +0.000 A 
ATOM      4  C   UNL     1       1.346   8.602  20.408  0.00  0.00    +0.000 A 
ATOM      5  C   UNL     1       0.933   9.526  19.461  0.00  0.00    +0.000 A 
ATOM      6  C   UNL     1       1.300   9.364  18.131  0.00  0.00    +0.000 A 
ATOM      7  C   UNL     1       2.067   8.262  17.738  0.00  0.00    +0.000 A 
ENDBRANCH   1   2
BRANCH   1   8
ATOM      8  C   UNL     1       2.532   4.678  18.935  0.00  0.00    +0.000 C 
ATOM      9  C   UNL     1       1.744   4.924  20.258  0.00  0.00    +0.000 C 
ATOM     10  C   UNL     1       1.464   3.664  21.068  0.00  0.00    +0.000 C 
ATOM     11  O   UNL     1       2.658   2.926  21.286  0.00  0.00    +0.000 OA
ATOM     12  C   UNL     1       3.248   2.487  20.066  0.00  0.00    +0.000 C 
ATOM     13  C   UNL     1       3.693   3.686  19.235  0.00  0.00    +0.000 C 
BRANCH   8  14
ATOM     14  C   UNL     1       1.515   4.004  17.952  0.00  0.00    +0.000 C 
BRANCH  14  15
ATOM     15  O   UNL     1       2.169   3.323  16.890  0.00  0.00    +0.000 OA
ATOM     16  H   UNL     1       3.081   3.663  16.847  0.00  0.00    +0.000 HD
ENDBRANCH  14  15
ENDBRANCH   8  14
ENDBRANCH   1   8
BRANCH   1  17
ATOM     17  N   UNL     1       4.605   6.141  18.051  0.00  0.00    +0.000 NA
ATOM     18  H   UNL     1       4.983   6.724  18.795  0.00  0.00    +0.000 HD
BRANCH  17  19
ATOM     19  C   UNL     1       5.027   6.658  16.757  0.00  0.00    +0.000 C 
BRANCH  19  22
ATOM     20  C   UNL     1       6.520   4.732  14.230  0.00  0.00    +0.000 A 
ATOM     21  N   UNL     1       5.395   5.062  14.822  0.00  0.00    +0.000 NA
ATOM     22  C   UNL     1       5.855   5.764  15.903  0.00  0.00    +0.000 A 
ATOM     23  N   UNL     1       7.191   5.835  16.007  0.00  0.00    +0.000 NA
ATOM     24  O   UNL     1       7.636   5.166  14.882  0.00  0.00    +0.000 OA
BRANCH  20  25
ATOM     25  C   UNL     1       6.758   4.015  12.964  0.00  0.00    +0.000 C 
BRANCH  25  27
ATOM     26  C   UNL     1       5.766   2.169  11.613  0.00  0.00    +0.000 C 
ATOM     27  C   UNL     1       5.466   3.392  12.450  0.00  0.00    +0.000 C 
ENDBRANCH  25  27
ENDBRANCH  20  25
ENDBRANCH  19  22
ENDBRANCH  17  19
ENDBRANCH   1  17
TORSDOF 9
ENDMDL
MODEL 6
REMARK VINA RESULT:      -7.9      1.264      1.368
REMARK  Name = 
REMARK  10 active torsions:
REMARK  status: ('A' for Active; 'I' for Inactive)
REMARK    1  A    between atoms: C_1  and  C_2
REMARK    2  A    between atoms: C_2  and  C_3
REMARK    3  A    between atoms: C_3  and  C_4
REMARK    4  A    between atoms: C_6  and  C_7
REMARK    5  A    between atoms: C_7  and  N_8
REMARK    6  A    between atoms: N_8  and  C_9
REMARK    7  A    between atoms: C_9  and  C_10
REMARK    8  A    between atoms: C_9  and  C_16
REMARK    9  A    between atoms: C_16  and  C_17
REMARK   10  A    between atoms: C_17  and  O_18
REMARK                            x       y       z     vdW  Elec       q    Type
REMARK                         _______ _______ _______ _____ _____    ______ ____
ROOT
ATOM      1  C   UNL     1       3.842   5.396  18.886  0.00  0.00    +0.000 C 
ENDROOT
BRANCH   1   2
ATOM      2  C   UNL     1       2.921   6.628  18.894  0.00  0.00    +0.000 A 
ATOM      3  C   UNL     1       2.681   7.380  17.732  0.00  0.00    +0.000 A 
ATOM      4  C   UNL     1       1.978   8.582  17.771  0.00  0.00    +0.000 A 
ATOM      5  C   UNL     1       1.479   9.049  18.976  0.00  0.00    +0.000 A 
ATOM      6  C   UNL     1       1.659   8.304  20.135  0.00  0.00    +0.000 A 
ATOM      7  C   UNL     1       2.359   7.094  20.095  0.00  0.00    +0.000 A 
ENDBRANCH   1   2
BRANCH   1   8
ATOM      8  C   UNL     1       3.047   4.027  19.185  0.00  0.00    +0.000 C 
ATOM      9  C   UNL     1       1.560   3.978  18.717  0.00  0.00    +0.000 C 
ATOM     10  C   UNL     1       0.758   2.812  19.285  0.00  0.00    +0.000 C 
ATOM     11  O   UNL     1       0.877   2.757  20.699  0.00  0.00    +0.000 OA
ATOM     12  C   UNL     1       2.222   2.551  21.118  0.00  0.00    +0.000 C 
ATOM     13  C   UNL     1       3.087   3.740  20.714  0.00  0.00    +0.000 C 
BRANCH   8  14
ATOM     14  C   UNL     1       3.771   2.867  18.422  0.00  0.00    +0.000 C 
BRANCH  14  15
ATOM     15  O   UNL     1       3.571   2.944  17.017  0.00  0.00    +0.000 OA
ATOM     16  H   UNL     1       4.258   3.533  16.659  0.00  0.00    +0.000 HD
ENDBRANCH  14  15
ENDBRANCH   8  14
ENDBRANCH   1   8
BRANCH   1  17
ATOM     17  N   UNL     1       5.151   5.658  19.542  0.00  0.00    +0.000 NA
ATOM     18  H   UNL     1       5.427   6.628  19.409  0.00  0.00    +0.000 HD
BRANCH  17  19
ATOM     19  C   UNL     1       6.232   4.777  19.118  0.00  0.00    +0.000 C 
BRANCH  19  22
ATOM     20  C   UNL     1       6.982   5.032  15.699  0.00  0.00    +0.000 A 
ATOM     21  N   UNL     1       6.541   4.251  16.658  0.00  0.00    +0.000 NA
ATOM     22  C   UNL     1       6.808   5.008  17.766  0.00  0.00    +0.000 A 
ATOM     23  N   UNL     1       7.419   6.178  17.521  0.00  0.00    +0.000 NA
ATOM     24  O   UNL     1       7.517   6.205  16.142  0.00  0.00    +0.000 OA
BRANCH  20  25
ATOM     25  C   UNL     1       6.948   4.859  14.235  0.00  0.00    +0.000 C 
BRANCH  25  27
ATOM     26  C   UNL     1       6.070   3.427  12.392  0.00  0.00    +0.000 C 
ATOM     27  C   UNL     1       5.903   3.822  13.842  0.00  0.00    +0.000 C 
ENDBRANCH  25  27
ENDBRANCH  20  25
ENDBRANCH  19  22
ENDBRANCH  17  19
ENDBRANCH   1  17
TORSDOF 9
ENDMDL
MODEL 7
REMARK VINA RESULT:      -7.9      1.157      1.299
REMARK  Name = 
REMARK  10 active torsions:
REMARK  status: ('A' for Active; 'I' for Inactive)
REMARK    1  A    between atoms: C_1  and  C_2
REMARK    2  A    between atoms: C_2  and  C_3
REMARK    3  A    between atoms: C_3  and  C_4
REMARK    4  A    between atoms: C_6  and  C_7
REMARK    5  A    between atoms: C_7  and  N_8
REMARK    6  A    between atoms: N_8  and  C_9
REMARK    7  A    between atoms: C_9  and  C_10
REMARK    8  A    between atoms: C_9  and  C_16
REMARK    9  A    between atoms: C_16  and  C_17
REMARK   10  A    between atoms: C_17  and  O_18
REMARK                            x       y       z     vdW  Elec       q    Type
REMARK                         _______ _______ _______ _____ _____    ______ ____
ROOT
ATOM      1  C   UNL     1       3.934   5.177  18.818  0.00  0.00    +0.000 C 
ENDROOT
BRANCH   1   2
ATOM      2  C   UNL     1       3.061   6.443  18.816  0.00  0.00    +0.000 A 
ATOM      3  C   UNL     1       2.993   7.294  17.701  0.00  0.00    +0.000 A 
ATOM      4  C   UNL     1       2.333   8.519  17.754  0.00  0.00    +0.000 A 
ATOM      5  C   UNL     1       1.702   8.911  18.924  0.00  0.00    +0.000 A 
ATOM      6  C   UNL     1       1.710   8.069  20.029  0.00  0.00    +0.000 A 
ATOM      7  C   UNL     1       2.369   6.836  19.974  0.00  0.00    +0.000 A 
ENDBRANCH   1   2
BRANCH   1   8
ATOM      8  C   UNL     1       3.071   3.830  19.018  0.00  0.00    +0.000 C 
ATOM      9  C   UNL     1       1.764   3.718  18.175  0.00  0.00    +0.000 C 
ATOM     10  C   UNL     1       0.825   2.599  18.613  0.00  0.00    +0.000 C 
ATOM     11  O   UNL     1       0.559   2.678  20.006  0.00  0.00    +0.000 OA
ATOM     12  C   UNL     1       1.740   2.530  20.788  0.00  0.00    +0.000 C 
ATOM     13  C   UNL     1       2.696   3.688  20.522  0.00  0.00    +0.000 C 
BRANCH   8  14
ATOM     14  C   UNL     1       3.960   2.614  18.589  0.00  0.00    +0.000 C 
BRANCH  14  15
ATOM     15  O   UNL     1       5.048   2.407  19.479  0.00  0.00    +0.000 OA
ATOM     16  H   UNL     1       5.751   3.031  19.227  0.00  0.00    +0.000 HD
ENDBRANCH  14  15
ENDBRANCH   8  14
ENDBRANCH   1   8
BRANCH   1  17
ATOM     17  N   UNL     1       5.210   5.363  19.559  0.00  0.00    +0.000 NA
ATOM     18  H   UNL     1       5.053   5.912  20.402  0.00  0.00    +0.000 HD
BRANCH  17  19
ATOM     19  C   UNL     1       6.287   5.957  18.779  0.00  0.00    +0.000 C 
BRANCH  19  22
ATOM     20  C   UNL     1       5.701   5.032  15.444  0.00  0.00    +0.000 A 
ATOM     21  N   UNL     1       5.991   4.608  16.652  0.00  0.00    +0.000 NA
ATOM     22  C   UNL     1       6.230   5.790  17.302  0.00  0.00    +0.000 A 
ATOM     23  N   UNL     1       6.137   6.887  16.535  0.00  0.00    +0.000 NA
ATOM     24  O   UNL     1       5.764   6.386  15.302  0.00  0.00    +0.000 OA
BRANCH  20  25
ATOM     25  C   UNL     1       5.280   4.283  14.246  0.00  0.00    +0.000 C 
BRANCH  25  27
ATOM     26  C   UNL     1       6.601   3.913  12.163  0.00  0.00    +0.000 C 
ATOM     27  C   UNL     1       6.465   3.552  13.626  0.00  0.00    +0.000 C 
ENDBRANCH  25  27
ENDBRANCH  20  25
ENDBRANCH  19  22
ENDBRANCH  17  19
ENDBRANCH   1  17
TORSDOF 9
ENDMDL
MODEL 8
REMARK VINA RESULT:      -7.9      2.589      4.120
REMARK  Name = 
REMARK  10 active torsions:
REMARK  status: ('A' for Active; 'I' for Inactive)
REMARK    1  A    between atoms: C_1  and  C_2
REMARK    2  A    between atoms: C_2  and  C_3
REMARK    3  A    between atoms: C_3  and  C_4
REMARK    4  A    between atoms: C_6  and  C_7
REMARK    5  A    between atoms: C_7  and  N_8
REMARK    6  A    between atoms: N_8  and  C_9
REMARK    7  A    between atoms: C_9  and  C_10
REMARK    8  A    between atoms: C_9  and  C_16
REMARK    9  A    between atoms: C_16  and  C_17
REMARK   10  A    between atoms: C_17  and  O_18
REMARK                            x       y       z     vdW  Elec       q    Type
REMARK                         _______ _______ _______ _____ _____    ______ ____
ROOT
ATOM      1  C   UNL     1       3.968   5.045  18.392  0.00  0.00    +0.000 C 
ENDROOT
BRANCH   1   2
ATOM      2  C   UNL     1       3.259   6.389  18.629  0.00  0.00    +0.000 A 
ATOM      3  C   UNL     1       2.579   6.667  19.826  0.00  0.00    +0.000 A 
ATOM      4  C   UNL     1       1.806   7.815  19.980  0.00  0.00    +0.000 A 
ATOM      5  C   UNL     1       1.713   8.727  18.939  0.00  0.00    +0.000 A 
ATOM      6  C   UNL     1       2.412   8.504  17.760  0.00  0.00    +0.000 A 
ATOM      7  C   UNL     1       3.194   7.354  17.608  0.00  0.00    +0.000 A 
ENDBRANCH   1   2
BRANCH   1   8
ATOM      8  C   UNL     1       3.062   3.784  18.823  0.00  0.00    +0.000 C 
ATOM      9  C   UNL     1       1.691   3.638  18.094  0.00  0.00    +0.000 C 
ATOM     10  C   UNL     1       0.739   2.636  18.736  0.00  0.00    +0.000 C 
ATOM     11  O   UNL     1       0.582   2.903  20.122  0.00  0.00    +0.000 OA
ATOM     12  C   UNL     1       1.811   2.790  20.833  0.00  0.00    +0.000 C 
ATOM     13  C   UNL     1       2.796   3.851  20.355  0.00  0.00    +0.000 C 
BRANCH   8  14
ATOM     14  C   UNL     1       3.860   2.477  18.494  0.00  0.00    +0.000 C 
BRANCH  14  15
ATOM     15  O   UNL     1       4.940   2.269  19.394  0.00  0.00    +0.000 OA
ATOM     16  H   UNL     1       4.574   2.302  20.296  0.00  0.00    +0.000 HD
ENDBRANCH  14  15
ENDBRANCH   8  14
ENDBRANCH   1   8
BRANCH   1  17
ATOM     17  N   UNL     1       5.410   5.088  18.753  0.00  0.00    +0.000 NA
ATOM     18  H   UNL     1       5.567   5.756  19.505  0.00  0.00    +0.000 HD
BRANCH  17  19
ATOM     19  C   UNL     1       6.308   5.375  17.643  0.00  0.00    +0.000 C 
BRANCH  19  22
ATOM     20  C   UNL     1       7.950   8.466  17.906  0.00  0.00    +0.000 A 
ATOM     21  N   UNL     1       7.118   7.736  17.200  0.00  0.00    +0.000 NA
ATOM     22  C   UNL     1       7.249   6.516  17.806  0.00  0.00    +0.000 A 
ATOM     23  N   UNL     1       8.143   6.472  18.807  0.00  0.00    +0.000 NA
ATOM     24  O   UNL     1       8.596   7.776  18.889  0.00  0.00    +0.000 OA
BRANCH  20  25
ATOM     25  C   UNL     1       8.257   9.906  17.831  0.00  0.00    +0.000 C 
BRANCH  25  27
ATOM     26  C   UNL     1       9.271  10.872  19.895  0.00  0.00    +0.000 C 
ATOM     27  C   UNL     1       9.557  10.217  18.562  0.00  0.00    +0.000 C 
ENDBRANCH  25  27
ENDBRANCH  20  25
ENDBRANCH  19  22
ENDBRANCH  17  19
ENDBRANCH   1  17
TORSDOF 9
ENDMDL
MODEL 9
REMARK VINA RESULT:      -7.8      0.981      1.435
REMARK  Name = 
REMARK  10 active torsions:
REMARK  status: ('A' for Active; 'I' for Inactive)
REMARK    1  A    between atoms: C_1  and  C_2
REMARK    2  A    between atoms: C_2  and  C_3
REMARK    3  A    between atoms: C_3  and  C_4
REMARK    4  A    between atoms: C_6  and  C_7
REMARK    5  A    between atoms: C_7  and  N_8
REMARK    6  A    between atoms: N_8  and  C_9
REMARK    7  A    between atoms: C_9  and  C_10
REMARK    8  A    between atoms: C_9  and  C_16
REMARK    9  A    between atoms: C_16  and  C_17
REMARK   10  A    between atoms: C_17  and  O_18
REMARK                            x       y       z     vdW  Elec       q    Type
REMARK                         _______ _______ _______ _____ _____    ______ ____
ROOT
ATOM      1  C   UNL     1       3.939   4.722  18.288  0.00  0.00    +0.000 C 
ENDROOT
BRANCH   1   2
ATOM      2  C   UNL     1       3.308   6.105  18.521  0.00  0.00    +0.000 A 
ATOM      3  C   UNL     1       2.633   6.421  19.712  0.00  0.00    +0.000 A 
ATOM      4  C   UNL     1       1.928   7.612  19.859  0.00  0.00    +0.000 A 
ATOM      5  C   UNL     1       1.899   8.529  18.820  0.00  0.00    +0.000 A 
ATOM      6  C   UNL     1       2.597   8.267  17.648  0.00  0.00    +0.000 A 
ATOM      7  C   UNL     1       3.311   7.073  17.501  0.00  0.00    +0.000 A 
ENDBRANCH   1   2
BRANCH   1   8
ATOM      8  C   UNL     1       3.004   3.519  18.816  0.00  0.00    +0.000 C 
ATOM      9  C   UNL     1       1.603   3.390  18.144  0.00  0.00    +0.000 C 
ATOM     10  C   UNL     1       0.640   2.458  18.870  0.00  0.00    +0.000 C 
ATOM     11  O   UNL     1       0.543   2.801  20.245  0.00  0.00    +0.000 OA
ATOM     12  C   UNL     1       1.793   2.677  20.918  0.00  0.00    +0.000 C 
ATOM     13  C   UNL     1       2.797   3.675  20.351  0.00  0.00    +0.000 C 
BRANCH   8  14
ATOM     14  C   UNL     1       3.742   2.168  18.528  0.00  0.00    +0.000 C 
BRANCH  14  15
ATOM     15  O   UNL     1       4.836   1.957  19.409  0.00  0.00    +0.000 OA
ATOM     16  H   UNL     1       5.058   2.819  19.806  0.00  0.00    +0.000 HD
ENDBRANCH  14  15
ENDBRANCH   8  14
ENDBRANCH   1   8
BRANCH   1  17
ATOM     17  N   UNL     1       5.401   4.707  18.562  0.00  0.00    +0.000 NA
ATOM     18  H   UNL     1       5.585   4.991  19.522  0.00  0.00    +0.000 HD
BRANCH  17  19
ATOM     19  C   UNL     1       6.200   5.513  17.649  0.00  0.00    +0.000 C 
BRANCH  19  22
ATOM     20  C   UNL     1       5.844   4.443  14.325  0.00  0.00    +0.000 A 
ATOM     21  N   UNL     1       5.383   4.347  15.551  0.00  0.00    +0.000 NA
ATOM     22  C   UNL     1       6.348   5.018  16.254  0.00  0.00    +0.000 A 
ATOM     23  N   UNL     1       7.375   5.471  15.519  0.00  0.00    +0.000 NA
ATOM     24  O   UNL     1       7.030   5.107  14.230  0.00  0.00    +0.000 OA
BRANCH  20  25
ATOM     25  C   UNL     1       5.261   3.989  13.049  0.00  0.00    +0.000 C 
BRANCH  25  27
ATOM     26  C   UNL     1       5.682   2.063  11.521  0.00  0.00    +0.000 C 
ATOM     27  C   UNL     1       6.304   3.255  12.215  0.00  0.00    +0.000 C 
ENDBRANCH  25  27
ENDBRANCH  20  25
ENDBRANCH  19  22
ENDBRANCH  17  19
ENDBRANCH   1  17
TORSDOF 9
ENDMDL
