MODEL 1
REMARK VINA RESULT:      -7.8      0.000      0.000
REMARK  Name = 
REMARK  4 active torsions:
REMARK  status: ('A' for Active; 'I' for Inactive)
REMARK    1  A    between atoms: C_2  and  C_3
REMARK    2  A    between atoms: C_3  and  N_4
REMARK    3  A    between atoms: C_5  and  C_7
REMARK    4  A    between atoms: N_12  and  C_13
REMARK                            x       y       z     vdW  Elec       q    Type
REMARK                         _______ _______ _______ _____ _____    ______ ____
ROOT
ATOM      1  O   UNL     1       6.883   5.566  19.886  0.00  0.00    +0.000 OA
ATOM      2  C   UNL     1       6.842   4.805  18.922  0.00  0.00    +0.000 C 
ATOM      3  N   UNL     1       5.809   3.922  18.688  0.00  0.00    +0.000 N 
ATOM      4  H   UNL     1       5.900   3.290  17.897  0.00  0.00    +0.000 HD
ENDROOT
BRANCH   3   5
ATOM      5  C   UNL     1       4.562   3.907  19.460  0.00  0.00    +0.000 C 
ATOM      6  C   UNL     1       3.630   5.036  18.993  0.00  0.00    +0.000 C 
ATOM      7  C   UNL     1       2.952   4.789  17.645  0.00  0.00    +0.000 C 
ATOM      8  C   UNL     1       1.626   4.042  17.761  0.00  0.00    +0.000 C 
ATOM      9  C   UNL     1       1.727   2.595  18.228  0.00  0.00    +0.000 C 
ATOM     10  C   UNL     1       2.443   2.391  19.563  0.00  0.00    +0.000 C 
ATOM     11  C   UNL     1       3.964   2.491  19.438  0.00  0.00    +0.000 C 
ENDBRANCH   3   5
BRANCH   2  12
ATOM     12  C   UNL     1       7.987   4.722  17.904  0.00  0.00    +0.000 C 
BRANCH  12  13
ATOM     13  N   UNL     1       7.542   4.290  16.596  0.00  0.00    +0.000 N 
ATOM     14  C   UNL     1       7.019   5.169  15.673  0.00  0.00    +0.000 C 
ATOM     15  O   UNL     1       6.876   6.362  15.940  0.00  0.00    +0.000 OA
ATOM     16  H   UNL     1       7.599   3.311  16.341  0.00  0.00    +0.000 HD
BRANCH  14  17
ATOM     17  C   UNL     1       6.681   4.578  14.396  0.00  0.00    +0.000 A 
ATOM     18  C   UNL     1       5.645   3.736  14.031  0.00  0.00    +0.000 A 
ATOM     19  C   UNL     1       5.799   3.470  12.649  0.00  0.00    +0.000 A 
ATOM     20  C   UNL     1       6.915   4.164  12.251  0.00  0.00    +0.000 A 
ATOM     21  O   UNL     1       7.457   4.845  13.296  0.00  0.00    +0.000 OA
ENDBRANCH  14  17
ENDBRANCH  12  13
ENDBRANCH   2  12
TORSDOF 4
ENDMDL
MODEL 2
REMARK VINA RESULT:      -7.7      1.096      1.531
REMARK  Name = 
REMARK  4 active torsions:
REMARK  status: ('A' for Active; 'I' for Inactive)
REMARK    1  A    between atoms: C_2  and  C_3
REMARK    2  A    between atoms: C_3  and  N_4
REMARK    3  A    between atoms: C_5  and  C_7
REMARK    4  A    between atoms: N_12  and  C_13
REMARK                            x       y       z     vdW  Elec       q    Type
REMARK                         _______ _______ _______ _____ _____    ______ ____
ROOT
ATOM      1  O   UNL     1       5.759   6.049  19.297  0.00  0.00    +0.000 OA
ATOM      2  C   UNL     1       5.696   5.048  18.587  0.00  0.00    +0.000 C 
ATOM      3  N   UNL     1       4.523   4.372  18.321  0.00  0.00    +0.000 N 
ATOM      4  H   UNL     1       4.587   3.518  17.773  0.00  0.00    +0.000 HD
ENDROOT
BRANCH   3   5
ATOM      5  C   UNL     1       3.197   4.864  18.707  0.00  0.00    +0.000 C 
ATOM      6  C   UNL     1       2.121   4.295  17.770  0.00  0.00    +0.000 C 
ATOM      7  C   UNL     1       1.786   2.821  18.002  0.00  0.00    +0.000 C 
ATOM      8  C   UNL     1       0.685   2.604  19.036  0.00  0.00    +0.000 C 
ATOM      9  C   UNL     1       1.049   2.976  20.469  0.00  0.00    +0.000 C 
ATOM     10  C   UNL     1       1.532   4.413  20.663  0.00  0.00    +0.000 C 
ATOM     11  C   UNL     1       2.978   4.616  20.209  0.00  0.00    +0.000 C 
ENDBRANCH   3   5
BRANCH   2  12
ATOM     12  C   UNL     1       6.947   4.409  17.970  0.00  0.00    +0.000 C 
BRANCH  12  13
ATOM     13  N   UNL     1       6.805   4.157  16.552  0.00  0.00    +0.000 N 
ATOM     14  C   UNL     1       7.065   5.125  15.606  0.00  0.00    +0.000 C 
ATOM     15  O   UNL     1       7.397   6.264  15.935  0.00  0.00    +0.000 OA
ATOM     16  H   UNL     1       6.493   3.249  16.229  0.00  0.00    +0.000 HD
BRANCH  14  17
ATOM     17  C   UNL     1       6.929   4.685  14.235  0.00  0.00    +0.000 A 
ATOM     18  C   UNL     1       6.129   3.709  13.669  0.00  0.00    +0.000 A 
ATOM     19  C   UNL     1       6.404   3.704  12.280  0.00  0.00    +0.000 A 
ATOM     20  C   UNL     1       7.353   4.676  12.079  0.00  0.00    +0.000 A 
ATOM     21  O   UNL     1       7.677   5.283  13.251  0.00  0.00    +0.000 OA
ENDBRANCH  14  17
ENDBRANCH  12  13
ENDBRANCH   2  12
TORSDOF 4
ENDMDL
MODEL 3
REMARK VINA RESULT:      -7.5      1.962      2.505
REMARK  Name = 
REMARK  4 active torsions:
REMARK  status: ('A' for Active; 'I' for Inactive)
REMARK    1  A    between atoms: C_2  and  C_3
REMARK    2  A    between atoms: C_3  and  N_4
REMARK    3  A    between atoms: C_5  and  C_7
REMARK    4  A    between atoms: N_12  and  C_13
REMARK                            x       y       z     vdW  Elec       q    Type
REMARK                         _______ _______ _______ _____ _____    ______ ____
ROOT
ATOM      1  O   UNL     1       3.625   7.634  17.077  0.00  0.00    +0.000 OA
ATOM      2  C   UNL     1       4.327   6.725  17.514  0.00  0.00    +0.000 C 
ATOM      3  N   UNL     1       3.860   5.734  18.354  0.00  0.00    +0.000 N 
ATOM      4  H   UNL     1       4.535   5.064  18.711  0.00  0.00    +0.000 HD
ENDROOT
BRANCH   3   5
ATOM      5  C   UNL     1       2.443   5.549  18.682  0.00  0.00    +0.000 C 
ATOM      6  C   UNL     1       1.782   4.589  17.680  0.00  0.00    +0.000 C 
ATOM      7  C   UNL     1       2.153   3.117  17.866  0.00  0.00    +0.000 C 
ATOM      8  C   UNL     1       1.237   2.379  18.838  0.00  0.00    +0.000 C 
ATOM      9  C   UNL     1       1.337   2.818  20.294  0.00  0.00    +0.000 C 
ATOM     10  C   UNL     1       1.100   4.308  20.541  0.00  0.00    +0.000 C 
ATOM     11  C   UNL     1       2.307   5.168  20.165  0.00  0.00    +0.000 C 
ENDBRANCH   3   5
BRANCH   2  12
ATOM     12  C   UNL     1       5.828   6.640  17.212  0.00  0.00    +0.000 C 
BRANCH  12  13
ATOM     13  N   UNL     1       6.104   6.177  15.868  0.00  0.00    +0.000 N 
ATOM     14  C   UNL     1       6.545   4.897  15.611  0.00  0.00    +0.000 C 
ATOM     15  O   UNL     1       6.758   4.101  16.526  0.00  0.00    +0.000 OA
ATOM     16  H   UNL     1       5.986   6.806  15.083  0.00  0.00    +0.000 HD
BRANCH  14  17
ATOM     17  C   UNL     1       6.714   4.584  14.209  0.00  0.00    +0.000 A 
ATOM     18  C   UNL     1       7.532   5.147  13.245  0.00  0.00    +0.000 A 
ATOM     19  C   UNL     1       7.288   4.446  12.039  0.00  0.00    +0.000 A 
ATOM     20  C   UNL     1       6.339   3.498  12.335  0.00  0.00    +0.000 A 
ATOM     21  O   UNL     1       5.986   3.565  13.647  0.00  0.00    +0.000 OA
ENDBRANCH  14  17
ENDBRANCH  12  13
ENDBRANCH   2  12
TORSDOF 4
ENDMDL
MODEL 4
REMARK VINA RESULT:      -7.4      1.028      1.195
REMARK  Name = 
REMARK  4 active torsions:
REMARK  status: ('A' for Active; 'I' for Inactive)
REMARK    1  A    between atoms: C_2  and  C_3
REMARK    2  A    between atoms: C_3  and  N_4
REMARK    3  A    between atoms: C_5  and  C_7
REMARK    4  A    between atoms: N_12  and  C_13
REMARK                            x       y       z     vdW  Elec       q    Type
REMARK                         _______ _______ _______ _____ _____    ______ ____
ROOT
ATOM      1  O   UNL     1       7.057   5.167  19.919  0.00  0.00    +0.000 OA
ATOM      2  C   UNL     1       6.556   5.477  18.840  0.00  0.00    +0.000 C 
ATOM      3  N   UNL     1       5.244   5.212  18.502  0.00  0.00    +0.000 N 
ATOM      4  H   UNL     1       4.944   5.453  17.561  0.00  0.00    +0.000 HD
ENDROOT
BRANCH   3   5
ATOM      5  C   UNL     1       4.252   4.691  19.446  0.00  0.00    +0.000 C 
ATOM      6  C   UNL     1       2.883   5.345  19.201  0.00  0.00    +0.000 C 
ATOM      7  C   UNL     1       2.151   4.848  17.954  0.00  0.00    +0.000 C 
ATOM      8  C   UNL     1       1.273   3.627  18.212  0.00  0.00    +0.000 C 
ATOM      9  C   UNL     1       2.020   2.344  18.557  0.00  0.00    +0.000 C 
ATOM     10  C   UNL     1       2.964   2.444  19.755  0.00  0.00    +0.000 C 
ATOM     11  C   UNL     1       4.275   3.154  19.415  0.00  0.00    +0.000 C 
ENDBRANCH   3   5
BRANCH   2  12
ATOM     12  C   UNL     1       7.373   6.144  17.727  0.00  0.00    +0.000 C 
BRANCH  12  13
ATOM     13  N   UNL     1       7.305   5.422  16.474  0.00  0.00    +0.000 N 
ATOM     14  C   UNL     1       6.374   5.724  15.504  0.00  0.00    +0.000 C 
ATOM     15  O   UNL     1       5.533   6.606  15.681  0.00  0.00    +0.000 OA
ATOM     16  H   UNL     1       7.947   4.659  16.295  0.00  0.00    +0.000 HD
BRANCH  14  17
ATOM     17  C   UNL     1       6.487   4.944  14.291  0.00  0.00    +0.000 A 
ATOM     18  C   UNL     1       7.467   4.917  13.316  0.00  0.00    +0.000 A 
ATOM     19  C   UNL     1       7.063   3.962  12.351  0.00  0.00    +0.000 A 
ATOM     20  C   UNL     1       5.863   3.462  12.793  0.00  0.00    +0.000 A 
ATOM     21  O   UNL     1       5.504   4.041  13.969  0.00  0.00    +0.000 OA
ENDBRANCH  14  17
ENDBRANCH  12  13
ENDBRANCH   2  12
TORSDOF 4
ENDMDL
MODEL 5
REMARK VINA RESULT:      -7.4      1.608      2.153
REMARK  Name = 
REMARK  4 active torsions:
REMARK  status: ('A' for Active; 'I' for Inactive)
REMARK    1  A    between atoms: C_2  and  C_3
REMARK    2  A    between atoms: C_3  and  N_4
REMARK    3  A    between atoms: C_5  and  C_7
REMARK    4  A    between atoms: N_12  and  C_13
REMARK                            x       y       z     vdW  Elec       q    Type
REMARK                         _______ _______ _______ _____ _____    ______ ____
ROOT
ATOM      1  O   UNL     1       4.623   4.431  19.375  0.00  0.00    +0.000 OA
ATOM      2  C   UNL     1       4.614   5.321  18.528  0.00  0.00    +0.000 C 
ATOM      3  N   UNL     1       3.460   5.843  17.980  0.00  0.00    +0.000 N 
ATOM      4  H   UNL     1       3.562   6.532  17.240  0.00  0.00    +0.000 HD
ENDROOT
BRANCH   3   5
ATOM      5  C   UNL     1       2.114   5.522  18.464  0.00  0.00    +0.000 C 
ATOM      6  C   UNL     1       1.479   4.425  17.596  0.00  0.00    +0.000 C 
ATOM      7  C   UNL     1       2.039   3.021  17.829  0.00  0.00    +0.000 C 
ATOM      8  C   UNL     1       1.317   2.256  18.934  0.00  0.00    +0.000 C 
ATOM      9  C   UNL     1       1.504   2.806  20.343  0.00  0.00    +0.000 C 
ATOM     10  C   UNL     1       1.116   4.273  20.524  0.00  0.00    +0.000 C 
ATOM     11  C   UNL     1       2.169   5.235  19.974  0.00  0.00    +0.000 C 
ENDBRANCH   3   5
BRANCH   2  12
ATOM     12  C   UNL     1       5.909   5.903  17.946  0.00  0.00    +0.000 C 
BRANCH  12  13
ATOM     13  N   UNL     1       6.052   5.643  16.530  0.00  0.00    +0.000 N 
ATOM     14  C   UNL     1       7.071   4.863  16.028  0.00  0.00    +0.000 C 
ATOM     15  O   UNL     1       7.929   4.381  16.769  0.00  0.00    +0.000 OA
ATOM     16  H   UNL     1       5.398   6.051  15.872  0.00  0.00    +0.000 HD
BRANCH  14  17
ATOM     17  C   UNL     1       7.030   4.658  14.596  0.00  0.00    +0.000 A 
ATOM     18  C   UNL     1       6.274   3.795  13.824  0.00  0.00    +0.000 A 
ATOM     19  C   UNL     1       6.642   4.020  12.475  0.00  0.00    +0.000 A 
ATOM     20  C   UNL     1       7.598   5.006  12.502  0.00  0.00    +0.000 A 
ATOM     21  O   UNL     1       7.840   5.407  13.778  0.00  0.00    +0.000 OA
ENDBRANCH  14  17
ENDBRANCH  12  13
ENDBRANCH   2  12
TORSDOF 4
ENDMDL
MODEL 6
REMARK VINA RESULT:      -7.3      1.518      1.798
REMARK  Name = 
REMARK  4 active torsions:
REMARK  status: ('A' for Active; 'I' for Inactive)
REMARK    1  A    between atoms: C_2  and  C_3
REMARK    2  A    between atoms: C_3  and  N_4
REMARK    3  A    between atoms: C_5  and  C_7
REMARK    4  A    between atoms: N_12  and  C_13
REMARK                            x       y       z     vdW  Elec       q    Type
REMARK                         _______ _______ _______ _____ _____    ______ ____
ROOT
ATOM      1  O   UNL     1       6.399   4.642  19.133  0.00  0.00    +0.000 OA
ATOM      2  C   UNL     1       5.619   5.013  18.259  0.00  0.00    +0.000 C 
ATOM      3  N   UNL     1       4.413   4.395  17.998  0.00  0.00    +0.000 N 
ATOM      4  H   UNL     1       3.869   4.740  17.212  0.00  0.00    +0.000 HD
ENDROOT
BRANCH   3   5
ATOM      5  C   UNL     1       3.844   3.338  18.840  0.00  0.00    +0.000 C 
ATOM      6  C   UNL     1       3.333   3.925  20.165  0.00  0.00    +0.000 C 
ATOM      7  C   UNL     1       2.031   4.720  20.053  0.00  0.00    +0.000 C 
ATOM      8  C   UNL     1       0.780   3.859  20.209  0.00  0.00    +0.000 C 
ATOM      9  C   UNL     1       0.528   2.860  19.086  0.00  0.00    +0.000 C 
ATOM     10  C   UNL     1       1.676   1.889  18.810  0.00  0.00    +0.000 C 
ATOM     11  C   UNL     1       2.818   2.533  18.025  0.00  0.00    +0.000 C 
ENDBRANCH   3   5
BRANCH   2  12
ATOM     12  C   UNL     1       5.946   6.181  17.320  0.00  0.00    +0.000 C 
BRANCH  12  13
ATOM     13  N   UNL     1       6.047   5.774  15.934  0.00  0.00    +0.000 N 
ATOM     14  C   UNL     1       7.039   4.928  15.489  0.00  0.00    +0.000 C 
ATOM     15  O   UNL     1       7.909   4.510  16.254  0.00  0.00    +0.000 OA
ATOM     16  H   UNL     1       5.381   6.123  15.256  0.00  0.00    +0.000 HD
BRANCH  14  17
ATOM     17  C   UNL     1       6.955   4.578  14.088  0.00  0.00    +0.000 A 
ATOM     18  C   UNL     1       7.561   5.134  12.975  0.00  0.00    +0.000 A 
ATOM     19  C   UNL     1       7.121   4.391  11.853  0.00  0.00    +0.000 A 
ATOM     20  C   UNL     1       6.276   3.427  12.344  0.00  0.00    +0.000 A 
ATOM     21  O   UNL     1       6.170   3.523  13.696  0.00  0.00    +0.000 OA
ENDBRANCH  14  17
ENDBRANCH  12  13
ENDBRANCH   2  12
TORSDOF 4
ENDMDL
MODEL 7
REMARK VINA RESULT:      -7.3      1.820      2.519
REMARK  Name = 
REMARK  4 active torsions:
REMARK  status: ('A' for Active; 'I' for Inactive)
REMARK    1  A    between atoms: C_2  and  C_3
REMARK    2  A    between atoms: C_3  and  N_4
REMARK    3  A    between atoms: C_5  and  C_7
REMARK    4  A    between atoms: N_12  and  C_13
REMARK                            x       y       z     vdW  Elec       q    Type
REMARK                         _______ _______ _______ _____ _____    ______ ____
ROOT
ATOM      1  O   UNL     1       4.702   6.567  16.745  0.00  0.00    +0.000 OA
ATOM      2  C   UNL     1       4.959   5.401  17.035  0.00  0.00    +0.000 C 
ATOM      3  N   UNL     1       4.250   4.671  17.968  0.00  0.00    +0.000 N 
ATOM      4  H   UNL     1       4.582   3.735  18.182  0.00  0.00    +0.000 HD
ENDROOT
BRANCH   3   5
ATOM      5  C   UNL     1       3.008   5.139  18.591  0.00  0.00    +0.000 C 
ATOM      6  C   UNL     1       1.790   4.512  17.895  0.00  0.00    +0.000 C 
ATOM      7  C   UNL     1       1.555   3.037  18.224  0.00  0.00    +0.000 C 
ATOM      8  C   UNL     1       0.682   2.822  19.457  0.00  0.00    +0.000 C 
ATOM      9  C   UNL     1       1.303   3.249  20.782  0.00  0.00    +0.000 C 
ATOM     10  C   UNL     1       1.767   4.703  20.843  0.00  0.00    +0.000 C 
ATOM     11  C   UNL     1       3.091   4.932  20.113  0.00  0.00    +0.000 C 
ENDBRANCH   3   5
BRANCH   2  12
ATOM     12  C   UNL     1       6.150   4.655  16.423  0.00  0.00    +0.000 C 
BRANCH  12  13
ATOM     13  N   UNL     1       5.819   4.000  15.175  0.00  0.00    +0.000 N 
ATOM     14  C   UNL     1       6.432   4.334  13.987  0.00  0.00    +0.000 C 
ATOM     15  O   UNL     1       7.268   5.236  13.934  0.00  0.00    +0.000 OA
ATOM     16  H   UNL     1       5.107   3.280  15.156  0.00  0.00    +0.000 HD
BRANCH  14  17
ATOM     17  C   UNL     1       6.024   3.540  12.849  0.00  0.00    +0.000 A 
ATOM     18  C   UNL     1       6.731   2.644  12.066  0.00  0.00    +0.000 A 
ATOM     19  C   UNL     1       5.832   2.154  11.088  0.00  0.00    +0.000 A 
ATOM     20  C   UNL     1       4.632   2.776  11.330  0.00  0.00    +0.000 A 
ATOM     21  O   UNL     1       4.730   3.613  12.397  0.00  0.00    +0.000 OA
ENDBRANCH  14  17
ENDBRANCH  12  13
ENDBRANCH   2  12
TORSDOF 4
ENDMDL
MODEL 8
REMARK VINA RESULT:      -7.2      1.426      1.801
REMARK  Name = 
REMARK  4 active torsions:
REMARK  status: ('A' for Active; 'I' for Inactive)
REMARK    1  A    between atoms: C_2  and  C_3
REMARK    2  A    between atoms: C_3  and  N_4
REMARK    3  A    between atoms: C_5  and  C_7
REMARK    4  A    between atoms: N_12  and  C_13
REMARK                            x       y       z     vdW  Elec       q    Type
REMARK                         _______ _______ _______ _____ _____    ______ ____
ROOT
ATOM      1  O   UNL     1       5.030   6.298  17.942  0.00  0.00    +0.000 OA
ATOM      2  C   UNL     1       5.283   5.125  18.210  0.00  0.00    +0.000 C 
ATOM      3  N   UNL     1       4.489   4.337  19.017  0.00  0.00    +0.000 N 
ATOM      4  H   UNL     1       4.818   3.399  19.228  0.00  0.00    +0.000 HD
ENDROOT
BRANCH   3   5
ATOM      5  C   UNL     1       3.169   4.747  19.507  0.00  0.00    +0.000 C 
ATOM      6  C   UNL     1       2.127   4.654  18.381  0.00  0.00    +0.000 C 
ATOM      7  C   UNL     1       1.698   3.231  18.023  0.00  0.00    +0.000 C 
ATOM      8  C   UNL     1       0.520   2.726  18.853  0.00  0.00    +0.000 C 
ATOM      9  C   UNL     1       0.808   2.505  20.333  0.00  0.00    +0.000 C 
ATOM     10  C   UNL     1       1.356   3.723  21.077  0.00  0.00    +0.000 C 
ATOM     11  C   UNL     1       2.838   3.971  20.793  0.00  0.00    +0.000 C 
ENDBRANCH   3   5
BRANCH   2  12
ATOM     12  C   UNL     1       6.559   4.435  17.712  0.00  0.00    +0.000 C 
BRANCH  12  13
ATOM     13  N   UNL     1       6.533   4.168  16.289  0.00  0.00    +0.000 N 
ATOM     14  C   UNL     1       7.060   5.048  15.369  0.00  0.00    +0.000 C 
ATOM     15  O   UNL     1       7.546   6.123  15.722  0.00  0.00    +0.000 OA
ATOM     16  H   UNL     1       6.106   3.317  15.943  0.00  0.00    +0.000 HD
BRANCH  14  17
ATOM     17  C   UNL     1       7.002   4.596  13.996  0.00  0.00    +0.000 A 
ATOM     18  C   UNL     1       7.727   4.982  12.882  0.00  0.00    +0.000 A 
ATOM     19  C   UNL     1       7.254   4.207  11.795  0.00  0.00    +0.000 A 
ATOM     20  C   UNL     1       6.272   3.395  12.307  0.00  0.00    +0.000 A 
ATOM     21  O   UNL     1       6.112   3.614  13.639  0.00  0.00    +0.000 OA
ENDBRANCH  14  17
ENDBRANCH  12  13
ENDBRANCH   2  12
TORSDOF 4
ENDMDL
MODEL 9
REMARK VINA RESULT:      -7.2      1.573      1.995
REMARK  Name = 
REMARK  4 active torsions:
REMARK  status: ('A' for Active; 'I' for Inactive)
REMARK    1  A    between atoms: C_2  and  C_3
REMARK    2  A    between atoms: C_3  and  N_4
REMARK    3  A    between atoms: C_5  and  C_7
REMARK    4  A    between atoms: N_12  and  C_13
REMARK                            x       y       z     vdW  Elec       q    Type
REMARK                         _______ _______ _______ _____ _____    ______ ____
ROOT
ATOM      1  O   UNL     1       5.254   6.875  17.819  0.00  0.00    +0.000 OA
ATOM      2  C   UNL     1       5.501   5.692  18.040  0.00  0.00    +0.000 C 
ATOM      3  N   UNL     1       4.610   4.824  18.638  0.00  0.00    +0.000 N 
ATOM      4  H   UNL     1       4.933   3.881  18.835  0.00  0.00    +0.000 HD
ENDROOT
BRANCH   3   5
ATOM      5  C   UNL     1       3.212   5.162  18.920  0.00  0.00    +0.000 C 
ATOM      6  C   UNL     1       2.292   4.592  17.829  0.00  0.00    +0.000 C 
ATOM      7  C   UNL     1       2.078   3.079  17.900  0.00  0.00    +0.000 C 
ATOM      8  C   UNL     1       0.905   2.674  18.789  0.00  0.00    +0.000 C 
ATOM      9  C   UNL     1       1.088   2.943  20.278  0.00  0.00    +0.000 C 
ATOM     10  C   UNL     1       1.411   4.392  20.642  0.00  0.00    +0.000 C 
ATOM     11  C   UNL     1       2.869   4.759  20.363  0.00  0.00    +0.000 C 
ENDBRANCH   3   5
BRANCH   2  12
ATOM     12  C   UNL     1       6.868   5.074  17.723  0.00  0.00    +0.000 C 
BRANCH  12  13
ATOM     13  N   UNL     1       7.106   4.940  16.301  0.00  0.00    +0.000 N 
ATOM     14  C   UNL     1       6.289   4.184  15.490  0.00  0.00    +0.000 C 
ATOM     15  O   UNL     1       5.335   3.557  15.953  0.00  0.00    +0.000 OA
ATOM     16  H   UNL     1       7.903   5.401  15.877  0.00  0.00    +0.000 HD
BRANCH  14  17
ATOM     17  C   UNL     1       6.638   4.208  14.086  0.00  0.00    +0.000 A 
ATOM     18  C   UNL     1       7.513   5.015  13.382  0.00  0.00    +0.000 A 
ATOM     19  C   UNL     1       7.461   4.597  12.030  0.00  0.00    +0.000 A 
ATOM     20  C   UNL     1       6.560   3.561  11.987  0.00  0.00    +0.000 A 
ATOM     21  O   UNL     1       6.057   3.310  13.225  0.00  0.00    +0.000 OA
ENDBRANCH  14  17
ENDBRANCH  12  13
ENDBRANCH   2  12
TORSDOF 4
ENDMDL
