MODEL 1
REMARK VINA RESULT:      -7.4      0.000      0.000
REMARK  Name = 
REMARK  10 active torsions:
REMARK  status: ('A' for Active; 'I' for Inactive)
REMARK    1  A    between atoms: C_1  and  C_2
REMARK    2  A    between atoms: C_2  and  C_4
REMARK    3  A    between atoms: C_8  and  O_9
REMARK    4  A    between atoms: O_9  and  C_10
REMARK    5  A    between atoms: C_10  and  C_11
REMARK    6  A    between atoms: N_13  and  C_14
REMARK    7  A    between atoms: N_13  and  C_15
REMARK    8  A    between atoms: C_15  and  C_16
REMARK    9  A    between atoms: N_18  and  C_19
REMARK   10  A    between atoms: C_19  and  C_20
REMARK                            x       y       z     vdW  Elec       q    Type
REMARK                         _______ _______ _______ _____ _____    ______ ____
ROOT
ATOM      1  C   UNL     1       7.362   7.167  17.740  0.00  0.00    +0.000 C 
ATOM      2  O   UNL     1       6.728   7.453  16.718  0.00  0.00    +0.000 OA
ATOM      3  N   UNL     1       7.164   5.960  18.403  0.00  0.00    +0.000 N 
ATOM      4  C   UNL     1       7.914   5.528  19.576  0.00  0.00    +0.000 C 
ENDROOT
BRANCH   1   5
ATOM      5  C   UNL     1       8.385   8.168  18.299  0.00  0.00    +0.000 C 
BRANCH   5   6
ATOM      6  O   UNL     1       8.331   9.409  17.597  0.00  0.00    +0.000 OA
BRANCH   6  11
ATOM      7  C   UNL     1       9.060  12.909  18.649  0.00  0.00    +0.000 A 
ATOM      8  C   UNL     1       9.663  12.644  19.883  0.00  0.00    +0.000 A 
ATOM      9  C   UNL     1       9.821  11.324  20.307  0.00  0.00    +0.000 A 
ATOM     10  C   UNL     1       9.371  10.271  19.506  0.00  0.00    +0.000 A 
ATOM     11  C   UNL     1       8.760  10.521  18.274  0.00  0.00    +0.000 A 
ATOM     12  C   UNL     1       8.615  11.842  17.848  0.00  0.00    +0.000 A 
BRANCH   7  14
ATOM     13  C   UNL     1       7.466  14.757  17.794  0.00  0.00    +0.000 C 
ATOM     14  C   UNL     1       8.858  14.301  18.145  0.00  0.00    +0.000 C 
ATOM     15  O   UNL     1       9.823  15.053  18.022  0.00  0.00    +0.000 OA
ENDBRANCH   7  14
ENDBRANCH   6  11
ENDBRANCH   5   6
ENDBRANCH   1   5
BRANCH   3  16
ATOM     16  C   UNL     1       6.119   5.045  17.915  0.00  0.00    +0.000 C 
BRANCH  16  17
ATOM     17  C   UNL     1       5.169   4.504  19.003  0.00  0.00    +0.000 C 
ATOM     18  O   UNL     1       4.471   5.220  19.717  0.00  0.00    +0.000 OA
ATOM     19  N   UNL     1       5.191   3.129  19.139  0.00  0.00    +0.000 N 
ATOM     20  H   UNL     1       5.541   2.559  18.378  0.00  0.00    +0.000 HD
BRANCH  19  21
ATOM     21  C   UNL     1       4.324   2.477  20.096  0.00  0.00    +0.000 C 
BRANCH  21  22
ATOM     22  C   UNL     1       2.920   2.545  19.619  0.00  0.00    +0.000 A 
ATOM     23  C   UNL     1       2.294   2.121  18.458  0.00  0.00    +0.000 A 
ATOM     24  C   UNL     1       0.924   2.442  18.605  0.00  0.00    +0.000 A 
ATOM     25  C   UNL     1       0.799   3.040  19.837  0.00  0.00    +0.000 A 
ATOM     26  O   UNL     1       2.005   3.115  20.459  0.00  0.00    +0.000 OA
ENDBRANCH  21  22
ENDBRANCH  19  21
ENDBRANCH  16  17
ENDBRANCH   3  16
TORSDOF 8
ENDMDL
MODEL 2
REMARK VINA RESULT:      -7.4      4.725      6.335
REMARK  Name = 
REMARK  10 active torsions:
REMARK  status: ('A' for Active; 'I' for Inactive)
REMARK    1  A    between atoms: C_1  and  C_2
REMARK    2  A    between atoms: C_2  and  C_4
REMARK    3  A    between atoms: C_8  and  O_9
REMARK    4  A    between atoms: O_9  and  C_10
REMARK    5  A    between atoms: C_10  and  C_11
REMARK    6  A    between atoms: N_13  and  C_14
REMARK    7  A    between atoms: N_13  and  C_15
REMARK    8  A    between atoms: C_15  and  C_16
REMARK    9  A    between atoms: N_18  and  C_19
REMARK   10  A    between atoms: C_19  and  C_20
REMARK                            x       y       z     vdW  Elec       q    Type
REMARK                         _______ _______ _______ _____ _____    ______ ____
ROOT
ATOM      1  C   UNL     1       3.600   6.441  17.596  0.00  0.00    +0.000 C 
ATOM      2  O   UNL     1       2.703   5.590  17.593  0.00  0.00    +0.000 OA
ATOM      3  N   UNL     1       4.905   6.123  17.234  0.00  0.00    +0.000 N 
ATOM      4  C   UNL     1       6.000   7.082  17.157  0.00  0.00    +0.000 C 
ENDROOT
BRANCH   1   5
ATOM      5  C   UNL     1       3.272   7.882  18.018  0.00  0.00    +0.000 C 
BRANCH   5   6
ATOM      6  O   UNL     1       1.949   8.246  17.627  0.00  0.00    +0.000 OA
BRANCH   6  11
ATOM      7  C   UNL     1       0.543   9.674  20.770  0.00  0.00    +0.000 A 
ATOM      8  C   UNL     1      -0.400  10.543  20.211  0.00  0.00    +0.000 A 
ATOM      9  C   UNL     1      -0.547  10.607  18.825  0.00  0.00    +0.000 A 
ATOM     10  C   UNL     1       0.252   9.813  17.997  0.00  0.00    +0.000 A 
ATOM     11  C   UNL     1       1.204   8.946  18.542  0.00  0.00    +0.000 A 
ATOM     12  C   UNL     1       1.339   8.875  19.929  0.00  0.00    +0.000 A 
BRANCH   7  14
ATOM     13  C   UNL     1      -0.446   9.646  23.160  0.00  0.00    +0.000 C 
ATOM     14  C   UNL     1       0.750   9.567  22.246  0.00  0.00    +0.000 C 
ATOM     15  O   UNL     1       1.885   9.420  22.695  0.00  0.00    +0.000 OA
ENDBRANCH   7  14
ENDBRANCH   6  11
ENDBRANCH   5   6
ENDBRANCH   1   5
BRANCH   3  16
ATOM     16  C   UNL     1       5.232   4.722  16.920  0.00  0.00    +0.000 C 
BRANCH  16  17
ATOM     17  C   UNL     1       4.989   3.724  18.069  0.00  0.00    +0.000 C 
ATOM     18  O   UNL     1       5.603   3.744  19.133  0.00  0.00    +0.000 OA
ATOM     19  N   UNL     1       4.034   2.764  17.791  0.00  0.00    +0.000 N 
ATOM     20  H   UNL     1       3.360   2.931  17.052  0.00  0.00    +0.000 HD
BRANCH  19  21
ATOM     21  C   UNL     1       3.674   1.781  18.790  0.00  0.00    +0.000 C 
BRANCH  21  22
ATOM     22  C   UNL     1       2.664   2.360  19.711  0.00  0.00    +0.000 A 
ATOM     23  C   UNL     1       1.320   2.666  19.569  0.00  0.00    +0.000 A 
ATOM     24  C   UNL     1       0.892   3.165  20.822  0.00  0.00    +0.000 A 
ATOM     25  C   UNL     1       1.994   3.136  21.645  0.00  0.00    +0.000 A 
ATOM     26  O   UNL     1       3.077   2.656  20.980  0.00  0.00    +0.000 OA
ENDBRANCH  21  22
ENDBRANCH  19  21
ENDBRANCH  16  17
ENDBRANCH   3  16
TORSDOF 8
ENDMDL
MODEL 3
REMARK VINA RESULT:      -7.3      1.646      2.289
REMARK  Name = 
REMARK  10 active torsions:
REMARK  status: ('A' for Active; 'I' for Inactive)
REMARK    1  A    between atoms: C_1  and  C_2
REMARK    2  A    between atoms: C_2  and  C_4
REMARK    3  A    between atoms: C_8  and  O_9
REMARK    4  A    between atoms: O_9  and  C_10
REMARK    5  A    between atoms: C_10  and  C_11
REMARK    6  A    between atoms: N_13  and  C_14
REMARK    7  A    between atoms: N_13  and  C_15
REMARK    8  A    between atoms: C_15  and  C_16
REMARK    9  A    between atoms: N_18  and  C_19
REMARK   10  A    between atoms: C_19  and  C_20
REMARK                            x       y       z     vdW  Elec       q    Type
REMARK                         _______ _______ _______ _____ _____    ______ ____
ROOT
ATOM      1  C   UNL     1       7.600   6.762  18.203  0.00  0.00    +0.000 C 
ATOM      2  O   UNL     1       8.305   6.090  18.963  0.00  0.00    +0.000 OA
ATOM      3  N   UNL     1       6.497   6.213  17.557  0.00  0.00    +0.000 N 
ATOM      4  C   UNL     1       5.585   6.956  16.696  0.00  0.00    +0.000 C 
ENDROOT
BRANCH   1   5
ATOM      5  C   UNL     1       7.951   8.238  17.955  0.00  0.00    +0.000 C 
BRANCH   5   6
ATOM      6  O   UNL     1       8.936   8.696  18.879  0.00  0.00    +0.000 OA
BRANCH   6  11
ATOM      7  C   UNL     1       9.380  12.144  20.224  0.00  0.00    +0.000 A 
ATOM      8  C   UNL     1       9.427  12.845  19.015  0.00  0.00    +0.000 A 
ATOM      9  C   UNL     1       9.291  12.156  17.809  0.00  0.00    +0.000 A 
ATOM     10  C   UNL     1       9.117  10.769  17.809  0.00  0.00    +0.000 A 
ATOM     11  C   UNL     1       9.076  10.054  19.011  0.00  0.00    +0.000 A 
ATOM     12  C   UNL     1       9.199  10.749  20.215  0.00  0.00    +0.000 A 
BRANCH   7  14
ATOM     13  C   UNL     1      10.040  14.242  21.584  0.00  0.00    +0.000 C 
ATOM     14  C   UNL     1       9.526  12.827  21.545  0.00  0.00    +0.000 C 
ATOM     15  O   UNL     1       9.230  12.229  22.578  0.00  0.00    +0.000 OA
ENDBRANCH   7  14
ENDBRANCH   6  11
ENDBRANCH   5   6
ENDBRANCH   1   5
BRANCH   3  16
ATOM     16  C   UNL     1       6.218   4.777  17.727  0.00  0.00    +0.000 C 
BRANCH  16  17
ATOM     17  C   UNL     1       5.384   4.419  18.973  0.00  0.00    +0.000 C 
ATOM     18  O   UNL     1       4.958   5.250  19.772  0.00  0.00    +0.000 OA
ATOM     19  N   UNL     1       5.176   3.064  19.145  0.00  0.00    +0.000 N 
ATOM     20  H   UNL     1       5.282   2.439  18.352  0.00  0.00    +0.000 HD
BRANCH  19  21
ATOM     21  C   UNL     1       4.379   2.581  20.251  0.00  0.00    +0.000 C 
BRANCH  21  22
ATOM     22  C   UNL     1       2.940   2.658  19.895  0.00  0.00    +0.000 A 
ATOM     23  C   UNL     1       1.827   3.151  20.557  0.00  0.00    +0.000 A 
ATOM     24  C   UNL     1       0.731   2.971  19.680  0.00  0.00    +0.000 A 
ATOM     25  C   UNL     1       1.238   2.380  18.547  0.00  0.00    +0.000 A 
ATOM     26  O   UNL     1       2.577   2.179  18.668  0.00  0.00    +0.000 OA
ENDBRANCH  21  22
ENDBRANCH  19  21
ENDBRANCH  16  17
ENDBRANCH   3  16
TORSDOF 8
ENDMDL
MODEL 4
REMARK VINA RESULT:      -7.2      6.624      8.938
REMARK  Name = 
REMARK  10 active torsions:
REMARK  status: ('A' for Active; 'I' for Inactive)
REMARK    1  A    between atoms: C_1  and  C_2
REMARK    2  A    between atoms: C_2  and  C_4
REMARK    3  A    between atoms: C_8  and  O_9
REMARK    4  A    between atoms: O_9  and  C_10
REMARK    5  A    between atoms: C_10  and  C_11
REMARK    6  A    between atoms: N_13  and  C_14
REMARK    7  A    between atoms: N_13  and  C_15
REMARK    8  A    between atoms: C_15  and  C_16
REMARK    9  A    between atoms: N_18  and  C_19
REMARK   10  A    between atoms: C_19  and  C_20
REMARK                            x       y       z     vdW  Elec       q    Type
REMARK                         _______ _______ _______ _____ _____    ______ ____
ROOT
ATOM      1  C   UNL     1       1.687   9.247  18.923  0.00  0.00    +0.000 C 
ATOM      2  O   UNL     1       1.858  10.140  18.086  0.00  0.00    +0.000 OA
ATOM      3  N   UNL     1       1.096   9.510  20.155  0.00  0.00    +0.000 N 
ATOM      4  C   UNL     1       0.807   8.501  21.166  0.00  0.00    +0.000 C 
ENDROOT
BRANCH   1   5
ATOM      5  C   UNL     1       2.143   7.815  18.604  0.00  0.00    +0.000 C 
BRANCH   5   6
ATOM      6  O   UNL     1       3.371   7.814  17.877  0.00  0.00    +0.000 OA
BRANCH   6  11
ATOM      7  C   UNL     1       5.251   5.116  16.124  0.00  0.00    +0.000 A 
ATOM      8  C   UNL     1       4.545   4.009  16.607  0.00  0.00    +0.000 A 
ATOM      9  C   UNL     1       3.467   4.200  17.473  0.00  0.00    +0.000 A 
ATOM     10  C   UNL     1       3.101   5.491  17.864  0.00  0.00    +0.000 A 
ATOM     11  C   UNL     1       3.804   6.605  17.396  0.00  0.00    +0.000 A 
ATOM     12  C   UNL     1       4.872   6.411  16.518  0.00  0.00    +0.000 A 
BRANCH   7  14
ATOM     13  C   UNL     1       6.299   4.056  14.010  0.00  0.00    +0.000 C 
ATOM     14  C   UNL     1       6.416   4.973  15.199  0.00  0.00    +0.000 C 
ATOM     15  O   UNL     1       7.451   5.599  15.420  0.00  0.00    +0.000 OA
ENDBRANCH   7  14
ENDBRANCH   6  11
ENDBRANCH   5   6
ENDBRANCH   1   5
BRANCH   3  16
ATOM     16  C   UNL     1       0.744  10.900  20.491  0.00  0.00    +0.000 C 
BRANCH  16  17
ATOM     17  C   UNL     1      -0.743  11.258  20.300  0.00  0.00    +0.000 C 
ATOM     18  O   UNL     1      -1.458  11.706  21.194  0.00  0.00    +0.000 OA
ATOM     19  N   UNL     1      -1.230  10.999  19.033  0.00  0.00    +0.000 N 
ATOM     20  H   UNL     1      -0.580  10.907  18.259  0.00  0.00    +0.000 HD
BRANCH  19  21
ATOM     21  C   UNL     1      -2.600  11.319  18.696  0.00  0.00    +0.000 C 
BRANCH  21  22
ATOM     22  C   UNL     1      -2.873  10.911  17.295  0.00  0.00    +0.000 A 
ATOM     23  C   UNL     1      -2.307   9.962  16.460  0.00  0.00    +0.000 A 
ATOM     24  C   UNL     1      -3.028  10.023  15.244  0.00  0.00    +0.000 A 
ATOM     25  C   UNL     1      -3.981  11.001  15.410  0.00  0.00    +0.000 A 
ATOM     26  O   UNL     1      -3.893  11.552  16.649  0.00  0.00    +0.000 OA
ENDBRANCH  21  22
ENDBRANCH  19  21
ENDBRANCH  16  17
ENDBRANCH   3  16
TORSDOF 8
ENDMDL
MODEL 5
REMARK VINA RESULT:      -7.2      1.500      1.854
REMARK  Name = 
REMARK  10 active torsions:
REMARK  status: ('A' for Active; 'I' for Inactive)
REMARK    1  A    between atoms: C_1  and  C_2
REMARK    2  A    between atoms: C_2  and  C_4
REMARK    3  A    between atoms: C_8  and  O_9
REMARK    4  A    between atoms: O_9  and  C_10
REMARK    5  A    between atoms: C_10  and  C_11
REMARK    6  A    between atoms: N_13  and  C_14
REMARK    7  A    between atoms: N_13  and  C_15
REMARK    8  A    between atoms: C_15  and  C_16
REMARK    9  A    between atoms: N_18  and  C_19
REMARK   10  A    between atoms: C_19  and  C_20
REMARK                            x       y       z     vdW  Elec       q    Type
REMARK                         _______ _______ _______ _____ _____    ______ ____
ROOT
ATOM      1  C   UNL     1       7.842   7.079  17.734  0.00  0.00    +0.000 C 
ATOM      2  O   UNL     1       7.812   7.245  16.509  0.00  0.00    +0.000 OA
ATOM      3  N   UNL     1       7.440   5.881  18.316  0.00  0.00    +0.000 N 
ATOM      4  C   UNL     1       7.503   5.592  19.743  0.00  0.00    +0.000 C 
ENDROOT
BRANCH   1   5
ATOM      5  C   UNL     1       8.324   8.224  18.638  0.00  0.00    +0.000 C 
BRANCH   5   6
ATOM      6  O   UNL     1       8.380   9.458  17.925  0.00  0.00    +0.000 OA
BRANCH   6  11
ATOM      7  C   UNL     1      10.399  12.539  18.492  0.00  0.00    +0.000 A 
ATOM      8  C   UNL     1      10.551  12.447  19.880  0.00  0.00    +0.000 A 
ATOM      9  C   UNL     1       9.999  11.365  20.567  0.00  0.00    +0.000 A 
ATOM     10  C   UNL     1       9.289  10.381  19.872  0.00  0.00    +0.000 A 
ATOM     11  C   UNL     1       9.123  10.465  18.486  0.00  0.00    +0.000 A 
ATOM     12  C   UNL     1       9.688  11.541  17.801  0.00  0.00    +0.000 A 
BRANCH   7  14
ATOM     13  C   UNL     1      12.098  13.415  16.750  0.00  0.00    +0.000 C 
ATOM     14  C   UNL     1      10.962  13.677  17.704  0.00  0.00    +0.000 C 
ATOM     15  O   UNL     1      10.497  14.807  17.845  0.00  0.00    +0.000 OA
ENDBRANCH   7  14
ENDBRANCH   6  11
ENDBRANCH   5   6
ENDBRANCH   1   5
BRANCH   3  16
ATOM     16  C   UNL     1       6.893   4.822  17.452  0.00  0.00    +0.000 C 
BRANCH  16  17
ATOM     17  C   UNL     1       5.426   5.024  17.025  0.00  0.00    +0.000 C 
ATOM     18  O   UNL     1       5.089   5.543  15.963  0.00  0.00    +0.000 OA
ATOM     19  N   UNL     1       4.501   4.601  17.960  0.00  0.00    +0.000 N 
ATOM     20  H   UNL     1       4.783   3.937  18.674  0.00  0.00    +0.000 HD
BRANCH  19  21
ATOM     21  C   UNL     1       3.084   4.694  17.682  0.00  0.00    +0.000 C 
BRANCH  21  22
ATOM     22  C   UNL     1       2.320   4.081  18.796  0.00  0.00    +0.000 A 
ATOM     23  C   UNL     1       2.030   2.769  19.134  0.00  0.00    +0.000 A 
ATOM     24  C   UNL     1       1.285   2.824  20.336  0.00  0.00    +0.000 A 
ATOM     25  C   UNL     1       1.165   4.156  20.653  0.00  0.00    +0.000 A 
ATOM     26  O   UNL     1       1.783   4.930  19.723  0.00  0.00    +0.000 OA
ENDBRANCH  21  22
ENDBRANCH  19  21
ENDBRANCH  16  17
ENDBRANCH   3  16
TORSDOF 8
ENDMDL
MODEL 6
REMARK VINA RESULT:      -7.2      1.230      1.462
REMARK  Name = 
REMARK  10 active torsions:
REMARK  status: ('A' for Active; 'I' for Inactive)
REMARK    1  A    between atoms: C_1  and  C_2
REMARK    2  A    between atoms: C_2  and  C_4
REMARK    3  A    between atoms: C_8  and  O_9
REMARK    4  A    between atoms: O_9  and  C_10
REMARK    5  A    between atoms: C_10  and  C_11
REMARK    6  A    between atoms: N_13  and  C_14
REMARK    7  A    between atoms: N_13  and  C_15
REMARK    8  A    between atoms: C_15  and  C_16
REMARK    9  A    between atoms: N_18  and  C_19
REMARK   10  A    between atoms: C_19  and  C_20
REMARK                            x       y       z     vdW  Elec       q    Type
REMARK                         _______ _______ _______ _____ _____    ______ ____
ROOT
ATOM      1  C   UNL     1       7.365   7.192  17.743  0.00  0.00    +0.000 C 
ATOM      2  O   UNL     1       6.761   7.461  16.698  0.00  0.00    +0.000 OA
ATOM      3  N   UNL     1       7.120   6.015  18.441  0.00  0.00    +0.000 N 
ATOM      4  C   UNL     1       7.831   5.602  19.645  0.00  0.00    +0.000 C 
ENDROOT
BRANCH   1   5
ATOM      5  C   UNL     1       8.403   8.183  18.292  0.00  0.00    +0.000 C 
BRANCH   5   6
ATOM      6  O   UNL     1       8.249   9.473  17.701  0.00  0.00    +0.000 OA
BRANCH   6  11
ATOM      7  C   UNL     1       9.443  12.859  18.699  0.00  0.00    +0.000 A 
ATOM      8  C   UNL     1       9.985  12.540  19.949  0.00  0.00    +0.000 A 
ATOM      9  C   UNL     1       9.951  11.219  20.401  0.00  0.00    +0.000 A 
ATOM     10  C   UNL     1       9.371  10.222  19.611  0.00  0.00    +0.000 A 
ATOM     11  C   UNL     1       8.819  10.529  18.364  0.00  0.00    +0.000 A 
ATOM     12  C   UNL     1       8.866  11.848  17.911  0.00  0.00    +0.000 A 
BRANCH   7  14
ATOM     13  C   UNL     1       8.130  14.911  17.830  0.00  0.00    +0.000 C 
ATOM     14  C   UNL     1       9.444  14.255  18.166  0.00  0.00    +0.000 C 
ATOM     15  O   UNL     1      10.510  14.847  18.006  0.00  0.00    +0.000 OA
ENDBRANCH   7  14
ENDBRANCH   6  11
ENDBRANCH   5   6
ENDBRANCH   1   5
BRANCH   3  16
ATOM     16  C   UNL     1       6.059   5.113  17.961  0.00  0.00    +0.000 C 
BRANCH  16  17
ATOM     17  C   UNL     1       4.648   5.424  18.497  0.00  0.00    +0.000 C 
ATOM     18  O   UNL     1       4.425   5.838  19.632  0.00  0.00    +0.000 OA
ATOM     19  N   UNL     1       3.631   5.163  17.598  0.00  0.00    +0.000 N 
ATOM     20  H   UNL     1       3.845   5.100  16.609  0.00  0.00    +0.000 HD
BRANCH  19  21
ATOM     21  C   UNL     1       2.256   5.441  17.950  0.00  0.00    +0.000 C 
BRANCH  21  22
ATOM     22  C   UNL     1       1.676   4.266  18.648  0.00  0.00    +0.000 A 
ATOM     23  C   UNL     1       1.294   4.040  19.960  0.00  0.00    +0.000 A 
ATOM     24  C   UNL     1       0.776   2.723  20.001  0.00  0.00    +0.000 A 
ATOM     25  C   UNL     1       0.877   2.230  18.722  0.00  0.00    +0.000 A 
ATOM     26  O   UNL     1       1.428   3.155  17.893  0.00  0.00    +0.000 OA
ENDBRANCH  21  22
ENDBRANCH  19  21
ENDBRANCH  16  17
ENDBRANCH   3  16
TORSDOF 8
ENDMDL
MODEL 7
REMARK VINA RESULT:      -7.2      1.004      1.338
REMARK  Name = 
REMARK  10 active torsions:
REMARK  status: ('A' for Active; 'I' for Inactive)
REMARK    1  A    between atoms: C_1  and  C_2
REMARK    2  A    between atoms: C_2  and  C_4
REMARK    3  A    between atoms: C_8  and  O_9
REMARK    4  A    between atoms: O_9  and  C_10
REMARK    5  A    between atoms: C_10  and  C_11
REMARK    6  A    between atoms: N_13  and  C_14
REMARK    7  A    between atoms: N_13  and  C_15
REMARK    8  A    between atoms: C_15  and  C_16
REMARK    9  A    between atoms: N_18  and  C_19
REMARK   10  A    between atoms: C_19  and  C_20
REMARK                            x       y       z     vdW  Elec       q    Type
REMARK                         _______ _______ _______ _____ _____    ______ ____
ROOT
ATOM      1  C   UNL     1       7.294   7.114  17.968  0.00  0.00    +0.000 C 
ATOM      2  O   UNL     1       8.162   6.612  18.690  0.00  0.00    +0.000 OA
ATOM      3  N   UNL     1       6.254   6.353  17.445  0.00  0.00    +0.000 N 
ATOM      4  C   UNL     1       5.163   6.885  16.637  0.00  0.00    +0.000 C 
ENDROOT
BRANCH   1   5
ATOM      5  C   UNL     1       7.366   8.612  17.630  0.00  0.00    +0.000 C 
BRANCH   5   6
ATOM      6  O   UNL     1       8.711   9.087  17.672  0.00  0.00    +0.000 OA
BRANCH   6  11
ATOM      7  C   UNL     1       9.094  12.640  18.728  0.00  0.00    +0.000 A 
ATOM      8  C   UNL     1       9.379  12.436  20.082  0.00  0.00    +0.000 A 
ATOM      9  C   UNL     1       9.452  11.136  20.586  0.00  0.00    +0.000 A 
ATOM     10  C   UNL     1       9.233  10.043  19.742  0.00  0.00    +0.000 A 
ATOM     11  C   UNL     1       8.939  10.234  18.388  0.00  0.00    +0.000 A 
ATOM     12  C   UNL     1       8.880  11.535  17.886  0.00  0.00    +0.000 A 
BRANCH   7  14
ATOM     13  C   UNL     1       7.662  14.709  18.129  0.00  0.00    +0.000 C 
ATOM     14  C   UNL     1       8.996  14.008  18.134  0.00  0.00    +0.000 C 
ATOM     15  O   UNL     1       9.996  14.541  17.658  0.00  0.00    +0.000 OA
ENDBRANCH   7  14
ENDBRANCH   6  11
ENDBRANCH   5   6
ENDBRANCH   1   5
BRANCH   3  16
ATOM     16  C   UNL     1       6.240   4.902  17.697  0.00  0.00    +0.000 C 
BRANCH  16  17
ATOM     17  C   UNL     1       5.459   4.468  18.953  0.00  0.00    +0.000 C 
ATOM     18  O   UNL     1       5.100   5.243  19.837  0.00  0.00    +0.000 OA
ATOM     19  N   UNL     1       5.219   3.109  19.029  0.00  0.00    +0.000 N 
ATOM     20  H   UNL     1       5.266   2.548  18.185  0.00  0.00    +0.000 HD
BRANCH  19  21
ATOM     21  C   UNL     1       4.465   2.560  20.134  0.00  0.00    +0.000 C 
BRANCH  21  22
ATOM     22  C   UNL     1       3.013   2.691  19.855  0.00  0.00    +0.000 A 
ATOM     23  C   UNL     1       1.987   3.375  20.487  0.00  0.00    +0.000 A 
ATOM     24  C   UNL     1       0.821   3.138  19.720  0.00  0.00    +0.000 A 
ATOM     25  C   UNL     1       1.204   2.327  18.678  0.00  0.00    +0.000 A 
ATOM     26  O   UNL     1       2.531   2.043  18.753  0.00  0.00    +0.000 OA
ENDBRANCH  21  22
ENDBRANCH  19  21
ENDBRANCH  16  17
ENDBRANCH   3  16
TORSDOF 8
ENDMDL
MODEL 8
REMARK VINA RESULT:      -7.2      2.730      8.340
REMARK  Name = 
REMARK  10 active torsions:
REMARK  status: ('A' for Active; 'I' for Inactive)
REMARK    1  A    between atoms: C_1  and  C_2
REMARK    2  A    between atoms: C_2  and  C_4
REMARK    3  A    between atoms: C_8  and  O_9
REMARK    4  A    between atoms: O_9  and  C_10
REMARK    5  A    between atoms: C_10  and  C_11
REMARK    6  A    between atoms: N_13  and  C_14
REMARK    7  A    between atoms: N_13  and  C_15
REMARK    8  A    between atoms: C_15  and  C_16
REMARK    9  A    between atoms: N_18  and  C_19
REMARK   10  A    between atoms: C_19  and  C_20
REMARK                            x       y       z     vdW  Elec       q    Type
REMARK                         _______ _______ _______ _____ _____    ______ ____
ROOT
ATOM      1  C   UNL     1       5.878   4.557  18.640  0.00  0.00    +0.000 C 
ATOM      2  O   UNL     1       5.899   4.948  19.813  0.00  0.00    +0.000 OA
ATOM      3  N   UNL     1       6.839   4.964  17.721  0.00  0.00    +0.000 N 
ATOM      4  C   UNL     1       6.913   4.500  16.341  0.00  0.00    +0.000 C 
ENDROOT
BRANCH   1   5
ATOM      5  C   UNL     1       4.761   3.606  18.182  0.00  0.00    +0.000 C 
BRANCH   5   6
ATOM      6  O   UNL     1       3.629   4.332  17.705  0.00  0.00    +0.000 OA
BRANCH   6  11
ATOM      7  C   UNL     1       1.956   7.160  19.464  0.00  0.00    +0.000 A 
ATOM      8  C   UNL     1       1.520   6.480  20.606  0.00  0.00    +0.000 A 
ATOM      9  C   UNL     1       1.813   5.123  20.757  0.00  0.00    +0.000 A 
ATOM     10  C   UNL     1       2.530   4.446  19.767  0.00  0.00    +0.000 A 
ATOM     11  C   UNL     1       2.965   5.112  18.618  0.00  0.00    +0.000 A 
ATOM     12  C   UNL     1       2.682   6.471  18.477  0.00  0.00    +0.000 A 
BRANCH   7  14
ATOM     13  C   UNL     1       1.832   9.187  17.863  0.00  0.00    +0.000 C 
ATOM     14  C   UNL     1       1.667   8.610  19.244  0.00  0.00    +0.000 C 
ATOM     15  O   UNL     1       1.304   9.310  20.187  0.00  0.00    +0.000 OA
ENDBRANCH   7  14
ENDBRANCH   6  11
ENDBRANCH   5   6
ENDBRANCH   1   5
BRANCH   3  16
ATOM     16  C   UNL     1       7.853   5.945  18.142  0.00  0.00    +0.000 C 
BRANCH  16  17
ATOM     17  C   UNL     1       7.574   7.397  17.703  0.00  0.00    +0.000 C 
ATOM     18  O   UNL     1       6.716   7.709  16.881  0.00  0.00    +0.000 OA
ATOM     19  N   UNL     1       8.403   8.334  18.290  0.00  0.00    +0.000 N 
ATOM     20  H   UNL     1       8.891   8.100  19.148  0.00  0.00    +0.000 HD
BRANCH  19  21
ATOM     21  C   UNL     1       8.235   9.741  18.001  0.00  0.00    +0.000 C 
BRANCH  21  22
ATOM     22  C   UNL     1       9.280  10.520  18.710  0.00  0.00    +0.000 A 
ATOM     23  C   UNL     1      10.383  11.237  18.275  0.00  0.00    +0.000 A 
ATOM     24  C   UNL     1      10.979  11.791  19.432  0.00  0.00    +0.000 A 
ATOM     25  C   UNL     1      10.210  11.379  20.495  0.00  0.00    +0.000 A 
ATOM     26  O   UNL     1       9.180  10.601  20.070  0.00  0.00    +0.000 OA
ENDBRANCH  21  22
ENDBRANCH  19  21
ENDBRANCH  16  17
ENDBRANCH   3  16
TORSDOF 8
ENDMDL
MODEL 9
REMARK VINA RESULT:      -7.0      5.506      7.392
REMARK  Name = 
REMARK  10 active torsions:
REMARK  status: ('A' for Active; 'I' for Inactive)
REMARK    1  A    between atoms: C_1  and  C_2
REMARK    2  A    between atoms: C_2  and  C_4
REMARK    3  A    between atoms: C_8  and  O_9
REMARK    4  A    between atoms: O_9  and  C_10
REMARK    5  A    between atoms: C_10  and  C_11
REMARK    6  A    between atoms: N_13  and  C_14
REMARK    7  A    between atoms: N_13  and  C_15
REMARK    8  A    between atoms: C_15  and  C_16
REMARK    9  A    between atoms: N_18  and  C_19
REMARK   10  A    between atoms: C_19  and  C_20
REMARK                            x       y       z     vdW  Elec       q    Type
REMARK                         _______ _______ _______ _____ _____    ______ ____
ROOT
ATOM      1  C   UNL     1       2.475   6.501  19.541  0.00  0.00    +0.000 C 
ATOM      2  O   UNL     1       2.833   6.964  18.452  0.00  0.00    +0.000 OA
ATOM      3  N   UNL     1       2.554   5.140  19.814  0.00  0.00    +0.000 N 
ATOM      4  C   UNL     1       2.208   4.530  21.092  0.00  0.00    +0.000 C 
ENDROOT
BRANCH   1   5
ATOM      5  C   UNL     1       1.921   7.448  20.617  0.00  0.00    +0.000 C 
BRANCH   5   6
ATOM      6  O   UNL     1       1.281   8.580  20.030  0.00  0.00    +0.000 OA
BRANCH   6  11
ATOM      7  C   UNL     1      -0.001  11.661  21.689  0.00  0.00    +0.000 A 
ATOM      8  C   UNL     1      -0.697  11.066  22.746  0.00  0.00    +0.000 A 
ATOM      9  C   UNL     1      -0.698   9.676  22.879  0.00  0.00    +0.000 A 
ATOM     10  C   UNL     1      -0.014   8.883  21.954  0.00  0.00    +0.000 A 
ATOM     11  C   UNL     1       0.679   9.464  20.888  0.00  0.00    +0.000 A 
ATOM     12  C   UNL     1       0.689  10.854  20.767  0.00  0.00    +0.000 A 
BRANCH   7  14
ATOM     13  C   UNL     1      -1.204  13.839  20.982  0.00  0.00    +0.000 C 
ATOM     14  C   UNL     1       0.030  13.142  21.492  0.00  0.00    +0.000 C 
ATOM     15  O   UNL     1       1.057  13.770  21.743  0.00  0.00    +0.000 OA
ENDBRANCH   7  14
ENDBRANCH   6  11
ENDBRANCH   5   6
ENDBRANCH   1   5
BRANCH   3  16
ATOM     16  C   UNL     1       3.000   4.227  18.747  0.00  0.00    +0.000 C 
BRANCH  16  17
ATOM     17  C   UNL     1       4.527   4.151  18.553  0.00  0.00    +0.000 C 
ATOM     18  O   UNL     1       5.284   3.558  19.318  0.00  0.00    +0.000 OA
ATOM     19  N   UNL     1       4.992   4.844  17.451  0.00  0.00    +0.000 N 
ATOM     20  H   UNL     1       4.351   5.075  16.701  0.00  0.00    +0.000 HD
BRANCH  19  21
ATOM     21  C   UNL     1       6.401   4.831  17.122  0.00  0.00    +0.000 C 
BRANCH  21  22
ATOM     22  C   UNL     1       6.566   4.632  15.660  0.00  0.00    +0.000 A 
ATOM     23  C   UNL     1       5.876   3.877  14.726  0.00  0.00    +0.000 A 
ATOM     24  C   UNL     1       6.493   4.130  13.478  0.00  0.00    +0.000 A 
ATOM     25  C   UNL     1       7.515   5.015  13.726  0.00  0.00    +0.000 A 
ATOM     26  O   UNL     1       7.574   5.323  15.048  0.00  0.00    +0.000 OA
ENDBRANCH  21  22
ENDBRANCH  19  21
ENDBRANCH  16  17
ENDBRANCH   3  16
TORSDOF 8
ENDMDL
