MODEL 1
REMARK VINA RESULT:      -6.7      0.000      0.000
REMARK  Name = 
REMARK  7 active torsions:
REMARK  status: ('A' for Active; 'I' for Inactive)
REMARK    1  A    between atoms: C_6  and  C_7
REMARK    2  A    between atoms: C_7  and  N_8
REMARK    3  A    between atoms: N_8  and  C_9
REMARK    4  A    between atoms: C_9  and  C_10
REMARK    5  A    between atoms: C_10  and  N_11
REMARK    6  A    between atoms: N_11  and  C_12
REMARK    7  A    between atoms: C_12  and  C_13
REMARK                            x       y       z     vdW  Elec       q    Type
REMARK                         _______ _______ _______ _____ _____    ______ ____
ROOT
ATOM      1  C   UNL     1       3.122   1.507  18.262  0.00  0.00    +0.000 C 
ENDROOT
BRANCH   1   2
ATOM      2  N   UNL     1       2.333   2.515  17.550  0.00  0.00    +0.000 NA
ATOM      3  H   UNL     1       2.938   3.287  17.271  0.00  0.00    +0.000 HD
BRANCH   2   4
ATOM      4  C   UNL     1       1.263   3.042  18.395  0.00  0.00    +0.000 C 
BRANCH   4  10
ATOM      5 CL   UNL     1       3.245   7.794  17.472  0.00  0.00    +0.000 Cl
ATOM      6  C   UNL     1       2.529   6.637  18.528  0.00  0.00    +0.000 A 
ATOM      7  C   UNL     1       2.279   6.978  19.856  0.00  0.00    +0.000 A 
ATOM      8  C   UNL     1       1.702   6.042  20.713  0.00  0.00    +0.000 A 
ATOM      9  C   UNL     1       1.377   4.772  20.237  0.00  0.00    +0.000 A 
ATOM     10  C   UNL     1       1.621   4.421  18.898  0.00  0.00    +0.000 A 
ATOM     11  C   UNL     1       2.202   5.370  18.045  0.00  0.00    +0.000 A 
ENDBRANCH   4  10
ENDBRANCH   2   4
ENDBRANCH   1   2
BRANCH   1  12
ATOM     12  C   UNL     1       3.714   2.105  19.552  0.00  0.00    +0.000 C 
BRANCH  12  13
ATOM     13  N   UNL     1       5.068   2.602  19.307  0.00  0.00    +0.000 NA
ATOM     14  H   UNL     1       5.334   2.410  18.341  0.00  0.00    +0.000 HD
BRANCH  13  15
ATOM     15  C   UNL     1       5.154   4.043  19.535  0.00  0.00    +0.000 C 
BRANCH  15  16
ATOM     16  C   UNL     1       5.716   4.737  18.316  0.00  0.00    +0.000 A 
ATOM     17  C   UNL     1       5.530   4.205  17.032  0.00  0.00    +0.000 A 
ATOM     18  C   UNL     1       6.051   4.858  15.913  0.00  0.00    +0.000 A 
ATOM     19  C   UNL     1       6.767   6.046  16.065  0.00  0.00    +0.000 A 
ATOM     20  C   UNL     1       6.959   6.578  17.337  0.00  0.00    +0.000 A 
ATOM     21 CL   UNL     1       7.850   8.038  17.529  0.00  0.00    +0.000 Cl
ATOM     22  C   UNL     1       6.436   5.935  18.457  0.00  0.00    +0.000 A 
ENDBRANCH  15  16
ENDBRANCH  13  15
ENDBRANCH  12  13
ENDBRANCH   1  12
TORSDOF 7
ENDMDL
MODEL 2
REMARK VINA RESULT:      -6.4      3.372      6.585
REMARK  Name = 
REMARK  7 active torsions:
REMARK  status: ('A' for Active; 'I' for Inactive)
REMARK    1  A    between atoms: C_6  and  C_7
REMARK    2  A    between atoms: C_7  and  N_8
REMARK    3  A    between atoms: N_8  and  C_9
REMARK    4  A    between atoms: C_9  and  C_10
REMARK    5  A    between atoms: C_10  and  N_11
REMARK    6  A    between atoms: N_11  and  C_12
REMARK    7  A    between atoms: C_12  and  C_13
REMARK                            x       y       z     vdW  Elec       q    Type
REMARK                         _______ _______ _______ _____ _____    ______ ____
ROOT
ATOM      1  C   UNL     1       7.599   4.647  18.186  0.00  0.00    +0.000 C 
ENDROOT
BRANCH   1   2
ATOM      2  N   UNL     1       7.796   4.601  16.736  0.00  0.00    +0.000 NA
ATOM      3  H   UNL     1       8.415   5.360  16.451  0.00  0.00    +0.000 HD
BRANCH   2   4
ATOM      4  C   UNL     1       6.526   4.746  16.026  0.00  0.00    +0.000 C 
BRANCH   4  10
ATOM      5 CL   UNL     1       5.347   2.269  11.572  0.00  0.00    +0.000 Cl
ATOM      6  C   UNL     1       6.226   3.466  12.446  0.00  0.00    +0.000 A 
ATOM      7  C   UNL     1       7.133   4.282  11.775  0.00  0.00    +0.000 A 
ATOM      8  C   UNL     1       7.847   5.249  12.482  0.00  0.00    +0.000 A 
ATOM      9  C   UNL     1       7.649   5.394  13.854  0.00  0.00    +0.000 A 
ATOM     10  C   UNL     1       6.732   4.578  14.538  0.00  0.00    +0.000 A 
ATOM     11  C   UNL     1       6.019   3.609  13.818  0.00  0.00    +0.000 A 
ENDBRANCH   4  10
ENDBRANCH   2   4
ENDBRANCH   1   2
BRANCH   1  12
ATOM     12  C   UNL     1       6.714   5.849  18.568  0.00  0.00    +0.000 C 
BRANCH  12  13
ATOM     13  N   UNL     1       5.689   5.440  19.528  0.00  0.00    +0.000 NA
ATOM     14  H   UNL     1       5.879   5.866  20.436  0.00  0.00    +0.000 HD
BRANCH  13  15
ATOM     15  C   UNL     1       4.357   5.853  19.091  0.00  0.00    +0.000 C 
BRANCH  15  16
ATOM     16  C   UNL     1       3.428   4.662  19.033  0.00  0.00    +0.000 A 
ATOM     17  C   UNL     1       3.183   3.995  17.825  0.00  0.00    +0.000 A 
ATOM     18  C   UNL     1       2.325   2.893  17.785  0.00  0.00    +0.000 A 
ATOM     19  C   UNL     1       1.701   2.449  18.952  0.00  0.00    +0.000 A 
ATOM     20  C   UNL     1       1.939   3.108  20.156  0.00  0.00    +0.000 A 
ATOM     21 CL   UNL     1       1.162   2.569  21.593  0.00  0.00    +0.000 Cl
ATOM     22  C   UNL     1       2.798   4.204  20.202  0.00  0.00    +0.000 A 
ENDBRANCH  15  16
ENDBRANCH  13  15
ENDBRANCH  12  13
ENDBRANCH   1  12
TORSDOF 7
ENDMDL
MODEL 3
REMARK VINA RESULT:      -6.3      0.852      4.624
REMARK  Name = 
REMARK  7 active torsions:
REMARK  status: ('A' for Active; 'I' for Inactive)
REMARK    1  A    between atoms: C_6  and  C_7
REMARK    2  A    between atoms: C_7  and  N_8
REMARK    3  A    between atoms: N_8  and  C_9
REMARK    4  A    between atoms: C_9  and  C_10
REMARK    5  A    between atoms: C_10  and  N_11
REMARK    6  A    between atoms: N_11  and  C_12
REMARK    7  A    between atoms: C_12  and  C_13
REMARK                            x       y       z     vdW  Elec       q    Type
REMARK                         _______ _______ _______ _____ _____    ______ ____
ROOT
ATOM      1  C   UNL     1       4.337   1.997  19.835  0.00  0.00    +0.000 C 
ENDROOT
BRANCH   1   2
ATOM      2  N   UNL     1       5.128   3.154  19.411  0.00  0.00    +0.000 NA
ATOM      3  H   UNL     1       4.704   4.008  19.771  0.00  0.00    +0.000 HD
BRANCH   2   4
ATOM      4  C   UNL     1       5.190   3.244  17.952  0.00  0.00    +0.000 C 
BRANCH   4  10
ATOM      5 CL   UNL     1       8.277   7.385  18.781  0.00  0.00    +0.000 Cl
ATOM      6  C   UNL     1       7.075   6.558  17.864  0.00  0.00    +0.000 A 
ATOM      7  C   UNL     1       6.542   7.158  16.725  0.00  0.00    +0.000 A 
ATOM      8  C   UNL     1       5.568   6.491  15.983  0.00  0.00    +0.000 A 
ATOM      9  C   UNL     1       5.133   5.228  16.385  0.00  0.00    +0.000 A 
ATOM     10  C   UNL     1       5.669   4.613  17.530  0.00  0.00    +0.000 A 
ATOM     11  C   UNL     1       6.648   5.293  18.268  0.00  0.00    +0.000 A 
ENDBRANCH   4  10
ENDBRANCH   2   4
ENDBRANCH   1   2
BRANCH   1  12
ATOM     12  C   UNL     1       3.345   1.592  18.729  0.00  0.00    +0.000 C 
BRANCH  12  13
ATOM     13  N   UNL     1       1.978   1.941  19.119  0.00  0.00    +0.000 NA
ATOM     14  H   UNL     1       1.972   2.276  20.082  0.00  0.00    +0.000 HD
BRANCH  13  15
ATOM     15  C   UNL     1       1.432   2.989  18.259  0.00  0.00    +0.000 C 
BRANCH  15  16
ATOM     16  C   UNL     1       1.716   4.352  18.844  0.00  0.00    +0.000 A 
ATOM     17  C   UNL     1       1.611   4.583  20.223  0.00  0.00    +0.000 A 
ATOM     18  C   UNL     1       1.880   5.847  20.752  0.00  0.00    +0.000 A 
ATOM     19  C   UNL     1       2.251   6.895  19.908  0.00  0.00    +0.000 A 
ATOM     20  C   UNL     1       2.354   6.674  18.537  0.00  0.00    +0.000 A 
ATOM     21 CL   UNL     1       2.801   7.967  17.494  0.00  0.00    +0.000 Cl
ATOM     22  C   UNL     1       2.093   5.413  18.004  0.00  0.00    +0.000 A 
ENDBRANCH  15  16
ENDBRANCH  13  15
ENDBRANCH  12  13
ENDBRANCH   1  12
TORSDOF 7
ENDMDL
MODEL 4
REMARK VINA RESULT:      -6.2      5.299      6.995
REMARK  Name = 
REMARK  7 active torsions:
REMARK  status: ('A' for Active; 'I' for Inactive)
REMARK    1  A    between atoms: C_6  and  C_7
REMARK    2  A    between atoms: C_7  and  N_8
REMARK    3  A    between atoms: N_8  and  C_9
REMARK    4  A    between atoms: C_9  and  C_10
REMARK    5  A    between atoms: C_10  and  N_11
REMARK    6  A    between atoms: N_11  and  C_12
REMARK    7  A    between atoms: C_12  and  C_13
REMARK                            x       y       z     vdW  Elec       q    Type
REMARK                         _______ _______ _______ _____ _____    ______ ____
ROOT
ATOM      1  C   UNL     1       1.302   9.535  18.787  0.00  0.00    +0.000 C 
ENDROOT
BRANCH   1   2
ATOM      2  N   UNL     1       0.336  10.498  18.252  0.00  0.00    +0.000 NA
ATOM      3  H   UNL     1       0.708  11.442  18.346  0.00  0.00    +0.000 HD
BRANCH   2   4
ATOM      4  C   UNL     1      -0.935  10.425  18.972  0.00  0.00    +0.000 C 
BRANCH   4  10
ATOM      5 CL   UNL     1      -3.020   9.988  14.194  0.00  0.00    +0.000 Cl
ATOM      6  C   UNL     1      -3.104  10.503  15.836  0.00  0.00    +0.000 A 
ATOM      7  C   UNL     1      -4.245  11.157  16.296  0.00  0.00    +0.000 A 
ATOM      8  C   UNL     1      -4.313  11.577  17.623  0.00  0.00    +0.000 A 
ATOM      9  C   UNL     1      -3.241  11.340  18.483  0.00  0.00    +0.000 A 
ATOM     10  C   UNL     1      -2.088  10.677  18.029  0.00  0.00    +0.000 A 
ATOM     11  C   UNL     1      -2.030  10.258  16.692  0.00  0.00    +0.000 A 
ENDBRANCH   4  10
ENDBRANCH   2   4
ENDBRANCH   1   2
BRANCH   1  12
ATOM     12  C   UNL     1       1.933   8.719  17.644  0.00  0.00    +0.000 C 
BRANCH  12  13
ATOM     13  N   UNL     1       2.884   7.744  18.181  0.00  0.00    +0.000 NA
ATOM     14  H   UNL     1       3.786   8.195  18.336  0.00  0.00    +0.000 HD
BRANCH  13  15
ATOM     15  C   UNL     1       2.416   7.190  19.450  0.00  0.00    +0.000 C 
BRANCH  15  16
ATOM     16  C   UNL     1       2.122   5.715  19.304  0.00  0.00    +0.000 A 
ATOM     17  C   UNL     1       2.103   5.104  18.043  0.00  0.00    +0.000 A 
ATOM     18  C   UNL     1       1.832   3.738  17.922  0.00  0.00    +0.000 A 
ATOM     19  C   UNL     1       1.574   2.972  19.060  0.00  0.00    +0.000 A 
ATOM     20  C   UNL     1       1.589   3.574  20.315  0.00  0.00    +0.000 A 
ATOM     21 CL   UNL     1       1.261   2.633  21.718  0.00  0.00    +0.000 Cl
ATOM     22  C   UNL     1       1.864   4.934  20.443  0.00  0.00    +0.000 A 
ENDBRANCH  15  16
ENDBRANCH  13  15
ENDBRANCH  12  13
ENDBRANCH   1  12
TORSDOF 7
ENDMDL
MODEL 5
REMARK VINA RESULT:      -6.2      3.300      4.619
REMARK  Name = 
REMARK  7 active torsions:
REMARK  status: ('A' for Active; 'I' for Inactive)
REMARK    1  A    between atoms: C_6  and  C_7
REMARK    2  A    between atoms: C_7  and  N_8
REMARK    3  A    between atoms: N_8  and  C_9
REMARK    4  A    between atoms: C_9  and  C_10
REMARK    5  A    between atoms: C_10  and  N_11
REMARK    6  A    between atoms: N_11  and  C_12
REMARK    7  A    between atoms: C_12  and  C_13
REMARK                            x       y       z     vdW  Elec       q    Type
REMARK                         _______ _______ _______ _____ _____    ______ ____
ROOT
ATOM      1  C   UNL     1       5.180   6.250  17.786  0.00  0.00    +0.000 C 
ENDROOT
BRANCH   1   2
ATOM      2  N   UNL     1       4.154   6.338  18.827  0.00  0.00    +0.000 NA
ATOM      3  H   UNL     1       4.360   5.666  19.567  0.00  0.00    +0.000 HD
BRANCH   2   4
ATOM      4  C   UNL     1       2.827   6.043  18.287  0.00  0.00    +0.000 C 
BRANCH   4  10
ATOM      5 CL   UNL     1       1.371   2.535  21.884  0.00  0.00    +0.000 Cl
ATOM      6  C   UNL     1       1.742   2.963  20.257  0.00  0.00    +0.000 A 
ATOM      7  C   UNL     1       1.664   1.998  19.255  0.00  0.00    +0.000 A 
ATOM      8  C   UNL     1       1.966   2.342  17.938  0.00  0.00    +0.000 A 
ATOM      9  C   UNL     1       2.343   3.650  17.631  0.00  0.00    +0.000 A 
ATOM     10  C   UNL     1       2.419   4.631  18.634  0.00  0.00    +0.000 A 
ATOM     11  C   UNL     1       2.113   4.274  19.955  0.00  0.00    +0.000 A 
ENDBRANCH   4  10
ENDBRANCH   2   4
ENDBRANCH   1   2
BRANCH   1  12
ATOM     12  C   UNL     1       6.175   5.119  18.109  0.00  0.00    +0.000 C 
BRANCH  12  13
ATOM     13  N   UNL     1       6.192   4.134  17.027  0.00  0.00    +0.000 NA
ATOM     14  H   UNL     1       5.921   3.220  17.391  0.00  0.00    +0.000 HD
BRANCH  13  15
ATOM     15  C   UNL     1       5.266   4.503  15.958  0.00  0.00    +0.000 C 
BRANCH  15  16
ATOM     16  C   UNL     1       5.935   4.362  14.610  0.00  0.00    +0.000 A 
ATOM     17  C   UNL     1       7.063   5.126  14.280  0.00  0.00    +0.000 A 
ATOM     18  C   UNL     1       7.674   4.984  13.032  0.00  0.00    +0.000 A 
ATOM     19  C   UNL     1       7.161   4.082  12.099  0.00  0.00    +0.000 A 
ATOM     20  C   UNL     1       6.039   3.322  12.419  0.00  0.00    +0.000 A 
ATOM     21 CL   UNL     1       5.398   2.216  11.267  0.00  0.00    +0.000 Cl
ATOM     22  C   UNL     1       5.428   3.455  13.665  0.00  0.00    +0.000 A 
ENDBRANCH  15  16
ENDBRANCH  13  15
ENDBRANCH  12  13
ENDBRANCH   1  12
TORSDOF 7
ENDMDL
MODEL 6
REMARK VINA RESULT:      -6.1      4.324      7.382
REMARK  Name = 
REMARK  7 active torsions:
REMARK  status: ('A' for Active; 'I' for Inactive)
REMARK    1  A    between atoms: C_6  and  C_7
REMARK    2  A    between atoms: C_7  and  N_8
REMARK    3  A    between atoms: N_8  and  C_9
REMARK    4  A    between atoms: C_9  and  C_10
REMARK    5  A    between atoms: C_10  and  N_11
REMARK    6  A    between atoms: N_11  and  C_12
REMARK    7  A    between atoms: C_12  and  C_13
REMARK                            x       y       z     vdW  Elec       q    Type
REMARK                         _______ _______ _______ _____ _____    ______ ____
ROOT
ATOM      1  C   UNL     1       7.943   6.876  18.347  0.00  0.00    +0.000 C 
ENDROOT
BRANCH   1   2
ATOM      2  N   UNL     1       8.650   8.015  18.937  0.00  0.00    +0.000 NA
ATOM      3  H   UNL     1       8.353   8.138  19.904  0.00  0.00    +0.000 HD
BRANCH   2   4
ATOM      4  C   UNL     1       8.369   9.248  18.202  0.00  0.00    +0.000 C 
BRANCH   4  10
ATOM      5 CL   UNL     1      11.538  13.301  17.256  0.00  0.00    +0.000 Cl
ATOM      6  C   UNL     1      10.697  12.265  18.346  0.00  0.00    +0.000 A 
ATOM      7  C   UNL     1      10.810  12.472  19.719  0.00  0.00    +0.000 A 
ATOM      8  C   UNL     1      10.132  11.633  20.603  0.00  0.00    +0.000 A 
ATOM      9  C   UNL     1       9.347  10.592  20.108  0.00  0.00    +0.000 A 
ATOM     10  C   UNL     1       9.224  10.379  18.725  0.00  0.00    +0.000 A 
ATOM     11  C   UNL     1       9.910  11.229  17.845  0.00  0.00    +0.000 A 
ENDBRANCH   4  10
ENDBRANCH   2   4
ENDBRANCH   1   2
BRANCH   1  12
ATOM     12  C   UNL     1       6.958   7.360  17.266  0.00  0.00    +0.000 C 
BRANCH  12  13
ATOM     13  N   UNL     1       6.467   6.225  16.482  0.00  0.00    +0.000 NA
ATOM     14  H   UNL     1       7.132   6.010  15.739  0.00  0.00    +0.000 HD
BRANCH  13  15
ATOM     15  C   UNL     1       6.299   5.037  17.316  0.00  0.00    +0.000 C 
BRANCH  15  16
ATOM     16  C   UNL     1       4.836   4.804  17.612  0.00  0.00    +0.000 A 
ATOM     17  C   UNL     1       4.100   3.842  16.905  0.00  0.00    +0.000 A 
ATOM     18  C   UNL     1       2.749   3.634  17.191  0.00  0.00    +0.000 A 
ATOM     19  C   UNL     1       2.118   4.386  18.183  0.00  0.00    +0.000 A 
ATOM     20  C   UNL     1       2.843   5.345  18.887  0.00  0.00    +0.000 A 
ATOM     21 CL   UNL     1       2.065   6.282  20.103  0.00  0.00    +0.000 Cl
ATOM     22  C   UNL     1       4.192   5.553  18.610  0.00  0.00    +0.000 A 
ENDBRANCH  15  16
ENDBRANCH  13  15
ENDBRANCH  12  13
ENDBRANCH   1  12
TORSDOF 7
ENDMDL
MODEL 7
REMARK VINA RESULT:      -6.0      1.652      4.885
REMARK  Name = 
REMARK  7 active torsions:
REMARK  status: ('A' for Active; 'I' for Inactive)
REMARK    1  A    between atoms: C_6  and  C_7
REMARK    2  A    between atoms: C_7  and  N_8
REMARK    3  A    between atoms: N_8  and  C_9
REMARK    4  A    between atoms: C_9  and  C_10
REMARK    5  A    between atoms: C_10  and  N_11
REMARK    6  A    between atoms: N_11  and  C_12
REMARK    7  A    between atoms: C_12  and  C_13
REMARK                            x       y       z     vdW  Elec       q    Type
REMARK                         _______ _______ _______ _____ _____    ______ ____
ROOT
ATOM      1  C   UNL     1       3.606   2.428  20.170  0.00  0.00    +0.000 C 
ENDROOT
BRANCH   1   2
ATOM      2  N   UNL     1       4.712   2.666  19.241  0.00  0.00    +0.000 NA
ATOM      3  H   UNL     1       5.244   3.481  19.545  0.00  0.00    +0.000 HD
BRANCH   2   4
ATOM      4  C   UNL     1       4.219   2.911  17.886  0.00  0.00    +0.000 C 
BRANCH   4  10
ATOM      5 CL   UNL     1       7.807   6.706  18.187  0.00  0.00    +0.000 Cl
ATOM      6  C   UNL     1       6.724   5.722  17.278  0.00  0.00    +0.000 A 
ATOM      7  C   UNL     1       6.629   5.894  15.899  0.00  0.00    +0.000 A 
ATOM      8  C   UNL     1       5.751   5.100  15.162  0.00  0.00    +0.000 A 
ATOM      9  C   UNL     1       4.974   4.139  15.809  0.00  0.00    +0.000 A 
ATOM     10  C   UNL     1       5.066   3.956  17.199  0.00  0.00    +0.000 A 
ATOM     11  C   UNL     1       5.952   4.760  17.930  0.00  0.00    +0.000 A 
ENDBRANCH   4  10
ENDBRANCH   2   4
ENDBRANCH   1   2
BRANCH   1  12
ATOM     12  C   UNL     1       2.256   2.533  19.435  0.00  0.00    +0.000 C 
BRANCH  12  13
ATOM     13  N   UNL     1       1.442   3.600  20.018  0.00  0.00    +0.000 NA
ATOM     14  H   UNL     1       0.777   3.201  20.680  0.00  0.00    +0.000 HD
BRANCH  13  15
ATOM     15  C   UNL     1       2.271   4.576  20.722  0.00  0.00    +0.000 C 
BRANCH  15  16
ATOM     16  C   UNL     1       2.123   5.943  20.095  0.00  0.00    +0.000 A 
ATOM     17  C   UNL     1       2.636   6.211  18.819  0.00  0.00    +0.000 A 
ATOM     18  C   UNL     1       2.490   7.478  18.249  0.00  0.00    +0.000 A 
ATOM     19  C   UNL     1       1.833   8.491  18.950  0.00  0.00    +0.000 A 
ATOM     20  C   UNL     1       1.324   8.232  20.220  0.00  0.00    +0.000 A 
ATOM     21 CL   UNL     1       0.523   9.481  21.092  0.00  0.00    +0.000 Cl
ATOM     22  C   UNL     1       1.462   6.968  20.791  0.00  0.00    +0.000 A 
ENDBRANCH  15  16
ENDBRANCH  13  15
ENDBRANCH  12  13
ENDBRANCH   1  12
TORSDOF 7
ENDMDL
MODEL 8
REMARK VINA RESULT:      -6.0      3.402      4.685
REMARK  Name = 
REMARK  7 active torsions:
REMARK  status: ('A' for Active; 'I' for Inactive)
REMARK    1  A    between atoms: C_6  and  C_7
REMARK    2  A    between atoms: C_7  and  N_8
REMARK    3  A    between atoms: N_8  and  C_9
REMARK    4  A    between atoms: C_9  and  C_10
REMARK    5  A    between atoms: C_10  and  N_11
REMARK    6  A    between atoms: N_11  and  C_12
REMARK    7  A    between atoms: C_12  and  C_13
REMARK                            x       y       z     vdW  Elec       q    Type
REMARK                         _______ _______ _______ _____ _____    ______ ____
ROOT
ATOM      1  C   UNL     1       5.272   6.954  16.936  0.00  0.00    +0.000 C 
ENDROOT
BRANCH   1   2
ATOM      2  N   UNL     1       4.512   5.990  17.735  0.00  0.00    +0.000 NA
ATOM      3  H   UNL     1       4.497   5.088  17.259  0.00  0.00    +0.000 HD
BRANCH   2   4
ATOM      4  C   UNL     1       3.133   6.436  17.929  0.00  0.00    +0.000 C 
BRANCH   4  10
ATOM      5 CL   UNL     1       0.479   1.973  18.559  0.00  0.00    +0.000 Cl
ATOM      6  C   UNL     1       1.158   3.426  19.187  0.00  0.00    +0.000 A 
ATOM      7  C   UNL     1       1.021   3.722  20.541  0.00  0.00    +0.000 A 
ATOM      8  C   UNL     1       1.567   4.899  21.051  0.00  0.00    +0.000 A 
ATOM      9  C   UNL     1       2.247   5.773  20.203  0.00  0.00    +0.000 A 
ATOM     10  C   UNL     1       2.393   5.481  18.836  0.00  0.00    +0.000 A 
ATOM     11  C   UNL     1       1.840   4.294  18.335  0.00  0.00    +0.000 A 
ENDBRANCH   4  10
ENDBRANCH   2   4
ENDBRANCH   1   2
BRANCH   1  12
ATOM     12  C   UNL     1       6.771   6.868  17.278  0.00  0.00    +0.000 C 
BRANCH  12  13
ATOM     13  N   UNL     1       7.504   6.222  16.188  0.00  0.00    +0.000 NA
ATOM     14  H   UNL     1       8.473   6.070  16.470  0.00  0.00    +0.000 HD
BRANCH  13  15
ATOM     15  C   UNL     1       6.912   4.931  15.843  0.00  0.00    +0.000 C 
BRANCH  15  16
ATOM     16  C   UNL     1       6.973   4.707  14.349  0.00  0.00    +0.000 A 
ATOM     17  C   UNL     1       7.830   5.465  13.539  0.00  0.00    +0.000 A 
ATOM     18  C   UNL     1       7.878   5.246  12.161  0.00  0.00    +0.000 A 
ATOM     19  C   UNL     1       7.068   4.270  11.577  0.00  0.00    +0.000 A 
ATOM     20  C   UNL     1       6.212   3.516  12.376  0.00  0.00    +0.000 A 
ATOM     21 CL   UNL     1       5.205   2.320  11.657  0.00  0.00    +0.000 Cl
ATOM     22  C   UNL     1       6.164   3.726  13.752  0.00  0.00    +0.000 A 
ENDBRANCH  15  16
ENDBRANCH  13  15
ENDBRANCH  12  13
ENDBRANCH   1  12
TORSDOF 7
ENDMDL
MODEL 9
REMARK VINA RESULT:      -5.9      2.205      5.507
REMARK  Name = 
REMARK  7 active torsions:
REMARK  status: ('A' for Active; 'I' for Inactive)
REMARK    1  A    between atoms: C_6  and  C_7
REMARK    2  A    between atoms: C_7  and  N_8
REMARK    3  A    between atoms: N_8  and  C_9
REMARK    4  A    between atoms: C_9  and  C_10
REMARK    5  A    between atoms: C_10  and  N_11
REMARK    6  A    between atoms: N_11  and  C_12
REMARK    7  A    between atoms: C_12  and  C_13
REMARK                            x       y       z     vdW  Elec       q    Type
REMARK                         _______ _______ _______ _____ _____    ______ ____
ROOT
ATOM      1  C   UNL     1       3.591   3.077  20.307  0.00  0.00    +0.000 C 
ENDROOT
BRANCH   1   2
ATOM      2  N   UNL     1       4.725   2.961  19.388  0.00  0.00    +0.000 NA
ATOM      3  H   UNL     1       5.404   3.695  19.588  0.00  0.00    +0.000 HD
BRANCH   2   4
ATOM      4  C   UNL     1       4.292   3.095  17.997  0.00  0.00    +0.000 C 
BRANCH   4  10
ATOM      5 CL   UNL     1       7.782   6.991  18.014  0.00  0.00    +0.000 Cl
ATOM      6  C   UNL     1       6.855   5.800  17.185  0.00  0.00    +0.000 A 
ATOM      7  C   UNL     1       6.974   5.672  15.803  0.00  0.00    +0.000 A 
ATOM      8  C   UNL     1       6.222   4.709  15.129  0.00  0.00    +0.000 A 
ATOM      9  C   UNL     1       5.356   3.881  15.843  0.00  0.00    +0.000 A 
ATOM     10  C   UNL     1       5.233   4.000  17.237  0.00  0.00    +0.000 A 
ATOM     11  C   UNL     1       5.994   4.971  17.904  0.00  0.00    +0.000 A 
ENDBRANCH   4  10
ENDBRANCH   2   4
ENDBRANCH   1   2
BRANCH   1  12
ATOM     12  C   UNL     1       2.575   4.106  19.777  0.00  0.00    +0.000 C 
BRANCH  12  13
ATOM     13  N   UNL     1       2.924   5.450  20.240  0.00  0.00    +0.000 NA
ATOM     14  H   UNL     1       3.818   5.422  20.731  0.00  0.00    +0.000 HD
BRANCH  13  15
ATOM     15  C   UNL     1       3.038   6.384  19.122  0.00  0.00    +0.000 C 
BRANCH  15  16
ATOM     16  C   UNL     1       2.187   7.608  19.369  0.00  0.00    +0.000 A 
ATOM     17  C   UNL     1       1.978   8.558  18.360  0.00  0.00    +0.000 A 
ATOM     18  C   UNL     1       1.187   9.684  18.601  0.00  0.00    +0.000 A 
ATOM     19  C   UNL     1       0.600   9.874  19.853  0.00  0.00    +0.000 A 
ATOM     20  C   UNL     1       0.807   8.935  20.861  0.00  0.00    +0.000 A 
ATOM     21 CL   UNL     1       0.094   9.172  22.409  0.00  0.00    +0.000 Cl
ATOM     22  C   UNL     1       1.590   7.807  20.625  0.00  0.00    +0.000 A 
ENDBRANCH  15  16
ENDBRANCH  13  15
ENDBRANCH  12  13
ENDBRANCH   1  12
TORSDOF 7
ENDMDL
