MODEL 1
REMARK VINA RESULT:      -7.3      0.000      0.000
REMARK  Name = 
REMARK  12 active torsions:
REMARK  status: ('A' for Active; 'I' for Inactive)
REMARK    1  A    between atoms: N_1  and  C_2
REMARK    2  A    between atoms: C_2  and  C_3
REMARK    3  A    between atoms: C_2  and  C_21
REMARK    4  A    between atoms: C_3  and  C_4
REMARK    5  A    between atoms: C_4  and  C_5
REMARK    6  A    between atoms: C_5  and  C_6
REMARK    7  A    between atoms: C_6  and  N_7
REMARK    8  A    between atoms: C_8  and  C_10
REMARK    9  A    between atoms: C_10  and  O_11
REMARK   10  A    between atoms: O_11  and  C_12
REMARK   11  A    between atoms: C_15  and  N_16
REMARK   12  A    between atoms: C_21  and  O_23
REMARK                            x       y       z     vdW  Elec       q    Type
REMARK                         _______ _______ _______ _____ _____    ______ ____
ROOT
ATOM      1  N   UNK     1       6.468   4.039  18.554  0.00  0.00    +0.000 N 
ATOM      2  C   UNK     1       7.415   4.620  17.750  0.00  0.00    +0.000 C 
ATOM      3  O   UNK     1       8.553   4.152  17.722  0.00  0.00    +0.000 OA
ATOM      4  H   UNK     1       6.801   3.215  19.046  0.00  0.00    +0.000 HD
ENDROOT
BRANCH   1   5
ATOM      5  C   UNK     1       5.084   4.450  18.670  0.00  0.00    +0.000 C 
BRANCH   5   6
ATOM      6  C   UNK     1       4.105   3.543  17.942  0.00  0.00    +0.000 C 
BRANCH   6   7
ATOM      7  C   UNK     1       2.900   4.324  17.418  0.00  0.00    +0.000 C 
BRANCH   7   8
ATOM      8  C   UNK     1       1.646   4.017  18.237  0.00  0.00    +0.000 C 
BRANCH   8   9
ATOM      9  C   UNK     1       1.805   2.842  19.208  0.00  0.00    +0.000 C 
BRANCH   9  10
ATOM     10  N   UNK     1       1.171   1.588  18.714  0.00  0.00    +0.000 NA
ATOM     11  H   UNK     1       1.911   0.985  18.345  0.00  0.00    +0.000 HD
ATOM     12  H   UNK     1       0.595   1.809  17.894  0.00  0.00    +0.000 HD
ENDBRANCH   9  10
BRANCH   9  13
ATOM     13  C   UNK     1       1.247   3.158  20.609  0.00  0.00    +0.000 C 
ATOM     14  O   UNK     1       1.472   2.524  21.626  0.00  0.00    +0.000 OA
BRANCH  13  15
ATOM     15  O   UNK     1       0.438   4.251  20.570  0.00  0.00    +0.000 OA
ATOM     16  H   UNK     1       1.034   5.037  20.500  0.00  0.00    +0.000 HD
ENDBRANCH  13  15
ENDBRANCH   9  13
ENDBRANCH   8   9
ENDBRANCH   7   8
ENDBRANCH   6   7
ENDBRANCH   5   6
ENDBRANCH   1   5
BRANCH   2  17
ATOM     17  C   UNK     1       7.006   5.832  16.912  0.00  0.00    +0.000 C 
BRANCH  17  18
ATOM     18  O   UNK     1       7.621   5.744  15.635  0.00  0.00    +0.000 OA
BRANCH  18  19
ATOM     19  C   UNK     1       6.938   5.019  14.701  0.00  0.00    +0.000 A 
ATOM     20  C   UNK     1       7.599   4.857  13.482  0.00  0.00    +0.000 A 
ATOM     21  C   UNK     1       7.021   4.108  12.453  0.00  0.00    +0.000 A 
ATOM     22  C   UNK     1       5.770   3.512  12.655  0.00  0.00    +0.000 A 
ATOM     23  C   UNK     1       5.105   3.661  13.880  0.00  0.00    +0.000 A 
ATOM     24  C   UNK     1       5.695   4.412  14.900  0.00  0.00    +0.000 A 
BRANCH  22  25
ATOM     25  N   UNK     1       5.148   2.726  11.580  0.00  0.00    +0.000 N 
ATOM     26  O   UNK     1       5.719   1.686  11.227  0.00  0.00    +0.000 OA
ATOM     27  O   UNK     1       4.087   3.146  11.099  0.00  0.00    +0.000 OA
ENDBRANCH  22  25
ENDBRANCH  18  19
ENDBRANCH  17  18
ENDBRANCH   2  17
TORSDOF 12
ENDMDL
MODEL 2
REMARK VINA RESULT:      -6.8      1.308      1.862
REMARK  Name = 
REMARK  12 active torsions:
REMARK  status: ('A' for Active; 'I' for Inactive)
REMARK    1  A    between atoms: N_1  and  C_2
REMARK    2  A    between atoms: C_2  and  C_3
REMARK    3  A    between atoms: C_2  and  C_21
REMARK    4  A    between atoms: C_3  and  C_4
REMARK    5  A    between atoms: C_4  and  C_5
REMARK    6  A    between atoms: C_5  and  C_6
REMARK    7  A    between atoms: C_6  and  N_7
REMARK    8  A    between atoms: C_8  and  C_10
REMARK    9  A    between atoms: C_10  and  O_11
REMARK   10  A    between atoms: O_11  and  C_12
REMARK   11  A    between atoms: C_15  and  N_16
REMARK   12  A    between atoms: C_21  and  O_23
REMARK                            x       y       z     vdW  Elec       q    Type
REMARK                         _______ _______ _______ _____ _____    ______ ____
ROOT
ATOM      1  N   UNK     1       6.684   4.677  18.975  0.00  0.00    +0.000 N 
ATOM      2  C   UNK     1       7.302   4.796  17.757  0.00  0.00    +0.000 C 
ATOM      3  O   UNK     1       8.323   4.146  17.532  0.00  0.00    +0.000 OA
ATOM      4  H   UNK     1       7.127   4.003  19.593  0.00  0.00    +0.000 HD
ENDROOT
BRANCH   1   5
ATOM      5  C   UNK     1       5.463   5.346  19.377  0.00  0.00    +0.000 C 
BRANCH   5   6
ATOM      6  C   UNK     1       4.250   4.432  19.444  0.00  0.00    +0.000 C 
BRANCH   6   7
ATOM      7  C   UNK     1       2.967   5.174  19.072  0.00  0.00    +0.000 C 
BRANCH   7   8
ATOM      8  C   UNK     1       1.901   5.011  20.157  0.00  0.00    +0.000 C 
BRANCH   8   9
ATOM      9  C   UNK     1       0.955   3.827  19.931  0.00  0.00    +0.000 C 
BRANCH   9  10
ATOM     10  N   UNK     1       1.089   2.768  20.969  0.00  0.00    +0.000 NA
ATOM     11  H   UNK     1       1.142   1.864  20.492  0.00  0.00    +0.000 HD
ATOM     12  H   UNK     1       0.216   2.718  21.505  0.00  0.00    +0.000 HD
ENDBRANCH   9  10
BRANCH   9  13
ATOM     13  C   UNK     1       1.140   3.184  18.543  0.00  0.00    +0.000 C 
ATOM     14  O   UNK     1       0.993   3.746  17.471  0.00  0.00    +0.000 OA
BRANCH  13  15
ATOM     15  O   UNK     1       1.482   1.873  18.663  0.00  0.00    +0.000 OA
ATOM     16  H   UNK     1       1.776   1.579  17.766  0.00  0.00    +0.000 HD
ENDBRANCH  13  15
ENDBRANCH   9  13
ENDBRANCH   8   9
ENDBRANCH   7   8
ENDBRANCH   6   7
ENDBRANCH   5   6
ENDBRANCH   1   5
BRANCH   2  17
ATOM     17  C   UNK     1       6.684   5.736  16.722  0.00  0.00    +0.000 C 
BRANCH  17  18
ATOM     18  O   UNK     1       7.476   5.717  15.542  0.00  0.00    +0.000 OA
BRANCH  18  19
ATOM     19  C   UNK     1       6.976   4.976  14.510  0.00  0.00    +0.000 A 
ATOM     20  C   UNK     1       5.715   4.422  14.739  0.00  0.00    +0.000 A 
ATOM     21  C   UNK     1       5.078   3.668  13.749  0.00  0.00    +0.000 A 
ATOM     22  C   UNK     1       5.713   3.478  12.515  0.00  0.00    +0.000 A 
ATOM     23  C   UNK     1       6.973   4.041  12.274  0.00  0.00    +0.000 A 
ATOM     24  C   UNK     1       7.598   4.792  13.272  0.00  0.00    +0.000 A 
BRANCH  22  25
ATOM     25  N   UNK     1       5.056   2.684  11.466  0.00  0.00    +0.000 N 
ATOM     26  O   UNK     1       5.593   1.620  11.133  0.00  0.00    +0.000 OA
ATOM     27  O   UNK     1       4.004   3.125  10.985  0.00  0.00    +0.000 OA
ENDBRANCH  22  25
ENDBRANCH  18  19
ENDBRANCH  17  18
ENDBRANCH   2  17
TORSDOF 12
ENDMDL
MODEL 3
REMARK VINA RESULT:      -6.7      0.915      1.522
REMARK  Name = 
REMARK  12 active torsions:
REMARK  status: ('A' for Active; 'I' for Inactive)
REMARK    1  A    between atoms: N_1  and  C_2
REMARK    2  A    between atoms: C_2  and  C_3
REMARK    3  A    between atoms: C_2  and  C_21
REMARK    4  A    between atoms: C_3  and  C_4
REMARK    5  A    between atoms: C_4  and  C_5
REMARK    6  A    between atoms: C_5  and  C_6
REMARK    7  A    between atoms: C_6  and  N_7
REMARK    8  A    between atoms: C_8  and  C_10
REMARK    9  A    between atoms: C_10  and  O_11
REMARK   10  A    between atoms: O_11  and  C_12
REMARK   11  A    between atoms: C_15  and  N_16
REMARK   12  A    between atoms: C_21  and  O_23
REMARK                            x       y       z     vdW  Elec       q    Type
REMARK                         _______ _______ _______ _____ _____    ______ ____
ROOT
ATOM      1  N   UNK     1       6.313   4.684  18.683  0.00  0.00    +0.000 N 
ATOM      2  C   UNK     1       7.195   4.885  17.654  0.00  0.00    +0.000 C 
ATOM      3  O   UNK     1       8.195   4.172  17.567  0.00  0.00    +0.000 OA
ATOM      4  H   UNK     1       6.559   3.904  19.285  0.00  0.00    +0.000 HD
ENDROOT
BRANCH   1   5
ATOM      5  C   UNK     1       5.081   5.415  18.902  0.00  0.00    +0.000 C 
BRANCH   5   6
ATOM      6  C   UNK     1       4.061   5.257  17.785  0.00  0.00    +0.000 C 
BRANCH   6   7
ATOM      7  C   UNK     1       2.800   4.544  18.273  0.00  0.00    +0.000 C 
BRANCH   7   8
ATOM      8  C   UNK     1       2.678   4.622  19.796  0.00  0.00    +0.000 C 
BRANCH   8   9
ATOM      9  C   UNK     1       2.809   3.269  20.504  0.00  0.00    +0.000 C 
BRANCH   9  10
ATOM     10  N   UNK     1       3.232   2.171  19.590  0.00  0.00    +0.000 NA
ATOM     11  H   UNK     1       3.006   1.281  20.043  0.00  0.00    +0.000 HD
ATOM     12  H   UNK     1       4.256   2.169  19.529  0.00  0.00    +0.000 HD
ENDBRANCH   9  10
BRANCH   9  13
ATOM     13  C   UNK     1       1.508   2.848  21.212  0.00  0.00    +0.000 C 
ATOM     14  O   UNK     1       1.432   2.298  22.298  0.00  0.00    +0.000 OA
BRANCH  13  15
ATOM     15  O   UNK     1       0.424   3.158  20.451  0.00  0.00    +0.000 OA
ATOM     16  H   UNK     1      -0.118   2.333  20.388  0.00  0.00    +0.000 HD
ENDBRANCH  13  15
ENDBRANCH   9  13
ENDBRANCH   8   9
ENDBRANCH   7   8
ENDBRANCH   6   7
ENDBRANCH   5   6
ENDBRANCH   1   5
BRANCH   2  17
ATOM     17  C   UNK     1       6.889   5.994  16.647  0.00  0.00    +0.000 C 
BRANCH  17  18
ATOM     18  O   UNK     1       7.699   5.813  15.493  0.00  0.00    +0.000 OA
BRANCH  18  19
ATOM     19  C   UNK     1       7.149   5.050  14.503  0.00  0.00    +0.000 A 
ATOM     20  C   UNK     1       5.923   4.463  14.824  0.00  0.00    +0.000 A 
ATOM     21  C   UNK     1       5.240   3.684  13.885  0.00  0.00    +0.000 A 
ATOM     22  C   UNK     1       5.793   3.500  12.612  0.00  0.00    +0.000 A 
ATOM     23  C   UNK     1       7.017   4.095  12.279  0.00  0.00    +0.000 A 
ATOM     24  C   UNK     1       7.688   4.871  13.226  0.00  0.00    +0.000 A 
BRANCH  22  25
ATOM     25  N   UNK     1       5.087   2.680  11.616  0.00  0.00    +0.000 N 
ATOM     26  O   UNK     1       4.012   3.108  11.179  0.00  0.00    +0.000 OA
ATOM     27  O   UNK     1       5.615   1.615  11.270  0.00  0.00    +0.000 OA
ENDBRANCH  22  25
ENDBRANCH  18  19
ENDBRANCH  17  18
ENDBRANCH   2  17
TORSDOF 12
ENDMDL
MODEL 4
REMARK VINA RESULT:      -6.6      0.866      1.016
REMARK  Name = 
REMARK  12 active torsions:
REMARK  status: ('A' for Active; 'I' for Inactive)
REMARK    1  A    between atoms: N_1  and  C_2
REMARK    2  A    between atoms: C_2  and  C_3
REMARK    3  A    between atoms: C_2  and  C_21
REMARK    4  A    between atoms: C_3  and  C_4
REMARK    5  A    between atoms: C_4  and  C_5
REMARK    6  A    between atoms: C_5  and  C_6
REMARK    7  A    between atoms: C_6  and  N_7
REMARK    8  A    between atoms: C_8  and  C_10
REMARK    9  A    between atoms: C_10  and  O_11
REMARK   10  A    between atoms: O_11  and  C_12
REMARK   11  A    between atoms: C_15  and  N_16
REMARK   12  A    between atoms: C_21  and  O_23
REMARK                            x       y       z     vdW  Elec       q    Type
REMARK                         _______ _______ _______ _____ _____    ______ ____
ROOT
ATOM      1  N   UNK     1       5.477   5.424  18.538  0.00  0.00    +0.000 N 
ATOM      2  C   UNK     1       6.724   5.571  17.989  0.00  0.00    +0.000 C 
ATOM      3  O   UNK     1       7.687   5.018  18.520  0.00  0.00    +0.000 OA
ATOM      4  H   UNK     1       5.457   4.813  19.349  0.00  0.00    +0.000 HD
ENDROOT
BRANCH   1   5
ATOM      5  C   UNK     1       4.246   5.981  18.013  0.00  0.00    +0.000 C 
BRANCH   5   6
ATOM      6  C   UNK     1       3.102   4.983  17.927  0.00  0.00    +0.000 C 
BRANCH   6   7
ATOM      7  C   UNK     1       3.599   3.545  18.071  0.00  0.00    +0.000 C 
BRANCH   7   8
ATOM      8  C   UNK     1       3.490   3.066  19.519  0.00  0.00    +0.000 C 
BRANCH   8   9
ATOM      9  C   UNK     1       2.290   2.153  19.788  0.00  0.00    +0.000 C 
BRANCH   9  10
ATOM     10  N   UNK     1       1.475   1.888  18.569  0.00  0.00    +0.000 NA
ATOM     11  H   UNK     1       0.499   1.785  18.859  0.00  0.00    +0.000 HD
ATOM     12  H   UNK     1       1.725   0.964  18.199  0.00  0.00    +0.000 HD
ENDBRANCH   9  10
BRANCH   9  13
ATOM     13  C   UNK     1       1.364   2.707  20.888  0.00  0.00    +0.000 C 
ATOM     14  O   UNK     1       1.491   2.522  22.087  0.00  0.00    +0.000 OA
BRANCH  13  15
ATOM     15  O   UNK     1       0.353   3.435  20.344  0.00  0.00    +0.000 OA
ATOM     16  H   UNK     1      -0.063   3.935  21.089  0.00  0.00    +0.000 HD
ENDBRANCH  13  15
ENDBRANCH   9  13
ENDBRANCH   8   9
ENDBRANCH   7   8
ENDBRANCH   6   7
ENDBRANCH   5   6
ENDBRANCH   1   5
BRANCH   2  17
ATOM     17  C   UNK     1       6.861   6.419  16.724  0.00  0.00    +0.000 C 
BRANCH  17  18
ATOM     18  O   UNK     1       7.661   5.721  15.779  0.00  0.00    +0.000 OA
BRANCH  18  19
ATOM     19  C   UNK     1       6.973   5.005  14.842  0.00  0.00    +0.000 A 
ATOM     20  C   UNK     1       7.544   5.003  13.567  0.00  0.00    +0.000 A 
ATOM     21  C   UNK     1       6.955   4.280  12.525  0.00  0.00    +0.000 A 
ATOM     22  C   UNK     1       5.787   3.548  12.770  0.00  0.00    +0.000 A 
ATOM     23  C   UNK     1       5.215   3.536  14.049  0.00  0.00    +0.000 A 
ATOM     24  C   UNK     1       5.814   4.262  15.082  0.00  0.00    +0.000 A 
BRANCH  22  25
ATOM     25  N   UNK     1       5.155   2.787  11.683  0.00  0.00    +0.000 N 
ATOM     26  O   UNK     1       5.640   1.684  11.398  0.00  0.00    +0.000 OA
ATOM     27  O   UNK     1       4.172   3.291  11.124  0.00  0.00    +0.000 OA
ENDBRANCH  22  25
ENDBRANCH  18  19
ENDBRANCH  17  18
ENDBRANCH   2  17
TORSDOF 12
ENDMDL
MODEL 5
REMARK VINA RESULT:      -6.6      1.233      1.645
REMARK  Name = 
REMARK  12 active torsions:
REMARK  status: ('A' for Active; 'I' for Inactive)
REMARK    1  A    between atoms: N_1  and  C_2
REMARK    2  A    between atoms: C_2  and  C_3
REMARK    3  A    between atoms: C_2  and  C_21
REMARK    4  A    between atoms: C_3  and  C_4
REMARK    5  A    between atoms: C_4  and  C_5
REMARK    6  A    between atoms: C_5  and  C_6
REMARK    7  A    between atoms: C_6  and  N_7
REMARK    8  A    between atoms: C_8  and  C_10
REMARK    9  A    between atoms: C_10  and  O_11
REMARK   10  A    between atoms: O_11  and  C_12
REMARK   11  A    between atoms: C_15  and  N_16
REMARK   12  A    between atoms: C_21  and  O_23
REMARK                            x       y       z     vdW  Elec       q    Type
REMARK                         _______ _______ _______ _____ _____    ______ ____
ROOT
ATOM      1  N   UNK     1       6.586   4.757  18.921  0.00  0.00    +0.000 N 
ATOM      2  C   UNK     1       7.323   4.893  17.773  0.00  0.00    +0.000 C 
ATOM      3  O   UNK     1       8.310   4.178  17.601  0.00  0.00    +0.000 OA
ATOM      4  H   UNK     1       6.918   4.017  19.534  0.00  0.00    +0.000 HD
ENDROOT
BRANCH   1   5
ATOM      5  C   UNK     1       5.386   5.496  19.254  0.00  0.00    +0.000 C 
BRANCH   5   6
ATOM      6  C   UNK     1       4.234   5.275  18.286  0.00  0.00    +0.000 C 
BRANCH   6   7
ATOM      7  C   UNK     1       3.460   4.000  18.617  0.00  0.00    +0.000 C 
BRANCH   7   8
ATOM      8  C   UNK     1       1.969   4.290  18.794  0.00  0.00    +0.000 C 
BRANCH   8   9
ATOM      9  C   UNK     1       1.503   4.302  20.253  0.00  0.00    +0.000 C 
BRANCH   9  10
ATOM     10  N   UNK     1       2.313   5.206  21.116  0.00  0.00    +0.000 NA
ATOM     11  H   UNK     1       3.220   5.345  20.663  0.00  0.00    +0.000 HD
ATOM     12  H   UNK     1       2.541   4.716  21.988  0.00  0.00    +0.000 HD
ENDBRANCH   9  10
BRANCH   9  13
ATOM     13  C   UNK     1       1.500   2.895  20.881  0.00  0.00    +0.000 C 
ATOM     14  O   UNK     1       1.534   2.646  22.075  0.00  0.00    +0.000 OA
BRANCH  13  15
ATOM     15  O   UNK     1       1.470   1.938  19.916  0.00  0.00    +0.000 OA
ATOM     16  H   UNK     1       0.634   2.080  19.408  0.00  0.00    +0.000 HD
ENDBRANCH  13  15
ENDBRANCH   9  13
ENDBRANCH   8   9
ENDBRANCH   7   8
ENDBRANCH   6   7
ENDBRANCH   5   6
ENDBRANCH   1   5
BRANCH   2  17
ATOM     17  C   UNK     1       6.874   5.934  16.747  0.00  0.00    +0.000 C 
BRANCH  17  18
ATOM     18  O   UNK     1       7.673   5.810  15.578  0.00  0.00    +0.000 OA
BRANCH  18  19
ATOM     19  C   UNK     1       7.130   5.063  14.572  0.00  0.00    +0.000 A 
ATOM     20  C   UNK     1       5.873   4.525  14.851  0.00  0.00    +0.000 A 
ATOM     21  C   UNK     1       5.195   3.767  13.891  0.00  0.00    +0.000 A 
ATOM     22  C   UNK     1       5.784   3.556  12.639  0.00  0.00    +0.000 A 
ATOM     23  C   UNK     1       7.041   4.103  12.349  0.00  0.00    +0.000 A 
ATOM     24  C   UNK     1       7.708   4.858  13.316  0.00  0.00    +0.000 A 
BRANCH  22  25
ATOM     25  N   UNK     1       5.085   2.758  11.622  0.00  0.00    +0.000 N 
ATOM     26  O   UNK     1       5.594   1.680  11.289  0.00  0.00    +0.000 OA
ATOM     27  O   UNK     1       4.025   3.208  11.166  0.00  0.00    +0.000 OA
ENDBRANCH  22  25
ENDBRANCH  18  19
ENDBRANCH  17  18
ENDBRANCH   2  17
TORSDOF 12
ENDMDL
MODEL 6
REMARK VINA RESULT:      -6.6      5.196      9.060
REMARK  Name = 
REMARK  12 active torsions:
REMARK  status: ('A' for Active; 'I' for Inactive)
REMARK    1  A    between atoms: N_1  and  C_2
REMARK    2  A    between atoms: C_2  and  C_3
REMARK    3  A    between atoms: C_2  and  C_21
REMARK    4  A    between atoms: C_3  and  C_4
REMARK    5  A    between atoms: C_4  and  C_5
REMARK    6  A    between atoms: C_5  and  C_6
REMARK    7  A    between atoms: C_6  and  N_7
REMARK    8  A    between atoms: C_8  and  C_10
REMARK    9  A    between atoms: C_10  and  O_11
REMARK   10  A    between atoms: O_11  and  C_12
REMARK   11  A    between atoms: C_15  and  N_16
REMARK   12  A    between atoms: C_21  and  O_23
REMARK                            x       y       z     vdW  Elec       q    Type
REMARK                         _______ _______ _______ _____ _____    ______ ____
ROOT
ATOM      1  N   UNK     1       8.270   7.478  18.652  0.00  0.00    +0.000 N 
ATOM      2  C   UNK     1       7.654   6.342  18.195  0.00  0.00    +0.000 C 
ATOM      3  O   UNK     1       7.770   5.294  18.830  0.00  0.00    +0.000 OA
ATOM      4  H   UNK     1       8.757   7.351  19.534  0.00  0.00    +0.000 HD
ENDROOT
BRANCH   1   5
ATOM      5  C   UNK     1       8.201   8.788  18.038  0.00  0.00    +0.000 C 
BRANCH   5   6
ATOM      6  C   UNK     1       9.030   9.849  18.746  0.00  0.00    +0.000 C 
BRANCH   6   7
ATOM      7  C   UNK     1       8.868  11.219  18.088  0.00  0.00    +0.000 C 
BRANCH   7   8
ATOM      8  C   UNK     1       9.999  12.164  18.497  0.00  0.00    +0.000 C 
BRANCH   8   9
ATOM      9  C   UNK     1      10.876  12.631  17.331  0.00  0.00    +0.000 C 
BRANCH   9  10
ATOM     10  N   UNK     1      12.239  12.029  17.349  0.00  0.00    +0.000 NA
ATOM     11  H   UNK     1      12.596  12.089  18.306  0.00  0.00    +0.000 HD
ATOM     12  H   UNK     1      12.871  12.628  16.807  0.00  0.00    +0.000 HD
ENDBRANCH   9  10
BRANCH   9  13
ATOM     13  C   UNK     1      11.015  14.164  17.278  0.00  0.00    +0.000 C 
ATOM     14  O   UNK     1      11.007  14.915  18.239  0.00  0.00    +0.000 OA
BRANCH  13  15
ATOM     15  O   UNK     1      11.136  14.592  15.993  0.00  0.00    +0.000 OA
ATOM     16  H   UNK     1      10.238  14.899  15.715  0.00  0.00    +0.000 HD
ENDBRANCH  13  15
ENDBRANCH   9  13
ENDBRANCH   8   9
ENDBRANCH   7   8
ENDBRANCH   6   7
ENDBRANCH   5   6
ENDBRANCH   1   5
BRANCH   2  17
ATOM     17  C   UNK     1       6.837   6.433  16.906  0.00  0.00    +0.000 C 
BRANCH  17  18
ATOM     18  O   UNK     1       5.542   6.932  17.209  0.00  0.00    +0.000 OA
BRANCH  18  19
ATOM     19  C   UNK     1       4.608   5.989  17.530  0.00  0.00    +0.000 A 
ATOM     20  C   UNK     1       3.674   6.388  18.488  0.00  0.00    +0.000 A 
ATOM     21  C   UNK     1       2.646   5.526  18.881  0.00  0.00    +0.000 A 
ATOM     22  C   UNK     1       2.554   4.256  18.301  0.00  0.00    +0.000 A 
ATOM     23  C   UNK     1       3.481   3.852  17.331  0.00  0.00    +0.000 A 
ATOM     24  C   UNK     1       4.503   4.723  16.947  0.00  0.00    +0.000 A 
BRANCH  22  25
ATOM     25  N   UNK     1       1.480   3.337  18.708  0.00  0.00    +0.000 N 
ATOM     26  O   UNK     1       0.807   3.646  19.700  0.00  0.00    +0.000 OA
ATOM     27  O   UNK     1       1.310   2.315  18.030  0.00  0.00    +0.000 OA
ENDBRANCH  22  25
ENDBRANCH  18  19
ENDBRANCH  17  18
ENDBRANCH   2  17
TORSDOF 12
ENDMDL
MODEL 7
REMARK VINA RESULT:      -6.5      1.116      1.845
REMARK  Name = 
REMARK  12 active torsions:
REMARK  status: ('A' for Active; 'I' for Inactive)
REMARK    1  A    between atoms: N_1  and  C_2
REMARK    2  A    between atoms: C_2  and  C_3
REMARK    3  A    between atoms: C_2  and  C_21
REMARK    4  A    between atoms: C_3  and  C_4
REMARK    5  A    between atoms: C_4  and  C_5
REMARK    6  A    between atoms: C_5  and  C_6
REMARK    7  A    between atoms: C_6  and  N_7
REMARK    8  A    between atoms: C_8  and  C_10
REMARK    9  A    between atoms: C_10  and  O_11
REMARK   10  A    between atoms: O_11  and  C_12
REMARK   11  A    between atoms: C_15  and  N_16
REMARK   12  A    between atoms: C_21  and  O_23
REMARK                            x       y       z     vdW  Elec       q    Type
REMARK                         _______ _______ _______ _____ _____    ______ ____
ROOT
ATOM      1  N   UNK     1       5.282   6.294  18.169  0.00  0.00    +0.000 N 
ATOM      2  C   UNK     1       6.327   6.601  17.336  0.00  0.00    +0.000 C 
ATOM      3  O   UNK     1       6.517   7.774  17.012  0.00  0.00    +0.000 OA
ATOM      4  H   UNK     1       4.761   7.107  18.486  0.00  0.00    +0.000 HD
ENDROOT
BRANCH   1   5
ATOM      5  C   UNK     1       4.950   4.975  18.664  0.00  0.00    +0.000 C 
BRANCH   5   6
ATOM      6  C   UNK     1       3.505   4.567  18.421  0.00  0.00    +0.000 C 
BRANCH   6   7
ATOM      7  C   UNK     1       3.415   3.305  17.563  0.00  0.00    +0.000 C 
BRANCH   7   8
ATOM      8  C   UNK     1       3.207   2.063  18.430  0.00  0.00    +0.000 C 
BRANCH   8   9
ATOM      9  C   UNK     1       1.827   1.986  19.091  0.00  0.00    +0.000 C 
BRANCH   9  10
ATOM     10  N   UNK     1       0.760   2.651  18.293  0.00  0.00    +0.000 NA
ATOM     11  H   UNK     1       0.236   1.923  17.800  0.00  0.00    +0.000 HD
ATOM     12  H   UNK     1       1.199   3.196  17.543  0.00  0.00    +0.000 HD
ENDBRANCH   9  10
BRANCH   9  13
ATOM     13  C   UNK     1       1.823   2.582  20.512  0.00  0.00    +0.000 C 
ATOM     14  O   UNK     1       2.727   2.492  21.326  0.00  0.00    +0.000 OA
BRANCH  13  15
ATOM     15  O   UNK     1       0.652   3.227  20.760  0.00  0.00    +0.000 OA
ATOM     16  H   UNK     1       0.117   2.623  21.332  0.00  0.00    +0.000 HD
ENDBRANCH  13  15
ENDBRANCH   9  13
ENDBRANCH   8   9
ENDBRANCH   7   8
ENDBRANCH   6   7
ENDBRANCH   5   6
ENDBRANCH   1   5
BRANCH   2  17
ATOM     17  C   UNK     1       7.220   5.460  16.848  0.00  0.00    +0.000 C 
BRANCH  17  18
ATOM     18  O   UNK     1       7.685   5.759  15.538  0.00  0.00    +0.000 OA
BRANCH  18  19
ATOM     19  C   UNK     1       7.136   5.013  14.535  0.00  0.00    +0.000 A 
ATOM     20  C   UNK     1       5.970   4.327  14.882  0.00  0.00    +0.000 A 
ATOM     21  C   UNK     1       5.292   3.552  13.936  0.00  0.00    +0.000 A 
ATOM     22  C   UNK     1       5.788   3.475  12.628  0.00  0.00    +0.000 A 
ATOM     23  C   UNK     1       6.951   4.170  12.270  0.00  0.00    +0.000 A 
ATOM     24  C   UNK     1       7.618   4.940  13.225  0.00  0.00    +0.000 A 
BRANCH  22  25
ATOM     25  N   UNK     1       5.088   2.661  11.624  0.00  0.00    +0.000 N 
ATOM     26  O   UNK     1       4.031   3.108  11.159  0.00  0.00    +0.000 OA
ATOM     27  O   UNK     1       5.601   1.582  11.298  0.00  0.00    +0.000 OA
ENDBRANCH  22  25
ENDBRANCH  18  19
ENDBRANCH  17  18
ENDBRANCH   2  17
TORSDOF 12
ENDMDL
MODEL 8
REMARK VINA RESULT:      -6.5      2.675      4.366
REMARK  Name = 
REMARK  12 active torsions:
REMARK  status: ('A' for Active; 'I' for Inactive)
REMARK    1  A    between atoms: N_1  and  C_2
REMARK    2  A    between atoms: C_2  and  C_3
REMARK    3  A    between atoms: C_2  and  C_21
REMARK    4  A    between atoms: C_3  and  C_4
REMARK    5  A    between atoms: C_4  and  C_5
REMARK    6  A    between atoms: C_5  and  C_6
REMARK    7  A    between atoms: C_6  and  N_7
REMARK    8  A    between atoms: C_8  and  C_10
REMARK    9  A    between atoms: C_10  and  O_11
REMARK   10  A    between atoms: O_11  and  C_12
REMARK   11  A    between atoms: C_15  and  N_16
REMARK   12  A    between atoms: C_21  and  O_23
REMARK                            x       y       z     vdW  Elec       q    Type
REMARK                         _______ _______ _______ _____ _____    ______ ____
ROOT
ATOM      1  N   UNK     1       1.175   5.388  20.896  0.00  0.00    +0.000 N 
ATOM      2  C   UNK     1       2.039   6.308  20.362  0.00  0.00    +0.000 C 
ATOM      3  O   UNK     1       1.848   7.506  20.567  0.00  0.00    +0.000 OA
ATOM      4  H   UNK     1       0.444   5.799  21.470  0.00  0.00    +0.000 HD
ENDROOT
BRANCH   1   5
ATOM      5  C   UNK     1       1.283   3.948  20.774  0.00  0.00    +0.000 C 
BRANCH   5   6
ATOM      6  C   UNK     1       0.408   3.351  19.682  0.00  0.00    +0.000 C 
BRANCH   6   7
ATOM      7  C   UNK     1       1.236   2.565  18.667  0.00  0.00    +0.000 C 
BRANCH   7   8
ATOM      8  C   UNK     1       2.268   1.678  19.365  0.00  0.00    +0.000 C 
BRANCH   8   9
ATOM      9  C   UNK     1       3.694   1.838  18.829  0.00  0.00    +0.000 C 
BRANCH   9  10
ATOM     10  N   UNK     1       4.233   0.590  18.222  0.00  0.00    +0.000 NA
ATOM     11  H   UNK     1       5.083   0.334  18.730  0.00  0.00    +0.000 HD
ATOM     12  H   UNK     1       4.561   0.799  17.272  0.00  0.00    +0.000 HD
ENDBRANCH   9  10
BRANCH   9  13
ATOM     13  C   UNK     1       4.677   2.323  19.912  0.00  0.00    +0.000 C 
ATOM     14  O   UNK     1       4.715   1.932  21.067  0.00  0.00    +0.000 OA
BRANCH  13  15
ATOM     15  O   UNK     1       5.509   3.276  19.414  0.00  0.00    +0.000 OA
ATOM     16  H   UNK     1       6.350   2.814  19.172  0.00  0.00    +0.000 HD
ENDBRANCH  13  15
ENDBRANCH   9  13
ENDBRANCH   8   9
ENDBRANCH   7   8
ENDBRANCH   6   7
ENDBRANCH   5   6
ENDBRANCH   1   5
BRANCH   2  17
ATOM     17  C   UNK     1       3.217   5.795  19.532  0.00  0.00    +0.000 C 
BRANCH  17  18
ATOM     18  O   UNK     1       3.356   6.603  18.371  0.00  0.00    +0.000 OA
BRANCH  18  19
ATOM     19  C   UNK     1       4.142   6.083  17.384  0.00  0.00    +0.000 A 
ATOM     20  C   UNK     1       5.176   6.918  16.953  0.00  0.00    +0.000 A 
ATOM     21  C   UNK     1       6.072   6.491  15.969  0.00  0.00    +0.000 A 
ATOM     22  C   UNK     1       5.931   5.211  15.419  0.00  0.00    +0.000 A 
ATOM     23  C   UNK     1       4.904   4.363  15.854  0.00  0.00    +0.000 A 
ATOM     24  C   UNK     1       4.015   4.802  16.838  0.00  0.00    +0.000 A 
BRANCH  22  25
ATOM     25  N   UNK     1       6.864   4.750  14.381  0.00  0.00    +0.000 N 
ATOM     26  O   UNK     1       7.908   5.397  14.220  0.00  0.00    +0.000 OA
ATOM     27  O   UNK     1       6.554   3.740  13.735  0.00  0.00    +0.000 OA
ENDBRANCH  22  25
ENDBRANCH  18  19
ENDBRANCH  17  18
ENDBRANCH   2  17
TORSDOF 12
ENDMDL
MODEL 9
REMARK VINA RESULT:      -6.4      3.925      6.156
REMARK  Name = 
REMARK  12 active torsions:
REMARK  status: ('A' for Active; 'I' for Inactive)
REMARK    1  A    between atoms: N_1  and  C_2
REMARK    2  A    between atoms: C_2  and  C_3
REMARK    3  A    between atoms: C_2  and  C_21
REMARK    4  A    between atoms: C_3  and  C_4
REMARK    5  A    between atoms: C_4  and  C_5
REMARK    6  A    between atoms: C_5  and  C_6
REMARK    7  A    between atoms: C_6  and  N_7
REMARK    8  A    between atoms: C_8  and  C_10
REMARK    9  A    between atoms: C_10  and  O_11
REMARK   10  A    between atoms: O_11  and  C_12
REMARK   11  A    between atoms: C_15  and  N_16
REMARK   12  A    between atoms: C_21  and  O_23
REMARK                            x       y       z     vdW  Elec       q    Type
REMARK                         _______ _______ _______ _____ _____    ______ ____
ROOT
ATOM      1  N   UNK     1       2.193   4.557  21.230  0.00  0.00    +0.000 N 
ATOM      2  C   UNK     1       2.432   3.215  21.085  0.00  0.00    +0.000 C 
ATOM      3  O   UNK     1       2.742   2.547  22.071  0.00  0.00    +0.000 OA
ATOM      4  H   UNK     1       2.260   4.882  22.190  0.00  0.00    +0.000 HD
ENDROOT
BRANCH   1   5
ATOM      5  C   UNK     1       1.789   5.467  20.177  0.00  0.00    +0.000 C 
BRANCH   5   6
ATOM      6  C   UNK     1       2.808   6.554  19.873  0.00  0.00    +0.000 C 
BRANCH   6   7
ATOM      7  C   UNK     1       2.339   7.459  18.734  0.00  0.00    +0.000 C 
BRANCH   7   8
ATOM      8  C   UNK     1       1.517   8.634  19.265  0.00  0.00    +0.000 C 
BRANCH   8   9
ATOM      9  C   UNK     1       1.008   9.583  18.176  0.00  0.00    +0.000 C 
BRANCH   9  10
ATOM     10  N   UNK     1       2.105  10.183  17.366  0.00  0.00    +0.000 NA
ATOM     11  H   UNK     1       2.860  10.447  18.005  0.00  0.00    +0.000 HD
ATOM     12  H   UNK     1       1.780  11.076  16.979  0.00  0.00    +0.000 HD
ENDBRANCH   9  10
BRANCH   9  13
ATOM     13  C   UNK     1       0.139  10.720  18.747  0.00  0.00    +0.000 C 
ATOM     14  O   UNK     1       0.256  11.221  19.853  0.00  0.00    +0.000 OA
BRANCH  13  15
ATOM     15  O   UNK     1      -0.809  11.099  17.849  0.00  0.00    +0.000 OA
ATOM     16  H   UNK     1      -0.667  12.063  17.683  0.00  0.00    +0.000 HD
ENDBRANCH  13  15
ENDBRANCH   9  13
ENDBRANCH   8   9
ENDBRANCH   7   8
ENDBRANCH   6   7
ENDBRANCH   5   6
ENDBRANCH   1   5
BRANCH   2  17
ATOM     17  C   UNK     1       2.296   2.604  19.690  0.00  0.00    +0.000 C 
BRANCH  17  18
ATOM     18  O   UNK     1       3.590   2.314  19.179  0.00  0.00    +0.000 OA
BRANCH  18  19
ATOM     19  C   UNK     1       4.221   3.351  18.553  0.00  0.00    +0.000 A 
ATOM     20  C   UNK     1       3.627   3.767  17.360  0.00  0.00    +0.000 A 
ATOM     21  C   UNK     1       4.157   4.840  16.637  0.00  0.00    +0.000 A 
ATOM     22  C   UNK     1       5.289   5.504  17.124  0.00  0.00    +0.000 A 
ATOM     23  C   UNK     1       5.883   5.100  18.327  0.00  0.00    +0.000 A 
ATOM     24  C   UNK     1       5.344   4.027  19.039  0.00  0.00    +0.000 A 
BRANCH  22  25
ATOM     25  N   UNK     1       5.859   6.632  16.373  0.00  0.00    +0.000 N 
ATOM     26  O   UNK     1       5.409   6.853  15.241  0.00  0.00    +0.000 OA
ATOM     27  O   UNK     1       6.748   7.297  16.921  0.00  0.00    +0.000 OA
ENDBRANCH  22  25
ENDBRANCH  18  19
ENDBRANCH  17  18
ENDBRANCH   2  17
TORSDOF 12
ENDMDL
