MODEL 1
REMARK VINA RESULT:      -7.0      0.000      0.000
REMARK  Name = 
REMARK  8 active torsions:
REMARK  status: ('A' for Active; 'I' for Inactive)
REMARK    1  A    between atoms: C_1  and  O_2
REMARK    2  A    between atoms: O_2  and  C_3
REMARK    3  A    between atoms: C_5  and  C_6
REMARK    4  A    between atoms: C_11  and  C_12
REMARK    5  A    between atoms: C_16  and  C_17
REMARK    6  A    between atoms: C_17  and  N_18
REMARK    7  A    between atoms: C_23  and  O_24
REMARK    8  A    between atoms: C_25  and  O_26
REMARK                            x       y       z     vdW  Elec       q    Type
REMARK                         _______ _______ _______ _____ _____    ______ ____
ROOT
ATOM      1  C   UNL     1       2.097   6.766  20.032  0.00  0.00    +0.000 C 
ATOM      2  O   UNL     1       1.800   6.304  21.133  0.00  0.00    +0.000 OA
ATOM      3  N   UNL     1       1.673   8.041  19.626  0.00  0.00    +0.000 N 
ATOM      4  C   UNL     1       1.133   8.918  20.664  0.00  0.00    +0.000 C 
ATOM      5  C   UNL     1      -0.008   9.800  20.157  0.00  0.00    +0.000 C 
ATOM      6  C   UNL     1       0.338  10.565  18.865  0.00  0.00    +0.000 C 
ATOM      7  C   UNL     1       0.824   9.543  17.829  0.00  0.00    +0.000 C 
ATOM      8  C   UNL     1       1.964   8.683  18.345  0.00  0.00    +0.000 C 
ENDROOT
BRANCH   1  11
ATOM      9  C   UNL     1       5.063   5.061  18.311  0.00  0.00    +0.000 A 
ATOM     10  C   UNL     1       4.327   5.877  19.173  0.00  0.00    +0.000 A 
ATOM     11  C   UNL     1       2.922   5.884  19.158  0.00  0.00    +0.000 A 
ATOM     12  C   UNL     1       2.244   4.962  18.341  0.00  0.00    +0.000 A 
ATOM     13  C   UNL     1       2.974   4.087  17.547  0.00  0.00    +0.000 A 
ATOM     14  C   UNL     1       4.370   4.154  17.520  0.00  0.00    +0.000 A 
BRANCH   9  16
ATOM     15  C   UNL     1       7.162   5.644  19.282  0.00  0.00    +0.000 C 
ATOM     16  O   UNL     1       6.427   5.074  18.203  0.00  0.00    +0.000 OA
ENDBRANCH   9  16
BRANCH  13  17
ATOM     17  O   UNL     1       2.361   3.129  16.784  0.00  0.00    +0.000 OA
ATOM     18  H   UNL     1       1.609   3.545  16.325  0.00  0.00    +0.000 HD
ENDBRANCH  13  17
BRANCH  14  19
ATOM     19  O   UNL     1       5.046   3.274  16.710  0.00  0.00    +0.000 OA
ATOM     20  H   UNL     1       5.478   3.834  16.035  0.00  0.00    +0.000 HD
ENDBRANCH  14  19
ENDBRANCH   1  11
BRANCH   6  21
ATOM     21  C   UNL     1       1.260  11.774  19.003  0.00  0.00    +0.000 A 
ATOM     22  C   UNL     1       2.279  12.073  18.091  0.00  0.00    +0.000 A 
ATOM     23  C   UNL     1       3.142  13.153  18.299  0.00  0.00    +0.000 A 
ATOM     24  C   UNL     1       3.012  13.950  19.431  0.00  0.00    +0.000 A 
ATOM     25  C   UNL     1       2.017  13.676  20.373  0.00  0.00    +0.000 A 
ATOM     26  C   UNL     1       1.152  12.590  20.147  0.00  0.00    +0.000 A 
BRANCH  25  27
ATOM     27  C   UNL     1       1.899  14.493  21.634  0.00  0.00    +0.000 C 
BRANCH  27  28
ATOM     28  N   UNL     1       3.176  14.603  22.331  0.00  0.00    +0.000 NA
ATOM     29  H   UNL     1       3.511  15.561  22.241  0.00  0.00    +0.000 HD
ATOM     30  H   UNL     1       3.859  14.015  21.859  0.00  0.00    +0.000 HD
ENDBRANCH  27  28
ENDBRANCH  25  27
ENDBRANCH   6  21
TORSDOF 7
ENDMDL
MODEL 2
REMARK VINA RESULT:      -6.9      3.387      5.854
REMARK  Name = 
REMARK  8 active torsions:
REMARK  status: ('A' for Active; 'I' for Inactive)
REMARK    1  A    between atoms: C_1  and  O_2
REMARK    2  A    between atoms: O_2  and  C_3
REMARK    3  A    between atoms: C_5  and  C_6
REMARK    4  A    between atoms: C_11  and  C_12
REMARK    5  A    between atoms: C_16  and  C_17
REMARK    6  A    between atoms: C_17  and  N_18
REMARK    7  A    between atoms: C_23  and  O_24
REMARK    8  A    between atoms: C_25  and  O_26
REMARK                            x       y       z     vdW  Elec       q    Type
REMARK                         _______ _______ _______ _____ _____    ______ ____
ROOT
ATOM      1  C   UNL     1       6.574   4.611  17.005  0.00  0.00    +0.000 C 
ATOM      2  O   UNL     1       7.576   4.419  17.693  0.00  0.00    +0.000 OA
ATOM      3  N   UNL     1       5.326   4.896  17.580  0.00  0.00    +0.000 N 
ATOM      4  C   UNL     1       5.319   5.259  18.997  0.00  0.00    +0.000 C 
ATOM      5  C   UNL     1       4.087   4.737  19.734  0.00  0.00    +0.000 C 
ATOM      6  C   UNL     1       2.760   5.088  19.034  0.00  0.00    +0.000 C 
ATOM      7  C   UNL     1       2.852   4.601  17.581  0.00  0.00    +0.000 C 
ATOM      8  C   UNL     1       4.077   5.137  16.860  0.00  0.00    +0.000 C 
ENDROOT
BRANCH   1  11
ATOM      9  C   UNL     1       6.213   3.610  13.326  0.00  0.00    +0.000 A 
ATOM     10  C   UNL     1       5.974   3.703  14.699  0.00  0.00    +0.000 A 
ATOM     11  C   UNL     1       6.769   4.511  15.531  0.00  0.00    +0.000 A 
ATOM     12  C   UNL     1       7.748   5.334  14.948  0.00  0.00    +0.000 A 
ATOM     13  C   UNL     1       7.930   5.310  13.571  0.00  0.00    +0.000 A 
ATOM     14  C   UNL     1       7.181   4.438  12.774  0.00  0.00    +0.000 A 
BRANCH   9  16
ATOM     15  C   UNL     1       4.427   3.307  11.776  0.00  0.00    +0.000 C 
ATOM     16  O   UNL     1       5.545   2.771  12.476  0.00  0.00    +0.000 OA
ENDBRANCH   9  16
BRANCH  13  17
ATOM     17  O   UNL     1       8.826   6.140  12.951  0.00  0.00    +0.000 OA
ATOM     18  H   UNL     1       9.723   5.848  13.193  0.00  0.00    +0.000 HD
ENDBRANCH  13  17
BRANCH  14  19
ATOM     19  O   UNL     1       7.406   4.444  11.419  0.00  0.00    +0.000 OA
ATOM     20  H   UNL     1       7.865   3.601  11.236  0.00  0.00    +0.000 HD
ENDBRANCH  14  19
ENDBRANCH   1  11
BRANCH   6  21
ATOM     21  C   UNL     1       2.271   6.528  19.160  0.00  0.00    +0.000 A 
ATOM     22  C   UNL     1       2.284   7.442  18.099  0.00  0.00    +0.000 A 
ATOM     23  C   UNL     1       1.891   8.771  18.284  0.00  0.00    +0.000 A 
ATOM     24  C   UNL     1       1.486   9.217  19.537  0.00  0.00    +0.000 A 
ATOM     25  C   UNL     1       1.472   8.340  20.625  0.00  0.00    +0.000 A 
ATOM     26  C   UNL     1       1.865   7.005  20.422  0.00  0.00    +0.000 A 
BRANCH  25  27
ATOM     27  C   UNL     1       1.092   8.822  22.001  0.00  0.00    +0.000 C 
BRANCH  27  28
ATOM     28  N   UNL     1       1.012  10.277  22.064  0.00  0.00    +0.000 NA
ATOM     29  H   UNL     1       1.352  10.658  21.183  0.00  0.00    +0.000 HD
ATOM     30  H   UNL     1       1.649  10.610  22.785  0.00  0.00    +0.000 HD
ENDBRANCH  27  28
ENDBRANCH  25  27
ENDBRANCH   6  21
TORSDOF 7
ENDMDL
MODEL 3
REMARK VINA RESULT:      -6.7      3.605      6.507
REMARK  Name = 
REMARK  8 active torsions:
REMARK  status: ('A' for Active; 'I' for Inactive)
REMARK    1  A    between atoms: C_1  and  O_2
REMARK    2  A    between atoms: O_2  and  C_3
REMARK    3  A    between atoms: C_5  and  C_6
REMARK    4  A    between atoms: C_11  and  C_12
REMARK    5  A    between atoms: C_16  and  C_17
REMARK    6  A    between atoms: C_17  and  N_18
REMARK    7  A    between atoms: C_23  and  O_24
REMARK    8  A    between atoms: C_25  and  O_26
REMARK                            x       y       z     vdW  Elec       q    Type
REMARK                         _______ _______ _______ _____ _____    ______ ____
ROOT
ATOM      1  C   UNL     1       6.880   4.334  16.666  0.00  0.00    +0.000 C 
ATOM      2  O   UNL     1       7.950   4.147  17.244  0.00  0.00    +0.000 OA
ATOM      3  N   UNL     1       5.674   4.480  17.369  0.00  0.00    +0.000 N 
ATOM      4  C   UNL     1       5.775   4.709  18.811  0.00  0.00    +0.000 C 
ATOM      5  C   UNL     1       4.647   4.039  19.595  0.00  0.00    +0.000 C 
ATOM      6  C   UNL     1       3.244   4.363  19.047  0.00  0.00    +0.000 C 
ATOM      7  C   UNL     1       3.232   4.021  17.551  0.00  0.00    +0.000 C 
ATOM      8  C   UNL     1       4.353   4.703  16.785  0.00  0.00    +0.000 C 
ENDROOT
BRANCH   1  11
ATOM      9  C   UNL     1       6.248   3.657  12.950  0.00  0.00    +0.000 A 
ATOM     10  C   UNL     1       6.130   3.605  14.340  0.00  0.00    +0.000 A 
ATOM     11  C   UNL     1       6.945   4.385  15.177  0.00  0.00    +0.000 A 
ATOM     12  C   UNL     1       7.815   5.326  14.598  0.00  0.00    +0.000 A 
ATOM     13  C   UNL     1       7.872   5.443  13.215  0.00  0.00    +0.000 A 
ATOM     14  C   UNL     1       7.109   4.598  12.402  0.00  0.00    +0.000 A 
BRANCH   9  16
ATOM     15  C   UNL     1       4.280   3.311  11.648  0.00  0.00    +0.000 C 
ATOM     16  O   UNL     1       5.558   2.856  12.080  0.00  0.00    +0.000 OA
ENDBRANCH   9  16
BRANCH  13  17
ATOM     17  O   UNL     1       8.655   6.387  12.606  0.00  0.00    +0.000 OA
ATOM     18  H   UNL     1       9.378   6.618  13.217  0.00  0.00    +0.000 HD
ENDBRANCH  13  17
BRANCH  14  19
ATOM     19  O   UNL     1       7.209   4.745  11.040  0.00  0.00    +0.000 OA
ATOM     20  H   UNL     1       6.668   5.532  10.831  0.00  0.00    +0.000 HD
ENDBRANCH  14  19
ENDBRANCH   1  11
BRANCH   6  21
ATOM     21  C   UNL     1       2.685   5.750  19.356  0.00  0.00    +0.000 A 
ATOM     22  C   UNL     1       2.013   6.062  20.544  0.00  0.00    +0.000 A 
ATOM     23  C   UNL     1       1.458   7.328  20.750  0.00  0.00    +0.000 A 
ATOM     24  C   UNL     1       1.552   8.306  19.766  0.00  0.00    +0.000 A 
ATOM     25  C   UNL     1       2.202   8.030  18.560  0.00  0.00    +0.000 A 
ATOM     26  C   UNL     1       2.761   6.754  18.370  0.00  0.00    +0.000 A 
BRANCH  25  27
ATOM     27  C   UNL     1       2.262   9.059  17.461  0.00  0.00    +0.000 C 
BRANCH  27  28
ATOM     28  N   UNL     1       1.620  10.309  17.851  0.00  0.00    +0.000 NA
ATOM     29  H   UNL     1       0.773  10.087  18.373  0.00  0.00    +0.000 HD
ATOM     30  H   UNL     1       1.318  10.799  17.012  0.00  0.00    +0.000 HD
ENDBRANCH  27  28
ENDBRANCH  25  27
ENDBRANCH   6  21
TORSDOF 7
ENDMDL
MODEL 4
REMARK VINA RESULT:      -6.7      3.548      8.240
REMARK  Name = 
REMARK  8 active torsions:
REMARK  status: ('A' for Active; 'I' for Inactive)
REMARK    1  A    between atoms: C_1  and  O_2
REMARK    2  A    between atoms: O_2  and  C_3
REMARK    3  A    between atoms: C_5  and  C_6
REMARK    4  A    between atoms: C_11  and  C_12
REMARK    5  A    between atoms: C_16  and  C_17
REMARK    6  A    between atoms: C_17  and  N_18
REMARK    7  A    between atoms: C_23  and  O_24
REMARK    8  A    between atoms: C_25  and  O_26
REMARK                            x       y       z     vdW  Elec       q    Type
REMARK                         _______ _______ _______ _____ _____    ______ ____
ROOT
ATOM      1  C   UNL     1       2.810   6.140  19.609  0.00  0.00    +0.000 C 
ATOM      2  O   UNL     1       2.354   5.308  20.393  0.00  0.00    +0.000 OA
ATOM      3  N   UNL     1       3.914   5.857  18.790  0.00  0.00    +0.000 N 
ATOM      4  C   UNL     1       4.307   4.452  18.674  0.00  0.00    +0.000 C 
ATOM      5  C   UNL     1       5.820   4.270  18.562  0.00  0.00    +0.000 C 
ATOM      6  C   UNL     1       6.463   5.150  17.473  0.00  0.00    +0.000 C 
ATOM      7  C   UNL     1       6.043   6.603  17.732  0.00  0.00    +0.000 C 
ATOM      8  C   UNL     1       4.536   6.767  17.830  0.00  0.00    +0.000 C 
ENDROOT
BRANCH   1  11
ATOM      9  C   UNL     1       0.778   9.219  20.636  0.00  0.00    +0.000 A 
ATOM     10  C   UNL     1       1.437   7.990  20.702  0.00  0.00    +0.000 A 
ATOM     11  C   UNL     1       2.126   7.464  19.596  0.00  0.00    +0.000 A 
ATOM     12  C   UNL     1       2.255   8.249  18.437  0.00  0.00    +0.000 A 
ATOM     13  C   UNL     1       1.676   9.511  18.398  0.00  0.00    +0.000 A 
ATOM     14  C   UNL     1       0.927   9.979  19.483  0.00  0.00    +0.000 A 
BRANCH   9  16
ATOM     15  C   UNL     1       0.336   9.375  22.974  0.00  0.00    +0.000 C 
ATOM     16  O   UNL     1       0.008   9.744  21.638  0.00  0.00    +0.000 OA
ENDBRANCH   9  16
BRANCH  13  17
ATOM     17  O   UNL     1       1.828  10.338  17.317  0.00  0.00    +0.000 OA
ATOM     18  H   UNL     1       2.721  10.197  16.954  0.00  0.00    +0.000 HD
ENDBRANCH  13  17
BRANCH  14  19
ATOM     19  O   UNL     1       0.364  11.229  19.392  0.00  0.00    +0.000 OA
ATOM     20  H   UNL     1      -0.316  11.148  18.696  0.00  0.00    +0.000 HD
ENDBRANCH  14  19
ENDBRANCH   1  11
BRANCH   6  21
ATOM     21  C   UNL     1       6.266   4.712  16.024  0.00  0.00    +0.000 A 
ATOM     22  C   UNL     1       5.321   3.757  15.630  0.00  0.00    +0.000 A 
ATOM     23  C   UNL     1       5.227   3.338  14.300  0.00  0.00    +0.000 A 
ATOM     24  C   UNL     1       6.085   3.857  13.336  0.00  0.00    +0.000 A 
ATOM     25  C   UNL     1       7.051   4.801  13.691  0.00  0.00    +0.000 A 
ATOM     26  C   UNL     1       7.130   5.218  15.032  0.00  0.00    +0.000 A 
BRANCH  25  27
ATOM     27  C   UNL     1       8.026   5.331  12.671  0.00  0.00    +0.000 C 
BRANCH  27  28
ATOM     28  N   UNL     1       9.110   6.082  13.295  0.00  0.00    +0.000 NA
ATOM     29  H   UNL     1       9.738   5.423  13.752  0.00  0.00    +0.000 HD
ATOM     30  H   UNL     1       8.722   6.666  14.032  0.00  0.00    +0.000 HD
ENDBRANCH  27  28
ENDBRANCH  25  27
ENDBRANCH   6  21
TORSDOF 7
ENDMDL
MODEL 5
REMARK VINA RESULT:      -6.7      1.098      1.643
REMARK  Name = 
REMARK  8 active torsions:
REMARK  status: ('A' for Active; 'I' for Inactive)
REMARK    1  A    between atoms: C_1  and  O_2
REMARK    2  A    between atoms: O_2  and  C_3
REMARK    3  A    between atoms: C_5  and  C_6
REMARK    4  A    between atoms: C_11  and  C_12
REMARK    5  A    between atoms: C_16  and  C_17
REMARK    6  A    between atoms: C_17  and  N_18
REMARK    7  A    between atoms: C_23  and  O_24
REMARK    8  A    between atoms: C_25  and  O_26
REMARK                            x       y       z     vdW  Elec       q    Type
REMARK                         _______ _______ _______ _____ _____    ______ ____
ROOT
ATOM      1  C   UNL     1       1.983   6.636  20.065  0.00  0.00    +0.000 C 
ATOM      2  O   UNL     1       1.563   6.080  21.079  0.00  0.00    +0.000 OA
ATOM      3  N   UNL     1       1.621   7.953  19.739  0.00  0.00    +0.000 N 
ATOM      4  C   UNL     1       0.983   8.741  20.793  0.00  0.00    +0.000 C 
ATOM      5  C   UNL     1      -0.085   9.692  20.254  0.00  0.00    +0.000 C 
ATOM      6  C   UNL     1       0.408  10.567  19.086  0.00  0.00    +0.000 C 
ATOM      7  C   UNL     1       0.991   9.635  18.014  0.00  0.00    +0.000 C 
ATOM      8  C   UNL     1       2.058   8.705  18.564  0.00  0.00    +0.000 C 
ENDROOT
BRANCH   1  11
ATOM      9  C   UNL     1       5.099   5.089  18.464  0.00  0.00    +0.000 A 
ATOM     10  C   UNL     1       4.287   5.841  19.316  0.00  0.00    +0.000 A 
ATOM     11  C   UNL     1       2.886   5.821  19.203  0.00  0.00    +0.000 A 
ATOM     12  C   UNL     1       2.288   4.933  18.292  0.00  0.00    +0.000 A 
ATOM     13  C   UNL     1       3.090   4.119  17.504  0.00  0.00    +0.000 A 
ATOM     14  C   UNL     1       4.484   4.215  17.578  0.00  0.00    +0.000 A 
BRANCH   9  16
ATOM     15  C   UNL     1       7.077   6.276  17.855  0.00  0.00    +0.000 C 
ATOM     16  O   UNL     1       6.467   5.136  18.452  0.00  0.00    +0.000 OA
ENDBRANCH   9  16
BRANCH  13  17
ATOM     17  O   UNL     1       2.554   3.193  16.649  0.00  0.00    +0.000 OA
ATOM     18  H   UNL     1       1.587   3.306  16.653  0.00  0.00    +0.000 HD
ENDBRANCH  13  17
BRANCH  14  19
ATOM     19  O   UNL     1       5.234   3.396  16.770  0.00  0.00    +0.000 OA
ATOM     20  H   UNL     1       5.216   3.823  15.892  0.00  0.00    +0.000 HD
ENDBRANCH  14  19
ENDBRANCH   1  11
BRANCH   6  21
ATOM     21  C   UNL     1       1.325  11.736  19.436  0.00  0.00    +0.000 A 
ATOM     22  C   UNL     1       1.479  12.232  20.736  0.00  0.00    +0.000 A 
ATOM     23  C   UNL     1       2.277  13.350  20.994  0.00  0.00    +0.000 A 
ATOM     24  C   UNL     1       2.930  14.004  19.955  0.00  0.00    +0.000 A 
ATOM     25  C   UNL     1       2.792  13.548  18.641  0.00  0.00    +0.000 A 
ATOM     26  C   UNL     1       1.990  12.419  18.397  0.00  0.00    +0.000 A 
BRANCH  25  27
ATOM     27  C   UNL     1       3.445  14.279  17.497  0.00  0.00    +0.000 C 
BRANCH  27  28
ATOM     28  N   UNL     1       4.861  14.524  17.747  0.00  0.00    +0.000 NA
ATOM     29  H   UNL     1       5.247  15.032  16.951  0.00  0.00    +0.000 HD
ATOM     30  H   UNL     1       5.348  13.631  17.779  0.00  0.00    +0.000 HD
ENDBRANCH  27  28
ENDBRANCH  25  27
ENDBRANCH   6  21
TORSDOF 7
ENDMDL
MODEL 6
REMARK VINA RESULT:      -6.6      1.140      1.159
REMARK  Name = 
REMARK  8 active torsions:
REMARK  status: ('A' for Active; 'I' for Inactive)
REMARK    1  A    between atoms: C_1  and  O_2
REMARK    2  A    between atoms: O_2  and  C_3
REMARK    3  A    between atoms: C_5  and  C_6
REMARK    4  A    between atoms: C_11  and  C_12
REMARK    5  A    between atoms: C_16  and  C_17
REMARK    6  A    between atoms: C_17  and  N_18
REMARK    7  A    between atoms: C_23  and  O_24
REMARK    8  A    between atoms: C_25  and  O_26
REMARK                            x       y       z     vdW  Elec       q    Type
REMARK                         _______ _______ _______ _____ _____    ______ ____
ROOT
ATOM      1  C   UNL     1       2.514   6.637  19.654  0.00  0.00    +0.000 C 
ATOM      2  O   UNL     1       2.259   6.079  20.721  0.00  0.00    +0.000 OA
ATOM      3  N   UNL     1       1.969   7.888  19.325  0.00  0.00    +0.000 N 
ATOM      4  C   UNL     1       1.340   8.640  20.410  0.00  0.00    +0.000 C 
ATOM      5  C   UNL     1       0.121   9.437  19.947  0.00  0.00    +0.000 C 
ATOM      6  C   UNL     1       0.397  10.314  18.710  0.00  0.00    +0.000 C 
ATOM      7  C   UNL     1       0.986   9.412  17.617  0.00  0.00    +0.000 C 
ATOM      8  C   UNL     1       2.203   8.636  18.091  0.00  0.00    +0.000 C 
ENDROOT
BRANCH   1  11
ATOM      9  C   UNL     1       5.319   5.779  17.191  0.00  0.00    +0.000 A 
ATOM     10  C   UNL     1       4.510   6.500  18.073  0.00  0.00    +0.000 A 
ATOM     11  C   UNL     1       3.426   5.898  18.735  0.00  0.00    +0.000 A 
ATOM     12  C   UNL     1       3.227   4.513  18.599  0.00  0.00    +0.000 A 
ATOM     13  C   UNL     1       4.084   3.776  17.792  0.00  0.00    +0.000 A 
ATOM     14  C   UNL     1       5.106   4.412  17.080  0.00  0.00    +0.000 A 
BRANCH   9  16
ATOM     15  C   UNL     1       7.391   6.960  17.138  0.00  0.00    +0.000 C 
ATOM     16  O   UNL     1       6.326   6.321  16.440  0.00  0.00    +0.000 OA
ENDBRANCH   9  16
BRANCH  13  17
ATOM     17  O   UNL     1       3.971   2.416  17.678  0.00  0.00    +0.000 OA
ATOM     18  H   UNL     1       4.162   2.175  16.754  0.00  0.00    +0.000 HD
ENDBRANCH  13  17
BRANCH  14  19
ATOM     19  O   UNL     1       5.920   3.640  16.286  0.00  0.00    +0.000 OA
ATOM     20  H   UNL     1       5.596   2.727  16.405  0.00  0.00    +0.000 HD
ENDBRANCH  14  19
ENDBRANCH   1  11
BRANCH   6  21
ATOM     21  C   UNL     1       1.195  11.595  18.935  0.00  0.00    +0.000 A 
ATOM     22  C   UNL     1       2.264  11.989  18.121  0.00  0.00    +0.000 A 
ATOM     23  C   UNL     1       3.009  13.137  18.410  0.00  0.00    +0.000 A 
ATOM     24  C   UNL     1       2.707  13.909  19.526  0.00  0.00    +0.000 A 
ATOM     25  C   UNL     1       1.656  13.542  20.371  0.00  0.00    +0.000 A 
ATOM     26  C   UNL     1       0.912  12.389  20.065  0.00  0.00    +0.000 A 
BRANCH  25  27
ATOM     27  C   UNL     1       1.353  14.335  21.617  0.00  0.00    +0.000 C 
BRANCH  27  28
ATOM     28  N   UNL     1       0.276  13.733  22.395  0.00  0.00    +0.000 NA
ATOM     29  H   UNL     1       0.688  13.208  23.164  0.00  0.00    +0.000 HD
ATOM     30  H   UNL     1      -0.210  13.054  21.813  0.00  0.00    +0.000 HD
ENDBRANCH  27  28
ENDBRANCH  25  27
ENDBRANCH   6  21
TORSDOF 7
ENDMDL
MODEL 7
REMARK VINA RESULT:      -6.6      1.136      1.893
REMARK  Name = 
REMARK  8 active torsions:
REMARK  status: ('A' for Active; 'I' for Inactive)
REMARK    1  A    between atoms: C_1  and  O_2
REMARK    2  A    between atoms: O_2  and  C_3
REMARK    3  A    between atoms: C_5  and  C_6
REMARK    4  A    between atoms: C_11  and  C_12
REMARK    5  A    between atoms: C_16  and  C_17
REMARK    6  A    between atoms: C_17  and  N_18
REMARK    7  A    between atoms: C_23  and  O_24
REMARK    8  A    between atoms: C_25  and  O_26
REMARK                            x       y       z     vdW  Elec       q    Type
REMARK                         _______ _______ _______ _____ _____    ______ ____
ROOT
ATOM      1  C   UNL     1       2.341   6.821  19.641  0.00  0.00    +0.000 C 
ATOM      2  O   UNL     1       2.171   6.273  20.729  0.00  0.00    +0.000 OA
ATOM      3  N   UNL     1       1.819   8.095  19.365  0.00  0.00    +0.000 N 
ATOM      4  C   UNL     1       1.334   8.871  20.506  0.00  0.00    +0.000 C 
ATOM      5  C   UNL     1       0.110   9.719  20.165  0.00  0.00    +0.000 C 
ATOM      6  C   UNL     1       0.296  10.585  18.905  0.00  0.00    +0.000 C 
ATOM      7  C   UNL     1       0.734   9.661  17.760  0.00  0.00    +0.000 C 
ATOM      8  C   UNL     1       1.959   8.834  18.112  0.00  0.00    +0.000 C 
ENDROOT
BRANCH   1  11
ATOM      9  C   UNL     1       3.789   3.961  17.546  0.00  0.00    +0.000 A 
ATOM     10  C   UNL     1       3.010   4.655  18.475  0.00  0.00    +0.000 A 
ATOM     11  C   UNL     1       3.124   6.046  18.637  0.00  0.00    +0.000 A 
ATOM     12  C   UNL     1       3.954   6.769  17.762  0.00  0.00    +0.000 A 
ATOM     13  C   UNL     1       4.664   6.093  16.779  0.00  0.00    +0.000 A 
ATOM     14  C   UNL     1       4.595   4.699  16.689  0.00  0.00    +0.000 A 
BRANCH   9  16
ATOM     15  C   UNL     1       3.228   1.828  18.454  0.00  0.00    +0.000 C 
ATOM     16  O   UNL     1       3.802   2.600  17.403  0.00  0.00    +0.000 OA
ENDBRANCH   9  16
BRANCH  13  17
ATOM     17  O   UNL     1       5.435   6.759  15.863  0.00  0.00    +0.000 OA
ATOM     18  H   UNL     1       5.839   7.524  16.310  0.00  0.00    +0.000 HD
ENDBRANCH  13  17
BRANCH  14  19
ATOM     19  O   UNL     1       5.325   4.075  15.707  0.00  0.00    +0.000 OA
ATOM     20  H   UNL     1       6.257   4.270  15.923  0.00  0.00    +0.000 HD
ENDBRANCH  14  19
ENDBRANCH   1  11
BRANCH   6  21
ATOM     21  C   UNL     1       1.166  11.832  19.045  0.00  0.00    +0.000 A 
ATOM     22  C   UNL     1       2.168  12.178  18.130  0.00  0.00    +0.000 A 
ATOM     23  C   UNL     1       2.985  13.293  18.340  0.00  0.00    +0.000 A 
ATOM     24  C   UNL     1       2.825  14.079  19.476  0.00  0.00    +0.000 A 
ATOM     25  C   UNL     1       1.845  13.759  20.420  0.00  0.00    +0.000 A 
ATOM     26  C   UNL     1       1.027  12.638  20.192  0.00  0.00    +0.000 A 
BRANCH  25  27
ATOM     27  C   UNL     1       1.697  14.566  21.684  0.00  0.00    +0.000 C 
BRANCH  27  28
ATOM     28  N   UNL     1       2.969  14.727  22.378  0.00  0.00    +0.000 NA
ATOM     29  H   UNL     1       2.816  15.303  23.204  0.00  0.00    +0.000 HD
ATOM     30  H   UNL     1       3.606  15.248  21.780  0.00  0.00    +0.000 HD
ENDBRANCH  27  28
ENDBRANCH  25  27
ENDBRANCH   6  21
TORSDOF 7
ENDMDL
MODEL 8
REMARK VINA RESULT:      -6.5      3.738      8.543
REMARK  Name = 
REMARK  8 active torsions:
REMARK  status: ('A' for Active; 'I' for Inactive)
REMARK    1  A    between atoms: C_1  and  O_2
REMARK    2  A    between atoms: O_2  and  C_3
REMARK    3  A    between atoms: C_5  and  C_6
REMARK    4  A    between atoms: C_11  and  C_12
REMARK    5  A    between atoms: C_16  and  C_17
REMARK    6  A    between atoms: C_17  and  N_18
REMARK    7  A    between atoms: C_23  and  O_24
REMARK    8  A    between atoms: C_25  and  O_26
REMARK                            x       y       z     vdW  Elec       q    Type
REMARK                         _______ _______ _______ _____ _____    ______ ____
ROOT
ATOM      1  C   UNL     1       2.370   5.601  18.378  0.00  0.00    +0.000 C 
ATOM      2  O   UNL     1       1.470   4.776  18.524  0.00  0.00    +0.000 OA
ATOM      3  N   UNL     1       3.625   5.244  17.859  0.00  0.00    +0.000 N 
ATOM      4  C   UNL     1       3.723   3.934  17.216  0.00  0.00    +0.000 C 
ATOM      5  C   UNL     1       5.075   3.261  17.451  0.00  0.00    +0.000 C 
ATOM      6  C   UNL     1       6.276   4.167  17.121  0.00  0.00    +0.000 C 
ATOM      7  C   UNL     1       6.105   5.478  17.902  0.00  0.00    +0.000 C 
ATOM      8  C   UNL     1       4.761   6.139  17.647  0.00  0.00    +0.000 C 
ENDROOT
BRANCH   1  11
ATOM      9  C   UNL     1       1.447   8.674  20.470  0.00  0.00    +0.000 A 
ATOM     10  C   UNL     1       1.780   7.362  20.126  0.00  0.00    +0.000 A 
ATOM     11  C   UNL     1       2.049   6.996  18.796  0.00  0.00    +0.000 A 
ATOM     12  C   UNL     1       2.101   7.997  17.810  0.00  0.00    +0.000 A 
ATOM     13  C   UNL     1       1.857   9.317  18.164  0.00  0.00    +0.000 A 
ATOM     14  C   UNL     1       1.513   9.645  19.480  0.00  0.00    +0.000 A 
BRANCH   9  16
ATOM     15  C   UNL     1      -0.290   8.923  22.085  0.00  0.00    +0.000 C 
ATOM     16  O   UNL     1       1.079   9.079  21.724  0.00  0.00    +0.000 OA
ENDBRANCH   9  16
BRANCH  13  17
ATOM     17  O   UNL     1       1.959  10.336  17.254  0.00  0.00    +0.000 OA
ATOM     18  H   UNL     1       1.185  10.290  16.664  0.00  0.00    +0.000 HD
ENDBRANCH  13  17
BRANCH  14  19
ATOM     19  O   UNL     1       1.270  10.964  19.777  0.00  0.00    +0.000 OA
ATOM     20  H   UNL     1       0.707  11.288  19.047  0.00  0.00    +0.000 HD
ENDBRANCH  14  19
ENDBRANCH   1  11
BRANCH   6  21
ATOM     21  C   UNL     1       6.598   4.379  15.644  0.00  0.00    +0.000 A 
ATOM     22  C   UNL     1       7.514   5.333  15.184  0.00  0.00    +0.000 A 
ATOM     23  C   UNL     1       7.722   5.536  13.817  0.00  0.00    +0.000 A 
ATOM     24  C   UNL     1       7.009   4.797  12.879  0.00  0.00    +0.000 A 
ATOM     25  C   UNL     1       6.075   3.845  13.297  0.00  0.00    +0.000 A 
ATOM     26  C   UNL     1       5.881   3.647  14.676  0.00  0.00    +0.000 A 
BRANCH  25  27
ATOM     27  C   UNL     1       5.253   3.077  12.295  0.00  0.00    +0.000 C 
BRANCH  27  28
ATOM     28  N   UNL     1       6.021   2.007  11.668  0.00  0.00    +0.000 NA
ATOM     29  H   UNL     1       6.417   1.421  12.402  0.00  0.00    +0.000 HD
ATOM     30  H   UNL     1       6.810   2.416  11.172  0.00  0.00    +0.000 HD
ENDBRANCH  27  28
ENDBRANCH  25  27
ENDBRANCH   6  21
TORSDOF 7
ENDMDL
MODEL 9
REMARK VINA RESULT:      -6.5      4.370      8.948
REMARK  Name = 
REMARK  8 active torsions:
REMARK  status: ('A' for Active; 'I' for Inactive)
REMARK    1  A    between atoms: C_1  and  O_2
REMARK    2  A    between atoms: O_2  and  C_3
REMARK    3  A    between atoms: C_5  and  C_6
REMARK    4  A    between atoms: C_11  and  C_12
REMARK    5  A    between atoms: C_16  and  C_17
REMARK    6  A    between atoms: C_17  and  N_18
REMARK    7  A    between atoms: C_23  and  O_24
REMARK    8  A    between atoms: C_25  and  O_26
REMARK                            x       y       z     vdW  Elec       q    Type
REMARK                         _______ _______ _______ _____ _____    ______ ____
ROOT
ATOM      1  C   UNL     1       5.539   4.192  18.242  0.00  0.00    +0.000 C 
ATOM      2  O   UNL     1       6.495   3.997  18.993  0.00  0.00    +0.000 OA
ATOM      3  N   UNL     1       5.714   4.436  16.871  0.00  0.00    +0.000 N 
ATOM      4  C   UNL     1       7.035   4.147  16.313  0.00  0.00    +0.000 C 
ATOM      5  C   UNL     1       7.440   5.133  15.217  0.00  0.00    +0.000 C 
ATOM      6  C   UNL     1       6.368   5.308  14.125  0.00  0.00    +0.000 C 
ATOM      7  C   UNL     1       5.048   5.676  14.816  0.00  0.00    +0.000 C 
ATOM      8  C   UNL     1       4.655   4.681  15.894  0.00  0.00    +0.000 C 
ENDROOT
BRANCH   1  11
ATOM      9  C   UNL     1       2.342   5.211  20.088  0.00  0.00    +0.000 A 
ATOM     10  C   UNL     1       3.591   5.289  19.467  0.00  0.00    +0.000 A 
ATOM     11  C   UNL     1       4.193   4.162  18.882  0.00  0.00    +0.000 A 
ATOM     12  C   UNL     1       3.469   2.959  18.816  0.00  0.00    +0.000 A 
ATOM     13  C   UNL     1       2.191   2.901  19.354  0.00  0.00    +0.000 A 
ATOM     14  C   UNL     1       1.645   4.013  20.003  0.00  0.00    +0.000 A 
BRANCH   9  16
ATOM     15  C   UNL     1       1.862   7.544  20.202  0.00  0.00    +0.000 C 
ATOM     16  O   UNL     1       1.742   6.240  20.762  0.00  0.00    +0.000 OA
ENDBRANCH   9  16
BRANCH  13  17
ATOM     17  O   UNL     1       1.421   1.771  19.258  0.00  0.00    +0.000 OA
ATOM     18  H   UNL     1       1.705   1.281  18.466  0.00  0.00    +0.000 HD
ENDBRANCH  13  17
BRANCH  14  19
ATOM     19  O   UNL     1       0.381   3.902  20.529  0.00  0.00    +0.000 OA
ATOM     20  H   UNL     1       0.376   3.043  20.994  0.00  0.00    +0.000 HD
ENDBRANCH  14  19
ENDBRANCH   1  11
BRANCH   6  21
ATOM     21  C   UNL     1       6.225   4.179  13.107  0.00  0.00    +0.000 A 
ATOM     22  C   UNL     1       7.305   3.411  12.653  0.00  0.00    +0.000 A 
ATOM     23  C   UNL     1       7.133   2.434  11.668  0.00  0.00    +0.000 A 
ATOM     24  C   UNL     1       5.880   2.211  11.108  0.00  0.00    +0.000 A 
ATOM     25  C   UNL     1       4.780   2.966  11.524  0.00  0.00    +0.000 A 
ATOM     26  C   UNL     1       4.967   3.941  12.520  0.00  0.00    +0.000 A 
BRANCH  25  27
ATOM     27  C   UNL     1       3.428   2.778  10.887  0.00  0.00    +0.000 C 
BRANCH  27  28
ATOM     28  N   UNL     1       3.074   3.899  10.022  0.00  0.00    +0.000 NA
ATOM     29  H   UNL     1       2.993   4.736  10.597  0.00  0.00    +0.000 HD
ATOM     30  H   UNL     1       2.151   3.731   9.629  0.00  0.00    +0.000 HD
ENDBRANCH  27  28
ENDBRANCH  25  27
ENDBRANCH   6  21
TORSDOF 7
ENDMDL
