MODEL 1
REMARK VINA RESULT:      -6.4      0.000      0.000
REMARK  Name = 
REMARK  9 active torsions:
REMARK  status: ('A' for Active; 'I' for Inactive)
REMARK    1  A    between atoms: C_2  and  C_19
REMARK    2  A    between atoms: N_3  and  C_4
REMARK    3  A    between atoms: C_4  and  C_5
REMARK    4  A    between atoms: C_5  and  C_6
REMARK    5  A    between atoms: C_6  and  C_7
REMARK    6  A    between atoms: C_7  and  C_8
REMARK    7  A    between atoms: C_8  and  C_9
REMARK    8  A    between atoms: C_9  and  N_10
REMARK    9  A    between atoms: C_11  and  C_13
REMARK                            x       y       z     vdW  Elec       q    Type
REMARK                         _______ _______ _______ _____ _____    ______ ____
ROOT
ATOM      1  C   UNL     1       2.258   2.619  20.525  0.00  0.00    +0.000 C 
ENDROOT
BRANCH   1   2
ATOM      2  C   UNL     1       2.115   2.261  19.044  0.00  0.00    +0.000 C 
BRANCH   2   3
ATOM      3  C   UNL     1       3.448   1.796  18.458  0.00  0.00    +0.000 C 
BRANCH   3   6
ATOM      4  O   UNL     1       3.855   3.864  16.612  0.00  0.00    +0.000 OA
ATOM      5  C   UNL     1       4.590   3.816  17.598  0.00  0.00    +0.000 C 
ATOM      6  N   UNL     1       4.462   2.826  18.547  0.00  0.00    +0.000 N 
ATOM      7  H   UNL     1       5.058   2.864  19.365  0.00  0.00    +0.000 HD
BRANCH   5   8
ATOM      8  C   UNL     1       5.642   4.799  17.829  0.00  0.00    +0.000 A 
ATOM      9  C   UNL     1       6.773   4.625  18.610  0.00  0.00    +0.000 A 
ATOM     10  C   UNL     1       7.613   5.778  18.632  0.00  0.00    +0.000 A 
ATOM     11  C   UNL     1       7.080   6.787  17.874  0.00  0.00    +0.000 A 
ATOM     12 BR   UNL     1       7.886   8.465  17.673  0.00  0.00    +0.000 Br
ATOM     13  S   UNL     1       5.614   6.369  17.134  0.00  0.00    +0.000 S 
ENDBRANCH   5   8
ENDBRANCH   3   6
ENDBRANCH   2   3
ENDBRANCH   1   2
BRANCH   1  14
ATOM     14  C   UNL     1       1.694   4.009  20.822  0.00  0.00    +0.000 C 
BRANCH  14  15
ATOM     15  C   UNL     1       2.765   5.099  20.717  0.00  0.00    +0.000 C 
BRANCH  15  16
ATOM     16  C   UNL     1       2.419   6.089  19.604  0.00  0.00    +0.000 C 
BRANCH  16  17
ATOM     17  N   UNL     1       1.729   7.256  20.100  0.00  0.00    +0.000 N 
ATOM     18  C   UNL     1       1.706   8.460  19.429  0.00  0.00    +0.000 C 
ATOM     19  O   UNL     1       2.280   8.615  18.354  0.00  0.00    +0.000 OA
ATOM     20  H   UNL     1       1.215   7.188  20.969  0.00  0.00    +0.000 HD
BRANCH  18  21
ATOM     21  C   UNL     1       0.949   9.525  20.081  0.00  0.00    +0.000 A 
ATOM     22  C   UNL     1       0.816  10.837  19.656  0.00  0.00    +0.000 A 
ATOM     23  C   UNL     1       0.006  11.622  20.534  0.00  0.00    +0.000 A 
ATOM     24  C   UNL     1      -0.438  10.872  21.592  0.00  0.00    +0.000 A 
ATOM     25 BR   UNL     1      -1.518  11.549  22.965  0.00  0.00    +0.000 Br
ATOM     26  S   UNL     1       0.084   9.265  21.544  0.00  0.00    +0.000 S 
ENDBRANCH  18  21
ENDBRANCH  16  17
ENDBRANCH  15  16
ENDBRANCH  14  15
ENDBRANCH   1  14
TORSDOF 9
ENDMDL
MODEL 2
REMARK VINA RESULT:      -6.4      5.591      8.177
REMARK  Name = 
REMARK  9 active torsions:
REMARK  status: ('A' for Active; 'I' for Inactive)
REMARK    1  A    between atoms: C_2  and  C_19
REMARK    2  A    between atoms: N_3  and  C_4
REMARK    3  A    between atoms: C_4  and  C_5
REMARK    4  A    between atoms: C_5  and  C_6
REMARK    5  A    between atoms: C_6  and  C_7
REMARK    6  A    between atoms: C_7  and  C_8
REMARK    7  A    between atoms: C_8  and  C_9
REMARK    8  A    between atoms: C_9  and  N_10
REMARK    9  A    between atoms: C_11  and  C_13
REMARK                            x       y       z     vdW  Elec       q    Type
REMARK                         _______ _______ _______ _____ _____    ______ ____
ROOT
ATOM      1  C   UNL     1       6.822   6.257  17.691  0.00  0.00    +0.000 C 
ENDROOT
BRANCH   1   2
ATOM      2  C   UNL     1       6.905   6.091  16.172  0.00  0.00    +0.000 C 
BRANCH   2   3
ATOM      3  C   UNL     1       5.524   5.835  15.569  0.00  0.00    +0.000 C 
BRANCH   3   6
ATOM      4  O   UNL     1       4.915   3.226  16.388  0.00  0.00    +0.000 OA
ATOM      5  C   UNL     1       4.321   4.156  16.933  0.00  0.00    +0.000 C 
ATOM      6  N   UNL     1       4.556   5.467  16.580  0.00  0.00    +0.000 N 
ATOM      7  H   UNL     1       4.078   6.196  17.096  0.00  0.00    +0.000 HD
BRANCH   5   8
ATOM      8  C   UNL     1       3.334   3.936  17.982  0.00  0.00    +0.000 A 
ATOM      9  C   UNL     1       2.025   4.391  17.989  0.00  0.00    +0.000 A 
ATOM     10  C   UNL     1       1.311   4.006  19.162  0.00  0.00    +0.000 A 
ATOM     11  C   UNL     1       2.111   3.283  20.007  0.00  0.00    +0.000 A 
ATOM     12 BR   UNL     1       1.534   2.616  21.659  0.00  0.00    +0.000 Br
ATOM     13  S   UNL     1       3.680   3.048  19.411  0.00  0.00    +0.000 S 
ENDBRANCH   5   8
ENDBRANCH   3   6
ENDBRANCH   2   3
ENDBRANCH   1   2
BRANCH   1  14
ATOM     14  C   UNL     1       8.032   7.014  18.239  0.00  0.00    +0.000 C 
BRANCH  14  15
ATOM     15  C   UNL     1       8.018   8.491  17.833  0.00  0.00    +0.000 C 
BRANCH  15  16
ATOM     16  C   UNL     1       8.762   9.341  18.863  0.00  0.00    +0.000 C 
BRANCH  16  17
ATOM     17  N   UNL     1       9.277  10.566  18.298  0.00  0.00    +0.000 N 
ATOM     18  C   UNL     1       9.892  11.544  19.051  0.00  0.00    +0.000 C 
ATOM     19  O   UNL     1      10.040  11.430  20.266  0.00  0.00    +0.000 OA
ATOM     20  H   UNL     1       9.209  10.711  17.299  0.00  0.00    +0.000 HD
BRANCH  18  21
ATOM     21  C   UNL     1      10.357  12.709  18.305  0.00  0.00    +0.000 A 
ATOM     22  C   UNL     1      11.200  12.718  17.206  0.00  0.00    +0.000 A 
ATOM     23  C   UNL     1      11.460  14.036  16.719  0.00  0.00    +0.000 A 
ATOM     24  C   UNL     1      10.804  14.974  17.473  0.00  0.00    +0.000 A 
ATOM     25 BR   UNL     1      10.903  16.818  17.155  0.00  0.00    +0.000 Br
ATOM     26  S   UNL     1       9.890  14.309  18.730  0.00  0.00    +0.000 S 
ENDBRANCH  18  21
ENDBRANCH  16  17
ENDBRANCH  15  16
ENDBRANCH  14  15
ENDBRANCH   1  14
TORSDOF 9
ENDMDL
MODEL 3
REMARK VINA RESULT:      -6.2      1.825      1.986
REMARK  Name = 
REMARK  9 active torsions:
REMARK  status: ('A' for Active; 'I' for Inactive)
REMARK    1  A    between atoms: C_2  and  C_19
REMARK    2  A    between atoms: N_3  and  C_4
REMARK    3  A    between atoms: C_4  and  C_5
REMARK    4  A    between atoms: C_5  and  C_6
REMARK    5  A    between atoms: C_6  and  C_7
REMARK    6  A    between atoms: C_7  and  C_8
REMARK    7  A    between atoms: C_8  and  C_9
REMARK    8  A    between atoms: C_9  and  N_10
REMARK    9  A    between atoms: C_11  and  C_13
REMARK                            x       y       z     vdW  Elec       q    Type
REMARK                         _______ _______ _______ _____ _____    ______ ____
ROOT
ATOM      1  C   UNL     1       1.910   2.983  20.398  0.00  0.00    +0.000 C 
ENDROOT
BRANCH   1   2
ATOM      2  C   UNL     1       1.711   2.240  19.075  0.00  0.00    +0.000 C 
BRANCH   2   3
ATOM      3  C   UNL     1       3.052   1.933  18.409  0.00  0.00    +0.000 C 
BRANCH   3   6
ATOM      4  O   UNL     1       5.229   3.120  19.713  0.00  0.00    +0.000 OA
ATOM      5  C   UNL     1       4.808   3.655  18.689  0.00  0.00    +0.000 C 
ATOM      6  N   UNL     1       3.735   3.140  17.994  0.00  0.00    +0.000 N 
ATOM      7  H   UNL     1       3.463   3.590  17.128  0.00  0.00    +0.000 HD
BRANCH   5   8
ATOM      8  C   UNL     1       5.411   4.864  18.141  0.00  0.00    +0.000 A 
ATOM      9  C   UNL     1       5.023   5.528  16.989  0.00  0.00    +0.000 A 
ATOM     10  C   UNL     1       5.814   6.685  16.723  0.00  0.00    +0.000 A 
ATOM     11  C   UNL     1       6.780   6.848  17.681  0.00  0.00    +0.000 A 
ATOM     12 BR   UNL     1       8.025   8.247  17.665  0.00  0.00    +0.000 Br
ATOM     13  S   UNL     1       6.740   5.657  18.886  0.00  0.00    +0.000 S 
ENDBRANCH   5   8
ENDBRANCH   3   6
ENDBRANCH   2   3
ENDBRANCH   1   2
BRANCH   1  14
ATOM     14  C   UNL     1       1.147   4.309  20.417  0.00  0.00    +0.000 C 
BRANCH  14  15
ATOM     15  C   UNL     1       1.620   5.260  19.313  0.00  0.00    +0.000 C 
BRANCH  15  16
ATOM     16  C   UNL     1       2.494   6.370  19.896  0.00  0.00    +0.000 C 
BRANCH  16  17
ATOM     17  N   UNL     1       1.834   7.654  19.886  0.00  0.00    +0.000 N 
ATOM     18  C   UNL     1       1.821   8.486  18.786  0.00  0.00    +0.000 C 
ATOM     19  O   UNL     1       2.380   8.181  17.735  0.00  0.00    +0.000 OA
ATOM     20  H   UNL     1       1.334   7.955  20.712  0.00  0.00    +0.000 HD
BRANCH  18  21
ATOM     21  C   UNL     1       1.095   9.741  18.959  0.00  0.00    +0.000 A 
ATOM     22  C   UNL     1      -0.190   9.904  19.447  0.00  0.00    +0.000 A 
ATOM     23  C   UNL     1      -0.600  11.273  19.480  0.00  0.00    +0.000 A 
ATOM     24  C   UNL     1       0.393  12.092  19.009  0.00  0.00    +0.000 A 
ATOM     25 BR   UNL     1       0.233  13.954  18.884  0.00  0.00    +0.000 Br
ATOM     26  S   UNL     1       1.790  11.259  18.545  0.00  0.00    +0.000 S 
ENDBRANCH  18  21
ENDBRANCH  16  17
ENDBRANCH  15  16
ENDBRANCH  14  15
ENDBRANCH   1  14
TORSDOF 9
ENDMDL
MODEL 4
REMARK VINA RESULT:      -6.2      1.803      7.428
REMARK  Name = 
REMARK  9 active torsions:
REMARK  status: ('A' for Active; 'I' for Inactive)
REMARK    1  A    between atoms: C_2  and  C_19
REMARK    2  A    between atoms: N_3  and  C_4
REMARK    3  A    between atoms: C_4  and  C_5
REMARK    4  A    between atoms: C_5  and  C_6
REMARK    5  A    between atoms: C_6  and  C_7
REMARK    6  A    between atoms: C_7  and  C_8
REMARK    7  A    between atoms: C_8  and  C_9
REMARK    8  A    between atoms: C_9  and  N_10
REMARK    9  A    between atoms: C_11  and  C_13
REMARK                            x       y       z     vdW  Elec       q    Type
REMARK                         _______ _______ _______ _____ _____    ______ ____
ROOT
ATOM      1  C   UNL     1       1.289   5.452  20.538  0.00  0.00    +0.000 C 
ENDROOT
BRANCH   1   2
ATOM      2  C   UNL     1       2.589   6.224  20.300  0.00  0.00    +0.000 C 
BRANCH   2   3
ATOM      3  C   UNL     1       2.494   7.090  19.044  0.00  0.00    +0.000 C 
BRANCH   3   6
ATOM      4  O   UNL     1       2.166   9.237  17.275  0.00  0.00    +0.000 OA
ATOM      5  C   UNL     1       1.503   9.236  18.311  0.00  0.00    +0.000 C 
ATOM      6  N   UNL     1       1.613   8.222  19.238  0.00  0.00    +0.000 N 
ATOM      7  H   UNL     1       1.006   8.245  20.049  0.00  0.00    +0.000 HD
BRANCH   5   8
ATOM      8  C   UNL     1       0.560  10.301  18.629  0.00  0.00    +0.000 A 
ATOM      9  C   UNL     1      -0.779  10.347  18.276  0.00  0.00    +0.000 A 
ATOM     10  C   UNL     1      -1.435  11.526  18.740  0.00  0.00    +0.000 A 
ATOM     11  C   UNL     1      -0.562  12.335  19.420  0.00  0.00    +0.000 A 
ATOM     12 BR   UNL     1      -1.049  13.983  20.166  0.00  0.00    +0.000 Br
ATOM     13  S   UNL     1       1.005  11.700  19.521  0.00  0.00    +0.000 S 
ENDBRANCH   5   8
ENDBRANCH   3   6
ENDBRANCH   2   3
ENDBRANCH   1   2
BRANCH   1  14
ATOM     14  C   UNL     1       1.550   3.957  20.723  0.00  0.00    +0.000 C 
BRANCH  14  15
ATOM     15  C   UNL     1       0.605   3.099  19.875  0.00  0.00    +0.000 C 
BRANCH  15  16
ATOM     16  C   UNL     1       1.343   2.513  18.671  0.00  0.00    +0.000 C 
BRANCH  16  17
ATOM     17  N   UNL     1       2.413   3.368  18.211  0.00  0.00    +0.000 N 
ATOM     18  C   UNL     1       3.640   2.888  17.805  0.00  0.00    +0.000 C 
ATOM     19  O   UNL     1       3.901   1.688  17.810  0.00  0.00    +0.000 OA
ATOM     20  H   UNL     1       2.254   4.366  18.159  0.00  0.00    +0.000 HD
BRANCH  18  21
ATOM     21  C   UNL     1       4.594   3.902  17.364  0.00  0.00    +0.000 A 
ATOM     22  C   UNL     1       4.929   4.225  16.060  0.00  0.00    +0.000 A 
ATOM     23  C   UNL     1       5.906   5.265  15.981  0.00  0.00    +0.000 A 
ATOM     24  C   UNL     1       6.275   5.685  17.233  0.00  0.00    +0.000 A 
ATOM     25 BR   UNL     1       7.543   7.028  17.548  0.00  0.00    +0.000 Br
ATOM     26  S   UNL     1       5.473   4.871  18.479  0.00  0.00    +0.000 S 
ENDBRANCH  18  21
ENDBRANCH  16  17
ENDBRANCH  15  16
ENDBRANCH  14  15
ENDBRANCH   1  14
TORSDOF 9
ENDMDL
MODEL 5
REMARK VINA RESULT:      -6.2      0.987      7.017
REMARK  Name = 
REMARK  9 active torsions:
REMARK  status: ('A' for Active; 'I' for Inactive)
REMARK    1  A    between atoms: C_2  and  C_19
REMARK    2  A    between atoms: N_3  and  C_4
REMARK    3  A    between atoms: C_4  and  C_5
REMARK    4  A    between atoms: C_5  and  C_6
REMARK    5  A    between atoms: C_6  and  C_7
REMARK    6  A    between atoms: C_7  and  C_8
REMARK    7  A    between atoms: C_8  and  C_9
REMARK    8  A    between atoms: C_9  and  N_10
REMARK    9  A    between atoms: C_11  and  C_13
REMARK                            x       y       z     vdW  Elec       q    Type
REMARK                         _______ _______ _______ _____ _____    ______ ____
ROOT
ATOM      1  C   UNL     1       1.487   3.414  21.219  0.00  0.00    +0.000 C 
ENDROOT
BRANCH   1   2
ATOM      2  C   UNL     1       1.213   4.628  20.327  0.00  0.00    +0.000 C 
BRANCH   2   3
ATOM      3  C   UNL     1       2.233   5.738  20.578  0.00  0.00    +0.000 C 
BRANCH   3   6
ATOM      4  O   UNL     1       2.181   8.053  19.002  0.00  0.00    +0.000 OA
ATOM      5  C   UNL     1       1.605   8.081  20.089  0.00  0.00    +0.000 C 
ATOM      6  N   UNL     1       1.592   6.988  20.927  0.00  0.00    +0.000 N 
ATOM      7  H   UNL     1       1.058   7.048  21.786  0.00  0.00    +0.000 HD
BRANCH   5   8
ATOM      8  C   UNL     1       0.899   9.266  20.561  0.00  0.00    +0.000 A 
ATOM      9  C   UNL     1       0.864  10.505  19.942  0.00  0.00    +0.000 A 
ATOM     10  C   UNL     1       0.081  11.459  20.657  0.00  0.00    +0.000 A 
ATOM     11  C   UNL     1      -0.439  10.909  21.798  0.00  0.00    +0.000 A 
ATOM     12 BR   UNL     1      -1.509  11.858  23.008  0.00  0.00    +0.000 Br
ATOM     13  S   UNL     1      -0.021   9.281  22.012  0.00  0.00    +0.000 S 
ENDBRANCH   5   8
ENDBRANCH   3   6
ENDBRANCH   2   3
ENDBRANCH   1   2
BRANCH   1  14
ATOM     14  C   UNL     1       1.868   2.185  20.393  0.00  0.00    +0.000 C 
BRANCH  14  15
ATOM     15  C   UNL     1       3.370   1.893  20.455  0.00  0.00    +0.000 C 
BRANCH  15  16
ATOM     16  C   UNL     1       3.945   1.722  19.049  0.00  0.00    +0.000 C 
BRANCH  16  17
ATOM     17  N   UNL     1       4.621   2.910  18.583  0.00  0.00    +0.000 N 
ATOM     18  C   UNL     1       4.035   3.829  17.738  0.00  0.00    +0.000 C 
ATOM     19  O   UNL     1       2.886   3.690  17.325  0.00  0.00    +0.000 OA
ATOM     20  H   UNL     1       5.562   3.097  18.905  0.00  0.00    +0.000 HD
BRANCH  18  21
ATOM     21  C   UNL     1       4.869   4.973  17.381  0.00  0.00    +0.000 A 
ATOM     22  C   UNL     1       4.874   5.662  16.180  0.00  0.00    +0.000 A 
ATOM     23  C   UNL     1       5.822   6.731  16.160  0.00  0.00    +0.000 A 
ATOM     24  C   UNL     1       6.501   6.806  17.349  0.00  0.00    +0.000 A 
ATOM     25 BR   UNL     1       7.834   8.071  17.708  0.00  0.00    +0.000 Br
ATOM     26  S   UNL     1       6.019   5.637  18.473  0.00  0.00    +0.000 S 
ENDBRANCH  18  21
ENDBRANCH  16  17
ENDBRANCH  15  16
ENDBRANCH  14  15
ENDBRANCH   1  14
TORSDOF 9
ENDMDL
MODEL 6
REMARK VINA RESULT:      -6.2      1.721      6.440
REMARK  Name = 
REMARK  9 active torsions:
REMARK  status: ('A' for Active; 'I' for Inactive)
REMARK    1  A    between atoms: C_2  and  C_19
REMARK    2  A    between atoms: N_3  and  C_4
REMARK    3  A    between atoms: C_4  and  C_5
REMARK    4  A    between atoms: C_5  and  C_6
REMARK    5  A    between atoms: C_6  and  C_7
REMARK    6  A    between atoms: C_7  and  C_8
REMARK    7  A    between atoms: C_8  and  C_9
REMARK    8  A    between atoms: C_9  and  N_10
REMARK    9  A    between atoms: C_11  and  C_13
REMARK                            x       y       z     vdW  Elec       q    Type
REMARK                         _______ _______ _______ _____ _____    ______ ____
ROOT
ATOM      1  C   UNL     1       0.728   3.031  19.774  0.00  0.00    +0.000 C 
ENDROOT
BRANCH   1   2
ATOM      2  C   UNL     1       1.281   3.187  21.192  0.00  0.00    +0.000 C 
BRANCH   2   3
ATOM      3  C   UNL     1       2.399   4.228  21.236  0.00  0.00    +0.000 C 
BRANCH   3   6
ATOM      4  O   UNL     1       3.749   5.870  19.411  0.00  0.00    +0.000 OA
ATOM      5  C   UNL     1       2.671   6.264  19.854  0.00  0.00    +0.000 C 
ATOM      6  N   UNL     1       1.949   5.520  20.763  0.00  0.00    +0.000 N 
ATOM      7  H   UNL     1       1.044   5.867  21.055  0.00  0.00    +0.000 HD
BRANCH   5   8
ATOM      8  C   UNL     1       2.085   7.536  19.451  0.00  0.00    +0.000 A 
ATOM      9  C   UNL     1       2.082   8.072  18.173  0.00  0.00    +0.000 A 
ATOM     10  C   UNL     1       1.424   9.336  18.104  0.00  0.00    +0.000 A 
ATOM     11  C   UNL     1       0.963   9.715  19.337  0.00  0.00    +0.000 A 
ATOM     12 BR   UNL     1       0.060  11.326  19.652  0.00  0.00    +0.000 Br
ATOM     13  S   UNL     1       1.290   8.583  20.555  0.00  0.00    +0.000 S 
ENDBRANCH   5   8
ENDBRANCH   3   6
ENDBRANCH   2   3
ENDBRANCH   1   2
BRANCH   1  14
ATOM     14  C   UNL     1       1.533   2.011  18.967  0.00  0.00    +0.000 C 
BRANCH  14  15
ATOM     15  C   UNL     1       2.399   2.680  17.895  0.00  0.00    +0.000 C 
BRANCH  15  16
ATOM     16  C   UNL     1       3.879   2.386  18.135  0.00  0.00    +0.000 C 
BRANCH  16  17
ATOM     17  N   UNL     1       4.697   3.573  18.046  0.00  0.00    +0.000 N 
ATOM     18  C   UNL     1       5.496   3.857  16.959  0.00  0.00    +0.000 C 
ATOM     19  O   UNL     1       5.562   3.107  15.988  0.00  0.00    +0.000 OA
ATOM     20  H   UNL     1       4.670   4.245  18.802  0.00  0.00    +0.000 HD
BRANCH  18  21
ATOM     21  C   UNL     1       6.246   5.108  17.042  0.00  0.00    +0.000 A 
ATOM     22  C   UNL     1       6.552   5.971  16.003  0.00  0.00    +0.000 A 
ATOM     23  C   UNL     1       7.308   7.106  16.432  0.00  0.00    +0.000 A 
ATOM     24  C   UNL     1       7.546   7.054  17.781  0.00  0.00    +0.000 A 
ATOM     25 BR   UNL     1       8.513   8.356  18.717  0.00  0.00    +0.000 Br
ATOM     26  S   UNL     1       6.881   5.692  18.530  0.00  0.00    +0.000 S 
ENDBRANCH  18  21
ENDBRANCH  16  17
ENDBRANCH  15  16
ENDBRANCH  14  15
ENDBRANCH   1  14
TORSDOF 9
ENDMDL
MODEL 7
REMARK VINA RESULT:      -6.2      1.270      7.270
REMARK  Name = 
REMARK  9 active torsions:
REMARK  status: ('A' for Active; 'I' for Inactive)
REMARK    1  A    between atoms: C_2  and  C_19
REMARK    2  A    between atoms: N_3  and  C_4
REMARK    3  A    between atoms: C_4  and  C_5
REMARK    4  A    between atoms: C_5  and  C_6
REMARK    5  A    between atoms: C_6  and  C_7
REMARK    6  A    between atoms: C_7  and  C_8
REMARK    7  A    between atoms: C_8  and  C_9
REMARK    8  A    between atoms: C_9  and  N_10
REMARK    9  A    between atoms: C_11  and  C_13
REMARK                            x       y       z     vdW  Elec       q    Type
REMARK                         _______ _______ _______ _____ _____    ______ ____
ROOT
ATOM      1  C   UNL     1       1.780   4.443  17.919  0.00  0.00    +0.000 C 
ENDROOT
BRANCH   1   2
ATOM      2  C   UNL     1       2.315   5.870  17.777  0.00  0.00    +0.000 C 
BRANCH   2   3
ATOM      3  C   UNL     1       2.816   6.407  19.117  0.00  0.00    +0.000 C 
BRANCH   3   6
ATOM      4  O   UNL     1       1.173   6.821  21.348  0.00  0.00    +0.000 OA
ATOM      5  C   UNL     1       1.379   7.774  20.598  0.00  0.00    +0.000 C 
ATOM      6  N   UNL     1       2.167   7.651  19.474  0.00  0.00    +0.000 N 
ATOM      7  H   UNL     1       2.346   8.479  18.920  0.00  0.00    +0.000 HD
BRANCH   5   8
ATOM      8  C   UNL     1       0.808   9.092  20.844  0.00  0.00    +0.000 A 
ATOM      9  C   UNL     1       0.784  10.157  19.958  0.00  0.00    +0.000 A 
ATOM     10  C   UNL     1       0.148  11.314  20.499  0.00  0.00    +0.000 A 
ATOM     11  C   UNL     1      -0.276  11.084  21.782  0.00  0.00    +0.000 A 
ATOM     12 BR   UNL     1      -1.141  12.372  22.830  0.00  0.00    +0.000 Br
ATOM     13  S   UNL     1       0.058   9.516  22.330  0.00  0.00    +0.000 S 
ENDBRANCH   5   8
ENDBRANCH   3   6
ENDBRANCH   2   3
ENDBRANCH   1   2
BRANCH   1  14
ATOM     14  C   UNL     1       2.045   3.882  19.317  0.00  0.00    +0.000 C 
BRANCH  14  15
ATOM     15  C   UNL     1       2.695   2.496  19.266  0.00  0.00    +0.000 C 
BRANCH  15  16
ATOM     16  C   UNL     1       3.804   2.459  18.215  0.00  0.00    +0.000 C 
BRANCH  16  17
ATOM     17  N   UNL     1       4.773   3.513  18.399  0.00  0.00    +0.000 N 
ATOM     18  C   UNL     1       5.356   4.194  17.351  0.00  0.00    +0.000 C 
ATOM     19  O   UNL     1       5.083   3.938  16.180  0.00  0.00    +0.000 OA
ATOM     20  H   UNL     1       5.024   3.790  19.340  0.00  0.00    +0.000 HD
BRANCH  18  21
ATOM     21  C   UNL     1       6.307   5.235  17.731  0.00  0.00    +0.000 A 
ATOM     22  C   UNL     1       7.359   5.121  18.624  0.00  0.00    +0.000 A 
ATOM     23  C   UNL     1       8.092   6.339  18.771  0.00  0.00    +0.000 A 
ATOM     24  C   UNL     1       7.562   7.328  17.984  0.00  0.00    +0.000 A 
ATOM     25 BR   UNL     1       8.240   9.072  17.908  0.00  0.00    +0.000 Br
ATOM     26  S   UNL     1       6.225   6.824  17.080  0.00  0.00    +0.000 S 
ENDBRANCH  18  21
ENDBRANCH  16  17
ENDBRANCH  15  16
ENDBRANCH  14  15
ENDBRANCH   1  14
TORSDOF 9
ENDMDL
MODEL 8
REMARK VINA RESULT:      -6.1      1.193      1.403
REMARK  Name = 
REMARK  9 active torsions:
REMARK  status: ('A' for Active; 'I' for Inactive)
REMARK    1  A    between atoms: C_2  and  C_19
REMARK    2  A    between atoms: N_3  and  C_4
REMARK    3  A    between atoms: C_4  and  C_5
REMARK    4  A    between atoms: C_5  and  C_6
REMARK    5  A    between atoms: C_6  and  C_7
REMARK    6  A    between atoms: C_7  and  C_8
REMARK    7  A    between atoms: C_8  and  C_9
REMARK    8  A    between atoms: C_9  and  N_10
REMARK    9  A    between atoms: C_11  and  C_13
REMARK                            x       y       z     vdW  Elec       q    Type
REMARK                         _______ _______ _______ _____ _____    ______ ____
ROOT
ATOM      1  C   UNL     1       2.111   2.110  20.587  0.00  0.00    +0.000 C 
ENDROOT
BRANCH   1   2
ATOM      2  C   UNL     1       1.115   2.277  19.438  0.00  0.00    +0.000 C 
BRANCH   2   3
ATOM      3  C   UNL     1       1.731   1.848  18.107  0.00  0.00    +0.000 C 
BRANCH   3   6
ATOM      4  O   UNL     1       1.833   4.534  17.316  0.00  0.00    +0.000 OA
ATOM      5  C   UNL     1       2.896   3.924  17.429  0.00  0.00    +0.000 C 
ATOM      6  N   UNL     1       2.931   2.599  17.804  0.00  0.00    +0.000 N 
ATOM      7  H   UNL     1       3.836   2.160  17.933  0.00  0.00    +0.000 HD
BRANCH   5   8
ATOM      8  C   UNL     1       4.184   4.559  17.177  0.00  0.00    +0.000 A 
ATOM      9  C   UNL     1       5.114   4.181  16.222  0.00  0.00    +0.000 A 
ATOM     10  C   UNL     1       6.277   5.007  16.224  0.00  0.00    +0.000 A 
ATOM     11  C   UNL     1       6.189   5.974  17.190  0.00  0.00    +0.000 A 
ATOM     12 BR   UNL     1       7.532   7.239  17.512  0.00  0.00    +0.000 Br
ATOM     13  S   UNL     1       4.742   5.915  18.071  0.00  0.00    +0.000 S 
ENDBRANCH   5   8
ENDBRANCH   3   6
ENDBRANCH   2   3
ENDBRANCH   1   2
BRANCH   1  14
ATOM     14  C   UNL     1       2.258   3.400  21.394  0.00  0.00    +0.000 C 
BRANCH  14  15
ATOM     15  C   UNL     1       1.427   4.545  20.806  0.00  0.00    +0.000 C 
BRANCH  15  16
ATOM     16  C   UNL     1       2.299   5.776  20.564  0.00  0.00    +0.000 C 
BRANCH  16  17
ATOM     17  N   UNL     1       1.617   7.006  20.890  0.00  0.00    +0.000 N 
ATOM     18  C   UNL     1       1.612   8.108  20.060  0.00  0.00    +0.000 C 
ATOM     19  O   UNL     1       2.197   8.110  18.980  0.00  0.00    +0.000 OA
ATOM     20  H   UNL     1       1.095   7.063  21.754  0.00  0.00    +0.000 HD
BRANCH  18  21
ATOM     21  C   UNL     1       0.861   9.259  20.553  0.00  0.00    +0.000 A 
ATOM     22  C   UNL     1       0.795  10.521  19.985  0.00  0.00    +0.000 A 
ATOM     23  C   UNL     1      -0.030  11.420  20.729  0.00  0.00    +0.000 A 
ATOM     24  C   UNL     1      -0.553  10.802  21.835  0.00  0.00    +0.000 A 
ATOM     25 BR   UNL     1      -1.678  11.654  23.068  0.00  0.00    +0.000 Br
ATOM     26  S   UNL     1      -0.085   9.184  21.987  0.00  0.00    +0.000 S 
ENDBRANCH  18  21
ENDBRANCH  16  17
ENDBRANCH  15  16
ENDBRANCH  14  15
ENDBRANCH   1  14
TORSDOF 9
ENDMDL
MODEL 9
REMARK VINA RESULT:      -6.1      6.002      7.599
REMARK  Name = 
REMARK  9 active torsions:
REMARK  status: ('A' for Active; 'I' for Inactive)
REMARK    1  A    between atoms: C_2  and  C_19
REMARK    2  A    between atoms: N_3  and  C_4
REMARK    3  A    between atoms: C_4  and  C_5
REMARK    4  A    between atoms: C_5  and  C_6
REMARK    5  A    between atoms: C_6  and  C_7
REMARK    6  A    between atoms: C_7  and  C_8
REMARK    7  A    between atoms: C_8  and  C_9
REMARK    8  A    between atoms: C_9  and  N_10
REMARK    9  A    between atoms: C_11  and  C_13
REMARK                            x       y       z     vdW  Elec       q    Type
REMARK                         _______ _______ _______ _____ _____    ______ ____
ROOT
ATOM      1  C   UNL     1       8.143   9.196  17.889  0.00  0.00    +0.000 C 
ENDROOT
BRANCH   1   2
ATOM      2  C   UNL     1       8.132   7.725  18.309  0.00  0.00    +0.000 C 
BRANCH   2   3
ATOM      3  C   UNL     1       7.456   6.855  17.249  0.00  0.00    +0.000 C 
BRANCH   3   6
ATOM      4  O   UNL     1       6.973   4.377  18.464  0.00  0.00    +0.000 OA
ATOM      5  C   UNL     1       6.018   5.133  18.296  0.00  0.00    +0.000 C 
ATOM      6  N   UNL     1       6.170   6.365  17.697  0.00  0.00    +0.000 N 
ATOM      7  H   UNL     1       5.359   6.969  17.631  0.00  0.00    +0.000 HD
BRANCH   5   8
ATOM      8  C   UNL     1       4.667   4.781  18.716  0.00  0.00    +0.000 A 
ATOM      9  C   UNL     1       3.852   5.514  19.563  0.00  0.00    +0.000 A 
ATOM     10  C   UNL     1       2.582   4.901  19.777  0.00  0.00    +0.000 A 
ATOM     11  C   UNL     1       2.487   3.719  19.091  0.00  0.00    +0.000 A 
ATOM     12 BR   UNL     1       0.975   2.615  19.137  0.00  0.00    +0.000 Br
ATOM     13  S   UNL     1       3.876   3.349  18.193  0.00  0.00    +0.000 S 
ENDBRANCH   5   8
ENDBRANCH   3   6
ENDBRANCH   2   3
ENDBRANCH   1   2
BRANCH   1  14
ATOM     14  C   UNL     1       8.992  10.044  18.838  0.00  0.00    +0.000 C 
BRANCH  14  15
ATOM     15  C   UNL     1       9.771  11.134  18.095  0.00  0.00    +0.000 C 
BRANCH  15  16
ATOM     16  C   UNL     1       9.897  12.389  18.958  0.00  0.00    +0.000 C 
BRANCH  16  17
ATOM     17  N   UNL     1       8.723  13.227  18.884  0.00  0.00    +0.000 N 
ATOM     18  C   UNL     1       8.780  14.605  18.878  0.00  0.00    +0.000 C 
ATOM     19  O   UNL     1       9.847  15.211  18.936  0.00  0.00    +0.000 OA
ATOM     20  H   UNL     1       7.813  12.791  18.810  0.00  0.00    +0.000 HD
BRANCH  18  21
ATOM     21  C   UNL     1       7.490  15.285  18.790  0.00  0.00    +0.000 A 
ATOM     22  C   UNL     1       7.138  16.490  19.373  0.00  0.00    +0.000 A 
ATOM     23  C   UNL     1       5.789  16.868  19.090  0.00  0.00    +0.000 A 
ATOM     24  C   UNL     1       5.172  15.928  18.306  0.00  0.00    +0.000 A 
ATOM     25 BR   UNL     1       3.394  16.060  17.730  0.00  0.00    +0.000 Br
ATOM     26  S   UNL     1       6.173  14.627  17.902  0.00  0.00    +0.000 S 
ENDBRANCH  18  21
ENDBRANCH  16  17
ENDBRANCH  15  16
ENDBRANCH  14  15
ENDBRANCH   1  14
TORSDOF 9
ENDMDL
