MODEL 1
REMARK VINA RESULT:      -8.2      0.000      0.000
REMARK  Name = 
REMARK  4 active torsions:
REMARK  status: ('A' for Active; 'I' for Inactive)
REMARK    1  A    between atoms: C_1  and  C_2
REMARK    2  A    between atoms: C_2  and  C_3
REMARK    3  A    between atoms: N_5  and  C_6
REMARK    4  A    between atoms: N_5  and  C_12
REMARK                            x       y       z     vdW  Elec       q    Type
REMARK                         _______ _______ _______ _____ _____    ______ ____
ROOT
ATOM      1  C   UNL     1       5.000   5.540  16.441  0.00  0.00    +0.000 C 
ATOM      2  C   UNL     1       5.176   6.781  17.311  0.00  0.00    +0.000 C 
ATOM      3  C   UNL     1       3.822   7.445  17.457  0.00  0.00    +0.000 C 
ATOM      4  N   UNL     1       2.979   6.573  18.217  0.00  0.00    +0.000 NA
ATOM      5  C   UNL     1       1.827   7.163  18.867  0.00  0.00    +0.000 C 
ATOM      6  C   UNL     1       1.668   6.556  20.262  0.00  0.00    +0.000 C 
ATOM      7  C   UNL     1       1.922   5.067  20.329  0.00  0.00    +0.000 A 
ATOM      8  C   UNL     1       1.460   4.374  21.452  0.00  0.00    +0.000 A 
ATOM      9  C   UNL     1       1.922   3.095  21.721  0.00  0.00    +0.000 A 
ATOM     10  C   UNL     1       2.878   2.525  20.884  0.00  0.00    +0.000 A 
ATOM     11  C   UNL     1       3.274   3.172  19.704  0.00  0.00    +0.000 A 
ATOM     12  C   UNL     1       2.763   4.436  19.372  0.00  0.00    +0.000 A 
ATOM     13  C   UNL     1       2.913   5.131  18.004  0.00  0.00    +0.000 C 
ATOM     14  C   UNL     1       3.911   4.555  16.943  0.00  0.00    +0.000 C 
ENDROOT
BRANCH   1  17
ATOM     15  C   UNL     1       7.288   4.575  16.977  0.00  0.00    +0.000 C 
ATOM     16  O   UNL     1       8.425   4.187  16.698  0.00  0.00    +0.000 OA
ATOM     17  N   UNL     1       6.307   4.962  16.017  0.00  0.00    +0.000 N 
BRANCH  17  18
ATOM     18  C   UNL     1       6.529   4.696  14.592  0.00  0.00    +0.000 A 
ATOM     19  C   UNL     1       5.800   3.726  13.884  0.00  0.00    +0.000 A 
ATOM     20  C   UNL     1       6.059   3.441  12.536  0.00  0.00    +0.000 A 
ATOM     21  C   UNL     1       7.055   4.134  11.853  0.00  0.00    +0.000 A 
ATOM     22  C   UNL     1       7.756   5.125  12.508  0.00  0.00    +0.000 A 
ATOM     23  C   UNL     1       7.469   5.426  13.852  0.00  0.00    +0.000 A 
ENDBRANCH  17  18
BRANCH  15  25
ATOM     24  C   UNL     1       7.825   5.618  19.245  0.00  0.00    +0.000 C 
ATOM     25  C   UNL     1       6.912   4.690  18.457  0.00  0.00    +0.000 C 
ENDBRANCH  15  25
ENDBRANCH   1  17
TORSDOF 3
ENDMDL
MODEL 2
REMARK VINA RESULT:      -8.0      3.360      7.021
REMARK  Name = 
REMARK  4 active torsions:
REMARK  status: ('A' for Active; 'I' for Inactive)
REMARK    1  A    between atoms: C_1  and  C_2
REMARK    2  A    between atoms: C_2  and  C_3
REMARK    3  A    between atoms: N_5  and  C_6
REMARK    4  A    between atoms: N_5  and  C_12
REMARK                            x       y       z     vdW  Elec       q    Type
REMARK                         _______ _______ _______ _____ _____    ______ ____
ROOT
ATOM      1  C   UNL     1       2.347   7.528  19.605  0.00  0.00    +0.000 C 
ATOM      2  C   UNL     1       1.536   7.475  20.896  0.00  0.00    +0.000 C 
ATOM      3  C   UNL     1       1.558   8.856  21.518  0.00  0.00    +0.000 C 
ATOM      4  N   UNL     1       0.834   9.742  20.659  0.00  0.00    +0.000 NA
ATOM      5  C   UNL     1       0.331  10.969  21.242  0.00  0.00    +0.000 C 
ATOM      6  C   UNL     1      -1.074  11.244  20.704  0.00  0.00    +0.000 C 
ATOM      7  C   UNL     1      -1.249  10.954  19.231  0.00  0.00    +0.000 A 
ATOM      8  C   UNL     1      -2.361  11.502  18.583  0.00  0.00    +0.000 A 
ATOM      9  C   UNL     1      -2.744  11.030  17.338  0.00  0.00    +0.000 A 
ATOM     10  C   UNL     1      -2.037   9.980  16.758  0.00  0.00    +0.000 A 
ATOM     11  C   UNL     1      -0.864   9.491  17.354  0.00  0.00    +0.000 A 
ATOM     12  C   UNL     1      -0.414  10.005  18.580  0.00  0.00    +0.000 A 
ATOM     13  C   UNL     1       0.971   9.744  19.206  0.00  0.00    +0.000 C 
ATOM     14  C   UNL     1       1.897   8.630  18.610  0.00  0.00    +0.000 C 
ENDROOT
BRANCH   1  17
ATOM     15  C   UNL     1       3.426   5.991  17.893  0.00  0.00    +0.000 C 
ATOM     16  O   UNL     1       3.603   4.912  17.323  0.00  0.00    +0.000 OA
ATOM     17  N   UNL     1       2.612   6.169  19.052  0.00  0.00    +0.000 N 
BRANCH  17  18
ATOM     18  C   UNL     1       2.108   5.002  19.782  0.00  0.00    +0.000 A 
ATOM     19  C   UNL     1       2.581   4.648  21.055  0.00  0.00    +0.000 A 
ATOM     20  C   UNL     1       2.132   3.498  21.722  0.00  0.00    +0.000 A 
ATOM     21  C   UNL     1       1.181   2.672  21.128  0.00  0.00    +0.000 A 
ATOM     22  C   UNL     1       0.663   3.019  19.898  0.00  0.00    +0.000 A 
ATOM     23  C   UNL     1       1.096   4.190  19.250  0.00  0.00    +0.000 A 
ENDBRANCH  17  18
BRANCH  15  25
ATOM     24  C   UNL     1       4.982   6.934  16.103  0.00  0.00    +0.000 C 
ATOM     25  C   UNL     1       4.090   7.235  17.298  0.00  0.00    +0.000 C 
ENDBRANCH  15  25
ENDBRANCH   1  17
TORSDOF 3
ENDMDL
MODEL 3
REMARK VINA RESULT:      -7.6      4.108      7.613
REMARK  Name = 
REMARK  4 active torsions:
REMARK  status: ('A' for Active; 'I' for Inactive)
REMARK    1  A    between atoms: C_1  and  C_2
REMARK    2  A    between atoms: C_2  and  C_3
REMARK    3  A    between atoms: N_5  and  C_6
REMARK    4  A    between atoms: N_5  and  C_12
REMARK                            x       y       z     vdW  Elec       q    Type
REMARK                         _______ _______ _______ _____ _____    ______ ____
ROOT
ATOM      1  C   UNL     1       1.391   9.030  19.531  0.00  0.00    +0.000 C 
ATOM      2  C   UNL     1       1.446   8.852  18.016  0.00  0.00    +0.000 C 
ATOM      3  C   UNL     1       2.841   8.387  17.652  0.00  0.00    +0.000 C 
ATOM      4  N   UNL     1       3.027   7.074  18.189  0.00  0.00    +0.000 NA
ATOM      5  C   UNL     1       4.067   6.255  17.600  0.00  0.00    +0.000 C 
ATOM      6  C   UNL     1       3.563   4.818  17.466  0.00  0.00    +0.000 C 
ATOM      7  C   UNL     1       2.760   4.323  18.647  0.00  0.00    +0.000 A 
ATOM      8  C   UNL     1       2.571   2.944  18.779  0.00  0.00    +0.000 A 
ATOM      9  C   UNL     1       1.604   2.452  19.642  0.00  0.00    +0.000 A 
ATOM     10  C   UNL     1       0.799   3.345  20.344  0.00  0.00    +0.000 A 
ATOM     11  C   UNL     1       1.045   4.726  20.293  0.00  0.00    +0.000 A 
ATOM     12  C   UNL     1       2.068   5.242  19.483  0.00  0.00    +0.000 A 
ATOM     13  C   UNL     1       2.605   6.687  19.531  0.00  0.00    +0.000 C 
ATOM     14  C   UNL     1       1.826   7.780  20.339  0.00  0.00    +0.000 C 
ENDROOT
BRANCH   1  17
ATOM     15  C   UNL     1      -0.120   9.956  21.352  0.00  0.00    +0.000 C 
ATOM     16  O   UNL     1      -1.167  10.438  21.790  0.00  0.00    +0.000 OA
ATOM     17  N   UNL     1       0.153   9.735  19.968  0.00  0.00    +0.000 N 
BRANCH  17  18
ATOM     18  C   UNL     1      -0.736  10.297  18.947  0.00  0.00    +0.000 A 
ATOM     19  C   UNL     1      -1.726   9.534  18.307  0.00  0.00    +0.000 A 
ATOM     20  C   UNL     1      -2.534  10.066  17.292  0.00  0.00    +0.000 A 
ATOM     21  C   UNL     1      -2.378  11.392  16.896  0.00  0.00    +0.000 A 
ATOM     22  C   UNL     1      -1.445  12.180  17.538  0.00  0.00    +0.000 A 
ATOM     23  C   UNL     1      -0.660  11.647  18.576  0.00  0.00    +0.000 A 
ENDBRANCH  17  18
BRANCH  15  25
ATOM     24  C   UNL     1       0.410   9.326  23.769  0.00  0.00    +0.000 C 
ATOM     25  C   UNL     1       0.949   9.526  22.359  0.00  0.00    +0.000 C 
ENDBRANCH  15  25
ENDBRANCH   1  17
TORSDOF 3
ENDMDL
MODEL 4
REMARK VINA RESULT:      -7.3      1.478      3.636
REMARK  Name = 
REMARK  4 active torsions:
REMARK  status: ('A' for Active; 'I' for Inactive)
REMARK    1  A    between atoms: C_1  and  C_2
REMARK    2  A    between atoms: C_2  and  C_3
REMARK    3  A    between atoms: N_5  and  C_6
REMARK    4  A    between atoms: N_5  and  C_12
REMARK                            x       y       z     vdW  Elec       q    Type
REMARK                         _______ _______ _______ _____ _____    ______ ____
ROOT
ATOM      1  C   UNL     1       4.638   5.346  16.660  0.00  0.00    +0.000 C 
ATOM      2  C   UNL     1       4.110   6.482  17.531  0.00  0.00    +0.000 C 
ATOM      3  C   UNL     1       2.611   6.309  17.664  0.00  0.00    +0.000 C 
ATOM      4  N   UNL     1       2.366   5.117  18.417  0.00  0.00    +0.000 NA
ATOM      5  C   UNL     1       1.072   4.988  19.057  0.00  0.00    +0.000 C 
ATOM      6  C   UNL     1       1.256   4.386  20.450  0.00  0.00    +0.000 C 
ATOM      7  C   UNL     1       2.273   3.270  20.520  0.00  0.00    +0.000 A 
ATOM      8  C   UNL     1       2.250   2.432  21.640  0.00  0.00    +0.000 A 
ATOM      9  C   UNL     1       3.327   1.604  21.914  0.00  0.00    +0.000 A 
ATOM     10  C   UNL     1       4.446   1.644  21.087  0.00  0.00    +0.000 A 
ATOM     11  C   UNL     1       4.440   2.407  19.909  0.00  0.00    +0.000 A 
ATOM     12  C   UNL     1       3.330   3.197  19.572  0.00  0.00    +0.000 A 
ATOM     13  C   UNL     1       3.091   3.868  18.204  0.00  0.00    +0.000 C 
ATOM     14  C   UNL     1       4.251   3.927  17.153  0.00  0.00    +0.000 C 
ENDROOT
BRANCH   1  17
ATOM     15  C   UNL     1       6.528   5.128  14.975  0.00  0.00    +0.000 C 
ATOM     16  O   UNL     1       7.704   5.185  14.610  0.00  0.00    +0.000 OA
ATOM     17  N   UNL     1       6.054   5.568  16.248  0.00  0.00    +0.000 N 
BRANCH  17  18
ATOM     18  C   UNL     1       6.931   6.343  17.130  0.00  0.00    +0.000 A 
ATOM     19  C   UNL     1       7.523   5.793  18.278  0.00  0.00    +0.000 A 
ATOM     20  C   UNL     1       8.316   6.559  19.144  0.00  0.00    +0.000 A 
ATOM     21  C   UNL     1       8.548   7.905  18.874  0.00  0.00    +0.000 A 
ATOM     22  C   UNL     1       8.019   8.463  17.730  0.00  0.00    +0.000 A 
ATOM     23  C   UNL     1       7.249   7.680  16.849  0.00  0.00    +0.000 A 
ENDBRANCH  17  18
BRANCH  15  25
ATOM     24  C   UNL     1       6.136   3.610  12.961  0.00  0.00    +0.000 C 
ATOM     25  C   UNL     1       5.508   4.506  14.018  0.00  0.00    +0.000 C 
ENDBRANCH  15  25
ENDBRANCH   1  17
TORSDOF 3
ENDMDL
MODEL 5
REMARK VINA RESULT:      -7.3     10.152     13.396
REMARK  Name = 
REMARK  4 active torsions:
REMARK  status: ('A' for Active; 'I' for Inactive)
REMARK    1  A    between atoms: C_1  and  C_2
REMARK    2  A    between atoms: C_2  and  C_3
REMARK    3  A    between atoms: N_5  and  C_6
REMARK    4  A    between atoms: N_5  and  C_12
REMARK                            x       y       z     vdW  Elec       q    Type
REMARK                         _______ _______ _______ _____ _____    ______ ____
ROOT
ATOM      1  C   UNL     1      -3.726  13.833  23.457  0.00  0.00    +0.000 C 
ATOM      2  C   UNL     1      -4.280  12.604  24.171  0.00  0.00    +0.000 C 
ATOM      3  C   UNL     1      -5.790  12.720  24.195  0.00  0.00    +0.000 C 
ATOM      4  N   UNL     1      -6.266  12.616  22.849  0.00  0.00    +0.000 NA
ATOM      5  C   UNL     1      -7.653  12.241  22.661  0.00  0.00    +0.000 C 
ATOM      6  C   UNL     1      -7.756  11.259  21.493  0.00  0.00    +0.000 C 
ATOM      7  C   UNL     1      -6.874  11.595  20.313  0.00  0.00    +0.000 A 
ATOM      8  C   UNL     1      -7.159  10.983  19.088  0.00  0.00    +0.000 A 
ATOM      9  C   UNL     1      -6.224  11.002  18.065  0.00  0.00    +0.000 A 
ATOM     10  C   UNL     1      -4.986  11.601  18.284  0.00  0.00    +0.000 A 
ATOM     11  C   UNL     1      -4.728  12.301  19.472  0.00  0.00    +0.000 A 
ATOM     12  C   UNL     1      -5.689  12.359  20.493  0.00  0.00    +0.000 A 
ATOM     13  C   UNL     1      -5.637  13.293  21.720  0.00  0.00    +0.000 C 
ATOM     14  C   UNL     1      -4.321  14.077  22.045  0.00  0.00    +0.000 C 
ENDROOT
BRANCH   1  17
ATOM     15  C   UNL     1      -1.675  14.840  24.569  0.00  0.00    +0.000 C 
ATOM     16  O   UNL     1      -0.467  15.064  24.680  0.00  0.00    +0.000 OA
ATOM     17  N   UNL     1      -2.248  13.952  23.610  0.00  0.00    +0.000 N 
BRANCH  17  18
ATOM     18  C   UNL     1      -1.386  13.060  22.829  0.00  0.00    +0.000 A 
ATOM     19  C   UNL     1      -1.309  11.680  23.076  0.00  0.00    +0.000 A 
ATOM     20  C   UNL     1      -0.440  10.844  22.359  0.00  0.00    +0.000 A 
ATOM     21  C   UNL     1       0.373  11.373  21.360  0.00  0.00    +0.000 A 
ATOM     22  C   UNL     1       0.287  12.716  21.063  0.00  0.00    +0.000 A 
ATOM     23  C   UNL     1      -0.610  13.542  21.765  0.00  0.00    +0.000 A 
ENDBRANCH  17  18
BRANCH  15  25
ATOM     24  C   UNL     1      -2.589  17.103  25.316  0.00  0.00    +0.000 C 
ATOM     25  C   UNL     1      -2.633  15.592  25.495  0.00  0.00    +0.000 C 
ENDBRANCH  15  25
ENDBRANCH   1  17
TORSDOF 3
ENDMDL
MODEL 6
REMARK VINA RESULT:      -7.1      8.646     12.200
REMARK  Name = 
REMARK  4 active torsions:
REMARK  status: ('A' for Active; 'I' for Inactive)
REMARK    1  A    between atoms: C_1  and  C_2
REMARK    2  A    between atoms: C_2  and  C_3
REMARK    3  A    between atoms: N_5  and  C_6
REMARK    4  A    between atoms: N_5  and  C_12
REMARK                            x       y       z     vdW  Elec       q    Type
REMARK                         _______ _______ _______ _____ _____    ______ ____
ROOT
ATOM      1  C   UNL     1      -2.402  13.249  22.434  0.00  0.00    +0.000 C 
ATOM      2  C   UNL     1      -3.060  12.249  23.380  0.00  0.00    +0.000 C 
ATOM      3  C   UNL     1      -4.411  12.805  23.780  0.00  0.00    +0.000 C 
ATOM      4  N   UNL     1      -5.246  12.824  22.618  0.00  0.00    +0.000 NA
ATOM      5  C   UNL     1      -6.679  12.871  22.829  0.00  0.00    +0.000 C 
ATOM      6  C   UNL     1      -7.367  11.944  21.827  0.00  0.00    +0.000 C 
ATOM      7  C   UNL     1      -6.785  11.986  20.433  0.00  0.00    +0.000 A 
ATOM      8  C   UNL     1      -7.553  11.465  19.386  0.00  0.00    +0.000 A 
ATOM      9  C   UNL     1      -6.966  11.191  18.161  0.00  0.00    +0.000 A 
ATOM     10  C   UNL     1      -5.600  11.402  17.996  0.00  0.00    +0.000 A 
ATOM     11  C   UNL     1      -4.842  12.015  19.006  0.00  0.00    +0.000 A 
ATOM     12  C   UNL     1      -5.431  12.370  20.229  0.00  0.00    +0.000 A 
ATOM     13  C   UNL     1      -4.787  13.267  21.305  0.00  0.00    +0.000 C 
ATOM     14  C   UNL     1      -3.268  13.634  21.206  0.00  0.00    +0.000 C 
ENDROOT
BRANCH   1  17
ATOM     15  C   UNL     1       0.046  13.923  22.342  0.00  0.00    +0.000 C 
ATOM     16  O   UNL     1       1.235  13.759  22.060  0.00  0.00    +0.000 OA
ATOM     17  N   UNL     1      -0.967  12.929  22.190  0.00  0.00    +0.000 N 
BRANCH  17  18
ATOM     18  C   UNL     1      -0.595  11.543  21.893  0.00  0.00    +0.000 A 
ATOM     19  C   UNL     1      -0.404  10.581  22.898  0.00  0.00    +0.000 A 
ATOM     20  C   UNL     1       0.006   9.272  22.606  0.00  0.00    +0.000 A 
ATOM     21  C   UNL     1       0.224   8.886  21.286  0.00  0.00    +0.000 A 
ATOM     22  C   UNL     1      -0.000   9.794  20.273  0.00  0.00    +0.000 A 
ATOM     23  C   UNL     1      -0.440  11.096  20.572  0.00  0.00    +0.000 A 
ENDBRANCH  17  18
BRANCH  15  25
ATOM     24  C   UNL     1      -0.444  16.361  21.765  0.00  0.00    +0.000 C 
ATOM     25  C   UNL     1      -0.387  15.299  22.854  0.00  0.00    +0.000 C 
ENDBRANCH  15  25
ENDBRANCH   1  17
TORSDOF 3
ENDMDL
MODEL 7
REMARK VINA RESULT:      -6.7      9.071     12.574
REMARK  Name = 
REMARK  4 active torsions:
REMARK  status: ('A' for Active; 'I' for Inactive)
REMARK    1  A    between atoms: C_1  and  C_2
REMARK    2  A    between atoms: C_2  and  C_3
REMARK    3  A    between atoms: N_5  and  C_6
REMARK    4  A    between atoms: N_5  and  C_12
REMARK                            x       y       z     vdW  Elec       q    Type
REMARK                         _______ _______ _______ _____ _____    ______ ____
ROOT
ATOM      1  C   UNL     1      -2.686  13.874  22.489  0.00  0.00    +0.000 C 
ATOM      2  C   UNL     1      -3.295  12.965  23.553  0.00  0.00    +0.000 C 
ATOM      3  C   UNL     1      -4.703  13.451  23.830  0.00  0.00    +0.000 C 
ATOM      4  N   UNL     1      -5.489  13.228  22.655  0.00  0.00    +0.000 NA
ATOM      5  C   UNL     1      -6.928  13.177  22.817  0.00  0.00    +0.000 C 
ATOM      6  C   UNL     1      -7.495  12.058  21.942  0.00  0.00    +0.000 C 
ATOM      7  C   UNL     1      -6.863  11.951  20.574  0.00  0.00    +0.000 A 
ATOM      8  C   UNL     1      -7.541  11.219  19.594  0.00  0.00    +0.000 A 
ATOM      9  C   UNL     1      -6.885  10.825  18.439  0.00  0.00    +0.000 A 
ATOM     10  C   UNL     1      -5.535  11.132  18.282  0.00  0.00    +0.000 A 
ATOM     11  C   UNL     1      -4.873  11.948  19.212  0.00  0.00    +0.000 A 
ATOM     12  C   UNL     1      -5.539  12.421  20.353  0.00  0.00    +0.000 A 
ATOM     13  C   UNL     1      -5.017  13.517  21.304  0.00  0.00    +0.000 C 
ATOM     14  C   UNL     1      -3.531  14.000  21.194  0.00  0.00    +0.000 C 
ENDROOT
BRANCH   1  17
ATOM     15  C   UNL     1      -0.276  14.631  22.768  0.00  0.00    +0.000 C 
ATOM     16  O   UNL     1       0.940  14.561  22.580  0.00  0.00    +0.000 OA
ATOM     17  N   UNL     1      -1.220  13.652  22.334  0.00  0.00    +0.000 N 
BRANCH  17  18
ATOM     18  C   UNL     1      -0.754  12.359  21.824  0.00  0.00    +0.000 A 
ATOM     19  C   UNL     1      -0.419  12.157  20.475  0.00  0.00    +0.000 A 
ATOM     20  C   UNL     1      -0.027  10.902  19.987  0.00  0.00    +0.000 A 
ATOM     21  C   UNL     1       0.052   9.810  20.848  0.00  0.00    +0.000 A 
ATOM     22  C   UNL     1      -0.225   9.987  22.187  0.00  0.00    +0.000 A 
ATOM     23  C   UNL     1      -0.588  11.256  22.674  0.00  0.00    +0.000 A 
ENDBRANCH  17  18
BRANCH  15  25
ATOM     24  C   UNL     1      -0.874  15.728  24.994  0.00  0.00    +0.000 C 
ATOM     25  C   UNL     1      -0.823  15.871  23.480  0.00  0.00    +0.000 C 
ENDBRANCH  15  25
ENDBRANCH   1  17
TORSDOF 3
ENDMDL
MODEL 8
REMARK VINA RESULT:      -6.7      8.353     10.999
REMARK  Name = 
REMARK  4 active torsions:
REMARK  status: ('A' for Active; 'I' for Inactive)
REMARK    1  A    between atoms: C_1  and  C_2
REMARK    2  A    between atoms: C_2  and  C_3
REMARK    3  A    between atoms: N_5  and  C_6
REMARK    4  A    between atoms: N_5  and  C_12
REMARK                            x       y       z     vdW  Elec       q    Type
REMARK                         _______ _______ _______ _____ _____    ______ ____
ROOT
ATOM      1  C   UNL     1       3.201  14.286  19.058  0.00  0.00    +0.000 C 
ATOM      2  C   UNL     1       2.285  13.698  17.989  0.00  0.00    +0.000 C 
ATOM      3  C   UNL     1       2.193  12.204  18.224  0.00  0.00    +0.000 C 
ATOM      4  N   UNL     1       1.507  11.989  19.461  0.00  0.00    +0.000 NA
ATOM      5  C   UNL     1       0.903  10.690  19.670  0.00  0.00    +0.000 C 
ATOM      6  C   UNL     1      -0.462  10.869  20.337  0.00  0.00    +0.000 C 
ATOM      7  C   UNL     1      -0.496  11.925  21.417  0.00  0.00    +0.000 A 
ATOM      8  C   UNL     1      -1.571  11.912  22.312  0.00  0.00    +0.000 A 
ATOM      9  C   UNL     1      -1.825  13.014  23.113  0.00  0.00    +0.000 A 
ATOM     10  C   UNL     1      -1.025  14.147  22.990  0.00  0.00    +0.000 A 
ATOM     11  C   UNL     1       0.112  14.134  22.167  0.00  0.00    +0.000 A 
ATOM     12  C   UNL     1       0.432  13.002  21.402  0.00  0.00    +0.000 A 
ATOM     13  C   UNL     1       1.768  12.765  20.670  0.00  0.00    +0.000 C 
ATOM     14  C   UNL     1       2.789  13.942  20.514  0.00  0.00    +0.000 C 
ENDROOT
BRANCH   1  17
ATOM     15  C   UNL     1       4.935  16.121  18.770  0.00  0.00    +0.000 C 
ATOM     16  O   UNL     1       5.306  17.289  18.638  0.00  0.00    +0.000 OA
ATOM     17  N   UNL     1       3.571  15.700  18.764  0.00  0.00    +0.000 N 
BRANCH  17  18
ATOM     18  C   UNL     1       2.516  16.634  18.361  0.00  0.00    +0.000 A 
ATOM     19  C   UNL     1       1.491  17.035  19.232  0.00  0.00    +0.000 A 
ATOM     20  C   UNL     1       0.455  17.886  18.820  0.00  0.00    +0.000 A 
ATOM     21  C   UNL     1       0.428  18.372  17.515  0.00  0.00    +0.000 A 
ATOM     22  C   UNL     1       1.446  18.035  16.650  0.00  0.00    +0.000 A 
ATOM     23  C   UNL     1       2.497  17.204  17.080  0.00  0.00    +0.000 A 
ENDBRANCH  17  18
BRANCH  15  25
ATOM     24  C   UNL     1       6.948  14.874  17.817  0.00  0.00    +0.000 C 
ATOM     25  C   UNL     1       6.004  15.049  18.998  0.00  0.00    +0.000 C 
ENDBRANCH  15  25
ENDBRANCH   1  17
TORSDOF 3
ENDMDL
MODEL 9
REMARK VINA RESULT:      -6.6      9.217     11.169
REMARK  Name = 
REMARK  4 active torsions:
REMARK  status: ('A' for Active; 'I' for Inactive)
REMARK    1  A    between atoms: C_1  and  C_2
REMARK    2  A    between atoms: C_2  and  C_3
REMARK    3  A    between atoms: N_5  and  C_6
REMARK    4  A    between atoms: N_5  and  C_12
REMARK                            x       y       z     vdW  Elec       q    Type
REMARK                         _______ _______ _______ _____ _____    ______ ____
ROOT
ATOM      1  C   UNL     1       8.977  15.801  18.800  0.00  0.00    +0.000 C 
ATOM      2  C   UNL     1       8.870  15.630  20.312  0.00  0.00    +0.000 C 
ATOM      3  C   UNL     1       8.147  16.839  20.869  0.00  0.00    +0.000 C 
ATOM      4  N   UNL     1       6.797  16.807  20.394  0.00  0.00    +0.000 NA
ATOM      5  C   UNL     1       5.813  17.570  21.135  0.00  0.00    +0.000 C 
ATOM      6  C   UNL     1       4.520  16.760  21.238  0.00  0.00    +0.000 C 
ATOM      7  C   UNL     1       4.141  16.022  19.975  0.00  0.00    +0.000 A 
ATOM      8  C   UNL     1       2.826  15.562  19.854  0.00  0.00    +0.000 A 
ATOM      9  C   UNL     1       2.501  14.627  18.885  0.00  0.00    +0.000 A 
ATOM     10  C   UNL     1       3.503  14.121  18.060  0.00  0.00    +0.000 A 
ATOM     11  C   UNL     1       4.803  14.647  18.108  0.00  0.00    +0.000 A 
ATOM     12  C   UNL     1       5.138  15.648  19.032  0.00  0.00    +0.000 A 
ATOM     13  C   UNL     1       6.436  16.481  19.018  0.00  0.00    +0.000 C 
ATOM     14  C   UNL     1       7.623  16.057  18.087  0.00  0.00    +0.000 C 
ENDROOT
BRANCH   1  17
ATOM     15  C   UNL     1      10.926  15.208  17.282  0.00  0.00    +0.000 C 
ATOM     16  O   UNL     1      11.656  14.433  16.660  0.00  0.00    +0.000 OA
ATOM     17  N   UNL     1       9.899  14.804  18.186  0.00  0.00    +0.000 N 
BRANCH  17  18
ATOM     18  C   UNL     1       9.803  13.403  18.609  0.00  0.00    +0.000 A 
ATOM     19  C   UNL     1      10.536  12.891  19.691  0.00  0.00    +0.000 A 
ATOM     20  C   UNL     1      10.479  11.537  20.053  0.00  0.00    +0.000 A 
ATOM     21  C   UNL     1       9.670  10.656  19.340  0.00  0.00    +0.000 A 
ATOM     22  C   UNL     1       8.902  11.139  18.301  0.00  0.00    +0.000 A 
ATOM     23  C   UNL     1       8.942  12.504  17.964  0.00  0.00    +0.000 A 
ENDBRANCH  17  18
BRANCH  15  25
ATOM     24  C   UNL     1      12.330  17.294  17.728  0.00  0.00    +0.000 C 
ATOM     25  C   UNL     1      11.103  16.710  17.041  0.00  0.00    +0.000 C 
ENDBRANCH  15  25
ENDBRANCH   1  17
TORSDOF 3
ENDMDL
