MODEL 1
REMARK VINA RESULT:      -7.1      0.000      0.000
REMARK  Name = 
REMARK  9 active torsions:
REMARK  status: ('A' for Active; 'I' for Inactive)
REMARK    1  A    between atoms: C_2  and  C_3
REMARK    2  A    between atoms: C_2  and  C_12
REMARK    3  A    between atoms: C_3  and  C_4
REMARK    4  A    between atoms: C_4  and  C_5
REMARK    5  A    between atoms: C_12  and  C_13
REMARK    6  A    between atoms: C_13  and  O_14
REMARK    7  A    between atoms: C_13  and  C_15
REMARK    8  A    between atoms: C_15  and  C_16
REMARK    9  A    between atoms: C_16  and  C_17
REMARK                            x       y       z     vdW  Elec       q    Type
REMARK                         _______ _______ _______ _____ _____    ______ ____
ROOT
ATOM      1  C   UNL     1       1.446   3.899  18.750  0.00  0.00    +0.000 C 
ENDROOT
BRANCH   1   3
ATOM      2  O   UNL     1       1.825   1.564  19.007  0.00  0.00    +0.000 OA
ATOM      3  C   UNL     1       2.323   2.673  18.781  0.00  0.00    +0.000 C 
BRANCH   3   4
ATOM      4  C   UNL     1       3.819   2.815  18.609  0.00  0.00    +0.000 C 
BRANCH   4   5
ATOM      5  C   UNL     1       4.186   3.355  17.231  0.00  0.00    +0.000 C 
BRANCH   5   6
ATOM      6  C   UNL     1       5.100   4.555  17.311  0.00  0.00    +0.000 A 
ATOM      7  C   UNL     1       4.754   5.756  16.674  0.00  0.00    +0.000 A 
ATOM      8  C   UNL     1       5.596   6.868  16.754  0.00  0.00    +0.000 A 
ATOM      9  C   UNL     1       6.787   6.785  17.471  0.00  0.00    +0.000 A 
ATOM     10 CL   UNL     1       7.820   8.158  17.575  0.00  0.00    +0.000 Cl
ATOM     11  C   UNL     1       7.145   5.601  18.109  0.00  0.00    +0.000 A 
ATOM     12  C   UNL     1       6.300   4.492  18.035  0.00  0.00    +0.000 A 
ENDBRANCH   5   6
ENDBRANCH   4   5
ENDBRANCH   3   4
ENDBRANCH   1   3
BRANCH   1  13
ATOM     13  C   UNL     1       0.956   4.333  20.126  0.00  0.00    +0.000 C 
BRANCH  13  14
ATOM     14  O   UNL     1       0.863   3.201  20.989  0.00  0.00    +0.000 OA
ATOM     15  H   UNL     1       1.759   2.949  21.277  0.00  0.00    +0.000 HD
ENDBRANCH  13  14
BRANCH  13  16
ATOM     16  C   UNL     1       1.899   5.351  20.777  0.00  0.00    +0.000 C 
BRANCH  16  17
ATOM     17  C   UNL     1       2.767   6.094  19.759  0.00  0.00    +0.000 C 
BRANCH  17  18
ATOM     18  C   UNL     1       2.202   7.446  19.448  0.00  0.00    +0.000 A 
ATOM     19  C   UNL     1       2.278   7.984  18.163  0.00  0.00    +0.000 A 
ATOM     20  C   UNL     1       1.693   9.215  17.902  0.00  0.00    +0.000 A 
ATOM     21  C   UNL     1       1.046   9.869  18.940  0.00  0.00    +0.000 A 
ATOM     22  N   UNL     1       0.958   9.385  20.196  0.00  0.00    +0.000 NA
ATOM     23  C   UNL     1       1.534   8.185  20.424  0.00  0.00    +0.000 A 
ENDBRANCH  17  18
ENDBRANCH  16  17
ENDBRANCH  13  16
ENDBRANCH   1  13
TORSDOF 9
ENDMDL
MODEL 2
REMARK VINA RESULT:      -6.7      0.856      1.006
REMARK  Name = 
REMARK  9 active torsions:
REMARK  status: ('A' for Active; 'I' for Inactive)
REMARK    1  A    between atoms: C_2  and  C_3
REMARK    2  A    between atoms: C_2  and  C_12
REMARK    3  A    between atoms: C_3  and  C_4
REMARK    4  A    between atoms: C_4  and  C_5
REMARK    5  A    between atoms: C_12  and  C_13
REMARK    6  A    between atoms: C_13  and  O_14
REMARK    7  A    between atoms: C_13  and  C_15
REMARK    8  A    between atoms: C_15  and  C_16
REMARK    9  A    between atoms: C_16  and  C_17
REMARK                            x       y       z     vdW  Elec       q    Type
REMARK                         _______ _______ _______ _____ _____    ______ ____
ROOT
ATOM      1  C   UNL     1       3.041   2.975  19.970  0.00  0.00    +0.000 C 
ENDROOT
BRANCH   1   3
ATOM      2  O   UNL     1       3.475   1.401  18.238  0.00  0.00    +0.000 OA
ATOM      3  C   UNL     1       3.190   2.570  18.525  0.00  0.00    +0.000 C 
BRANCH   3   4
ATOM      4  C   UNL     1       3.063   3.612  17.436  0.00  0.00    +0.000 C 
BRANCH   4   5
ATOM      5  C   UNL     1       4.298   3.655  16.541  0.00  0.00    +0.000 C 
BRANCH   5   6
ATOM      6  C   UNL     1       5.274   4.727  16.964  0.00  0.00    +0.000 A 
ATOM      7  C   UNL     1       5.492   5.849  16.152  0.00  0.00    +0.000 A 
ATOM      8  C   UNL     1       6.390   6.844  16.546  0.00  0.00    +0.000 A 
ATOM      9  C   UNL     1       7.074   6.722  17.753  0.00  0.00    +0.000 A 
ATOM     10 CL   UNL     1       8.174   7.952  18.240  0.00  0.00    +0.000 Cl
ATOM     11  C   UNL     1       6.869   5.614  18.569  0.00  0.00    +0.000 A 
ATOM     12  C   UNL     1       5.967   4.624  18.179  0.00  0.00    +0.000 A 
ENDBRANCH   5   6
ENDBRANCH   4   5
ENDBRANCH   3   4
ENDBRANCH   1   3
BRANCH   1  13
ATOM     13  C   UNL     1       1.622   3.384  20.345  0.00  0.00    +0.000 C 
BRANCH  13  14
ATOM     14  O   UNL     1       1.191   2.653  21.491  0.00  0.00    +0.000 OA
ATOM     15  H   UNL     1       1.629   1.783  21.493  0.00  0.00    +0.000 HD
ENDBRANCH  13  14
BRANCH  13  16
ATOM     16  C   UNL     1       1.522   4.879  20.669  0.00  0.00    +0.000 C 
BRANCH  16  17
ATOM     17  C   UNL     1       2.781   5.658  20.281  0.00  0.00    +0.000 C 
BRANCH  17  18
ATOM     18  C   UNL     1       2.434   6.945  19.598  0.00  0.00    +0.000 A 
ATOM     19  C   UNL     1       2.845   7.204  18.291  0.00  0.00    +0.000 A 
ATOM     20  C   UNL     1       2.456   8.386  17.674  0.00  0.00    +0.000 A 
ATOM     21  C   UNL     1       1.662   9.270  18.388  0.00  0.00    +0.000 A 
ATOM     22  N   UNL     1       1.251   9.058  19.655  0.00  0.00    +0.000 NA
ATOM     23  C   UNL     1       1.643   7.902  20.233  0.00  0.00    +0.000 A 
ENDBRANCH  17  18
ENDBRANCH  16  17
ENDBRANCH  13  16
ENDBRANCH   1  13
TORSDOF 9
ENDMDL
MODEL 3
REMARK VINA RESULT:      -6.6      4.484      6.472
REMARK  Name = 
REMARK  9 active torsions:
REMARK  status: ('A' for Active; 'I' for Inactive)
REMARK    1  A    between atoms: C_2  and  C_3
REMARK    2  A    between atoms: C_2  and  C_12
REMARK    3  A    between atoms: C_3  and  C_4
REMARK    4  A    between atoms: C_4  and  C_5
REMARK    5  A    between atoms: C_12  and  C_13
REMARK    6  A    between atoms: C_13  and  O_14
REMARK    7  A    between atoms: C_13  and  C_15
REMARK    8  A    between atoms: C_15  and  C_16
REMARK    9  A    between atoms: C_16  and  C_17
REMARK                            x       y       z     vdW  Elec       q    Type
REMARK                         _______ _______ _______ _____ _____    ______ ____
ROOT
ATOM      1  C   UNL     1       7.199   6.324  18.588  0.00  0.00    +0.000 C 
ENDROOT
BRANCH   1   3
ATOM      2  O   UNL     1       7.622   6.633  16.268  0.00  0.00    +0.000 OA
ATOM      3  C   UNL     1       7.575   7.154  17.388  0.00  0.00    +0.000 C 
BRANCH   3   4
ATOM      4  C   UNL     1       7.966   8.604  17.570  0.00  0.00    +0.000 C 
BRANCH   4   5
ATOM      5  C   UNL     1       8.720   8.832  18.876  0.00  0.00    +0.000 C 
BRANCH   5   6
ATOM      6  C   UNL     1       9.149  10.270  19.047  0.00  0.00    +0.000 A 
ATOM      7  C   UNL     1       9.706  10.706  20.258  0.00  0.00    +0.000 A 
ATOM      8  C   UNL     1      10.110  12.034  20.414  0.00  0.00    +0.000 A 
ATOM      9  C   UNL     1       9.959  12.932  19.360  0.00  0.00    +0.000 A 
ATOM     10 CL   UNL     1      10.463  14.566  19.551  0.00  0.00    +0.000 Cl
ATOM     11  C   UNL     1       9.408  12.515  18.152  0.00  0.00    +0.000 A 
ATOM     12  C   UNL     1       9.011  11.187  17.994  0.00  0.00    +0.000 A 
ENDBRANCH   5   6
ENDBRANCH   4   5
ENDBRANCH   3   4
ENDBRANCH   1   3
BRANCH   1  13
ATOM     13  C   UNL     1       6.090   5.316  18.309  0.00  0.00    +0.000 C 
BRANCH  13  14
ATOM     14  O   UNL     1       6.648   4.018  18.115  0.00  0.00    +0.000 OA
ATOM     15  H   UNL     1       6.061   3.357  18.524  0.00  0.00    +0.000 HD
ENDBRANCH  13  14
BRANCH  13  16
ATOM     16  C   UNL     1       5.084   5.235  19.462  0.00  0.00    +0.000 C 
BRANCH  16  17
ATOM     17  C   UNL     1       3.691   5.737  19.074  0.00  0.00    +0.000 C 
BRANCH  17  18
ATOM     18  C   UNL     1       2.688   4.626  19.097  0.00  0.00    +0.000 A 
ATOM     19  C   UNL     1       1.921   4.366  20.233  0.00  0.00    +0.000 A 
ATOM     20  C   UNL     1       0.961   3.363  20.195  0.00  0.00    +0.000 A 
ATOM     21  C   UNL     1       0.800   2.652  19.016  0.00  0.00    +0.000 A 
ATOM     22  N   UNL     1       1.527   2.868  17.900  0.00  0.00    +0.000 NA
ATOM     23  C   UNL     1       2.453   3.849  17.962  0.00  0.00    +0.000 A 
ENDBRANCH  17  18
ENDBRANCH  16  17
ENDBRANCH  13  16
ENDBRANCH   1  13
TORSDOF 9
ENDMDL
MODEL 4
REMARK VINA RESULT:      -6.5      4.467      6.349
REMARK  Name = 
REMARK  9 active torsions:
REMARK  status: ('A' for Active; 'I' for Inactive)
REMARK    1  A    between atoms: C_2  and  C_3
REMARK    2  A    between atoms: C_2  and  C_12
REMARK    3  A    between atoms: C_3  and  C_4
REMARK    4  A    between atoms: C_4  and  C_5
REMARK    5  A    between atoms: C_12  and  C_13
REMARK    6  A    between atoms: C_13  and  O_14
REMARK    7  A    between atoms: C_13  and  C_15
REMARK    8  A    between atoms: C_15  and  C_16
REMARK    9  A    between atoms: C_16  and  C_17
REMARK                            x       y       z     vdW  Elec       q    Type
REMARK                         _______ _______ _______ _____ _____    ______ ____
ROOT
ATOM      1  C   UNL     1       7.398   5.753  18.610  0.00  0.00    +0.000 C 
ENDROOT
BRANCH   1   3
ATOM      2  O   UNL     1       7.622   7.004  16.598  0.00  0.00    +0.000 OA
ATOM      3  C   UNL     1       7.778   6.983  17.825  0.00  0.00    +0.000 C 
BRANCH   3   4
ATOM      4  C   UNL     1       8.419   8.157  18.531  0.00  0.00    +0.000 C 
BRANCH   4   5
ATOM      5  C   UNL     1       8.300   9.444  17.721  0.00  0.00    +0.000 C 
BRANCH   5   6
ATOM      6  C   UNL     1       8.890  10.632  18.442  0.00  0.00    +0.000 A 
ATOM      7  C   UNL     1       8.835  11.911  17.870  0.00  0.00    +0.000 A 
ATOM      8  C   UNL     1       9.374  13.011  18.540  0.00  0.00    +0.000 A 
ATOM      9  C   UNL     1       9.970  12.839  19.787  0.00  0.00    +0.000 A 
ATOM     10 CL   UNL     1      10.628  14.196  20.615  0.00  0.00    +0.000 Cl
ATOM     11  C   UNL     1      10.034  11.576  20.369  0.00  0.00    +0.000 A 
ATOM     12  C   UNL     1       9.489  10.478  19.702  0.00  0.00    +0.000 A 
ENDBRANCH   5   6
ENDBRANCH   4   5
ENDBRANCH   3   4
ENDBRANCH   1   3
BRANCH   1  13
ATOM     13  C   UNL     1       6.023   5.203  18.252  0.00  0.00    +0.000 C 
BRANCH  13  14
ATOM     14  O   UNL     1       6.091   3.787  18.094  0.00  0.00    +0.000 OA
ATOM     15  H   UNL     1       6.138   3.373  18.974  0.00  0.00    +0.000 HD
ENDBRANCH  13  14
BRANCH  13  16
ATOM     16  C   UNL     1       4.981   5.512  19.333  0.00  0.00    +0.000 C 
BRANCH  16  17
ATOM     17  C   UNL     1       3.617   5.894  18.755  0.00  0.00    +0.000 C 
BRANCH  17  18
ATOM     18  C   UNL     1       2.609   4.810  18.980  0.00  0.00    +0.000 A 
ATOM     19  C   UNL     1       2.029   4.610  20.233  0.00  0.00    +0.000 A 
ATOM     20  C   UNL     1       1.057   3.631  20.388  0.00  0.00    +0.000 A 
ATOM     21  C   UNL     1       0.695   2.883  19.278  0.00  0.00    +0.000 A 
ATOM     22  N   UNL     1       1.238   3.041  18.054  0.00  0.00    +0.000 NA
ATOM     23  C   UNL     1       2.180   4.000  17.929  0.00  0.00    +0.000 A 
ENDBRANCH  17  18
ENDBRANCH  16  17
ENDBRANCH  13  16
ENDBRANCH   1  13
TORSDOF 9
ENDMDL
MODEL 5
REMARK VINA RESULT:      -6.5      2.313      5.098
REMARK  Name = 
REMARK  9 active torsions:
REMARK  status: ('A' for Active; 'I' for Inactive)
REMARK    1  A    between atoms: C_2  and  C_3
REMARK    2  A    between atoms: C_2  and  C_12
REMARK    3  A    between atoms: C_3  and  C_4
REMARK    4  A    between atoms: C_4  and  C_5
REMARK    5  A    between atoms: C_12  and  C_13
REMARK    6  A    between atoms: C_13  and  O_14
REMARK    7  A    between atoms: C_13  and  C_15
REMARK    8  A    between atoms: C_15  and  C_16
REMARK    9  A    between atoms: C_16  and  C_17
REMARK                            x       y       z     vdW  Elec       q    Type
REMARK                         _______ _______ _______ _____ _____    ______ ____
ROOT
ATOM      1  C   UNL     1       3.160   2.965  19.662  0.00  0.00    +0.000 C 
ENDROOT
BRANCH   1   3
ATOM      2  O   UNL     1       1.258   2.592  21.042  0.00  0.00    +0.000 OA
ATOM      3  C   UNL     1       2.025   3.423  20.541  0.00  0.00    +0.000 C 
BRANCH   3   4
ATOM      4  C   UNL     1       1.783   4.902  20.747  0.00  0.00    +0.000 C 
BRANCH   4   5
ATOM      5  C   UNL     1       2.801   5.756  19.997  0.00  0.00    +0.000 C 
BRANCH   5   6
ATOM      6  C   UNL     1       2.249   7.111  19.626  0.00  0.00    +0.000 A 
ATOM      7  C   UNL     1       1.592   7.898  20.583  0.00  0.00    +0.000 A 
ATOM      8  C   UNL     1       1.088   9.156  20.242  0.00  0.00    +0.000 A 
ATOM      9  C   UNL     1       1.238   9.632  18.941  0.00  0.00    +0.000 A 
ATOM     10 CL   UNL     1       0.623  11.184  18.524  0.00  0.00    +0.000 Cl
ATOM     11  C   UNL     1       1.886   8.863  17.980  0.00  0.00    +0.000 A 
ATOM     12  C   UNL     1       2.396   7.610  18.323  0.00  0.00    +0.000 A 
ENDBRANCH   5   6
ENDBRANCH   4   5
ENDBRANCH   3   4
ENDBRANCH   1   3
BRANCH   1  13
ATOM     13  C   UNL     1       2.744   2.693  18.221  0.00  0.00    +0.000 C 
BRANCH  13  14
ATOM     14  O   UNL     1       1.323   2.602  18.134  0.00  0.00    +0.000 OA
ATOM     15  H   UNL     1       1.089   1.950  17.450  0.00  0.00    +0.000 HD
ENDBRANCH  13  14
BRANCH  13  16
ATOM     16  C   UNL     1       3.210   3.800  17.270  0.00  0.00    +0.000 C 
BRANCH  16  17
ATOM     17  C   UNL     1       4.642   3.594  16.773  0.00  0.00    +0.000 C 
BRANCH  17  18
ATOM     18  C   UNL     1       5.506   4.773  17.101  0.00  0.00    +0.000 A 
ATOM     19  C   UNL     1       6.593   4.655  17.967  0.00  0.00    +0.000 A 
ATOM     20  C   UNL     1       7.403   5.758  18.203  0.00  0.00    +0.000 A 
ATOM     21  C   UNL     1       7.096   6.947  17.560  0.00  0.00    +0.000 A 
ATOM     22  N   UNL     1       6.050   7.103  16.722  0.00  0.00    +0.000 NA
ATOM     23  C   UNL     1       5.279   6.015  16.509  0.00  0.00    +0.000 A 
ENDBRANCH  17  18
ENDBRANCH  16  17
ENDBRANCH  13  16
ENDBRANCH   1  13
TORSDOF 9
ENDMDL
MODEL 6
REMARK VINA RESULT:      -6.4      2.303      4.974
REMARK  Name = 
REMARK  9 active torsions:
REMARK  status: ('A' for Active; 'I' for Inactive)
REMARK    1  A    between atoms: C_2  and  C_3
REMARK    2  A    between atoms: C_2  and  C_12
REMARK    3  A    between atoms: C_3  and  C_4
REMARK    4  A    between atoms: C_4  and  C_5
REMARK    5  A    between atoms: C_12  and  C_13
REMARK    6  A    between atoms: C_13  and  O_14
REMARK    7  A    between atoms: C_13  and  C_15
REMARK    8  A    between atoms: C_15  and  C_16
REMARK    9  A    between atoms: C_16  and  C_17
REMARK                            x       y       z     vdW  Elec       q    Type
REMARK                         _______ _______ _______ _____ _____    ______ ____
ROOT
ATOM      1  C   UNL     1       1.926   3.392  18.130  0.00  0.00    +0.000 C 
ENDROOT
BRANCH   1   3
ATOM      2  O   UNL     1       0.203   2.252  19.309  0.00  0.00    +0.000 OA
ATOM      3  C   UNL     1       0.973   3.218  19.286  0.00  0.00    +0.000 C 
BRANCH   3   4
ATOM      4  C   UNL     1       0.913   4.267  20.374  0.00  0.00    +0.000 C 
BRANCH   4   5
ATOM      5  C   UNL     1       2.201   5.079  20.456  0.00  0.00    +0.000 C 
BRANCH   5   6
ATOM      6  C   UNL     1       2.024   6.489  19.945  0.00  0.00    +0.000 A 
ATOM      7  C   UNL     1       1.411   7.464  20.745  0.00  0.00    +0.000 A 
ATOM      8  C   UNL     1       1.254   8.770  20.275  0.00  0.00    +0.000 A 
ATOM      9  C   UNL     1       1.708   9.107  19.002  0.00  0.00    +0.000 A 
ATOM     10 CL   UNL     1       1.520  10.718  18.427  0.00  0.00    +0.000 Cl
ATOM     11  C   UNL     1       2.318   8.152  18.196  0.00  0.00    +0.000 A 
ATOM     12  C   UNL     1       2.482   6.849  18.668  0.00  0.00    +0.000 A 
ENDBRANCH   5   6
ENDBRANCH   4   5
ENDBRANCH   3   4
ENDBRANCH   1   3
BRANCH   1  13
ATOM     13  C   UNL     1       3.305   2.795  18.382  0.00  0.00    +0.000 C 
BRANCH  13  14
ATOM     14  O   UNL     1       3.391   1.500  17.789  0.00  0.00    +0.000 OA
ATOM     15  H   UNL     1       3.785   0.884  18.432  0.00  0.00    +0.000 HD
ENDBRANCH  13  14
BRANCH  13  16
ATOM     16  C   UNL     1       4.424   3.663  17.795  0.00  0.00    +0.000 C 
BRANCH  16  17
ATOM     17  C   UNL     1       5.437   4.120  18.846  0.00  0.00    +0.000 C 
BRANCH  17  18
ATOM     18  C   UNL     1       6.188   5.331  18.385  0.00  0.00    +0.000 A 
ATOM     19  C   UNL     1       7.321   5.782  19.063  0.00  0.00    +0.000 A 
ATOM     20  C   UNL     1       8.022   6.875  18.571  0.00  0.00    +0.000 A 
ATOM     21  C   UNL     1       7.563   7.482  17.412  0.00  0.00    +0.000 A 
ATOM     22  N   UNL     1       6.469   7.081  16.734  0.00  0.00    +0.000 NA
ATOM     23  C   UNL     1       5.805   6.015  17.231  0.00  0.00    +0.000 A 
ENDBRANCH  17  18
ENDBRANCH  16  17
ENDBRANCH  13  16
ENDBRANCH   1  13
TORSDOF 9
ENDMDL
MODEL 7
REMARK VINA RESULT:      -6.4      3.358      6.001
REMARK  Name = 
REMARK  9 active torsions:
REMARK  status: ('A' for Active; 'I' for Inactive)
REMARK    1  A    between atoms: C_2  and  C_3
REMARK    2  A    between atoms: C_2  and  C_12
REMARK    3  A    between atoms: C_3  and  C_4
REMARK    4  A    between atoms: C_4  and  C_5
REMARK    5  A    between atoms: C_12  and  C_13
REMARK    6  A    between atoms: C_13  and  O_14
REMARK    7  A    between atoms: C_13  and  C_15
REMARK    8  A    between atoms: C_15  and  C_16
REMARK    9  A    between atoms: C_16  and  C_17
REMARK                            x       y       z     vdW  Elec       q    Type
REMARK                         _______ _______ _______ _____ _____    ______ ____
ROOT
ATOM      1  C   UNL     1       6.306   6.156  17.666  0.00  0.00    +0.000 C 
ENDROOT
BRANCH   1   3
ATOM      2  O   UNL     1       5.494   6.388  15.442  0.00  0.00    +0.000 OA
ATOM      3  C   UNL     1       5.331   6.666  16.635  0.00  0.00    +0.000 C 
BRANCH   3   4
ATOM      4  C   UNL     1       4.200   7.578  17.057  0.00  0.00    +0.000 C 
BRANCH   4   5
ATOM      5  C   UNL     1       3.149   6.840  17.879  0.00  0.00    +0.000 C 
BRANCH   5   6
ATOM      6  C   UNL     1       2.270   7.784  18.665  0.00  0.00    +0.000 A 
ATOM      7  C   UNL     1       2.017   7.553  20.025  0.00  0.00    +0.000 A 
ATOM      8  C   UNL     1       1.210   8.429  20.754  0.00  0.00    +0.000 A 
ATOM      9  C   UNL     1       0.652   9.541  20.127  0.00  0.00    +0.000 A 
ATOM     10 CL   UNL     1      -0.336  10.624  21.028  0.00  0.00    +0.000 Cl
ATOM     11  C   UNL     1       0.893   9.784  18.778  0.00  0.00    +0.000 A 
ATOM     12  C   UNL     1       1.705   8.912  18.052  0.00  0.00    +0.000 A 
ENDBRANCH   5   6
ENDBRANCH   4   5
ENDBRANCH   3   4
ENDBRANCH   1   3
BRANCH   1  13
ATOM     13  C   UNL     1       6.417   4.636  17.699  0.00  0.00    +0.000 C 
BRANCH  13  14
ATOM     14  O   UNL     1       7.718   4.253  18.140  0.00  0.00    +0.000 OA
ATOM     15  H   UNL     1       7.855   3.310  17.938  0.00  0.00    +0.000 HD
ENDBRANCH  13  14
BRANCH  13  16
ATOM     16  C   UNL     1       5.389   4.006  18.645  0.00  0.00    +0.000 C 
BRANCH  16  17
ATOM     17  C   UNL     1       4.230   3.336  17.904  0.00  0.00    +0.000 C 
BRANCH  17  18
ATOM     18  C   UNL     1       3.006   3.265  18.764  0.00  0.00    +0.000 A 
ATOM     19  C   UNL     1       2.957   3.896  20.007  0.00  0.00    +0.000 A 
ATOM     20  C   UNL     1       1.784   3.853  20.750  0.00  0.00    +0.000 A 
ATOM     21  C   UNL     1       0.695   3.179  20.219  0.00  0.00    +0.000 A 
ATOM     22  N   UNL     1       0.706   2.551  19.026  0.00  0.00    +0.000 NA
ATOM     23  C   UNL     1       1.858   2.608  18.323  0.00  0.00    +0.000 A 
ENDBRANCH  17  18
ENDBRANCH  16  17
ENDBRANCH  13  16
ENDBRANCH   1  13
TORSDOF 9
ENDMDL
MODEL 8
REMARK VINA RESULT:      -6.4      0.985      1.583
REMARK  Name = 
REMARK  9 active torsions:
REMARK  status: ('A' for Active; 'I' for Inactive)
REMARK    1  A    between atoms: C_2  and  C_3
REMARK    2  A    between atoms: C_2  and  C_12
REMARK    3  A    between atoms: C_3  and  C_4
REMARK    4  A    between atoms: C_4  and  C_5
REMARK    5  A    between atoms: C_12  and  C_13
REMARK    6  A    between atoms: C_13  and  O_14
REMARK    7  A    between atoms: C_13  and  C_15
REMARK    8  A    between atoms: C_15  and  C_16
REMARK    9  A    between atoms: C_16  and  C_17
REMARK                            x       y       z     vdW  Elec       q    Type
REMARK                         _______ _______ _______ _____ _____    ______ ____
ROOT
ATOM      1  C   UNL     1       2.214   2.065  20.010  0.00  0.00    +0.000 C 
ENDROOT
BRANCH   1   3
ATOM      2  O   UNL     1       4.548   2.490  19.822  0.00  0.00    +0.000 OA
ATOM      3  C   UNL     1       3.433   2.591  19.296  0.00  0.00    +0.000 C 
BRANCH   3   4
ATOM      4  C   UNL     1       3.278   3.307  17.972  0.00  0.00    +0.000 C 
BRANCH   4   5
ATOM      5  C   UNL     1       4.559   3.261  17.145  0.00  0.00    +0.000 C 
BRANCH   5   6
ATOM      6  C   UNL     1       5.362   4.534  17.261  0.00  0.00    +0.000 A 
ATOM      7  C   UNL     1       6.491   4.590  18.091  0.00  0.00    +0.000 A 
ATOM      8  C   UNL     1       7.239   5.765  18.193  0.00  0.00    +0.000 A 
ATOM      9  C   UNL     1       6.862   6.891  17.465  0.00  0.00    +0.000 A 
ATOM     10 CL   UNL     1       7.787   8.337  17.586  0.00  0.00    +0.000 Cl
ATOM     11  C   UNL     1       5.744   6.853  16.637  0.00  0.00    +0.000 A 
ATOM     12  C   UNL     1       5.001   5.676  16.530  0.00  0.00    +0.000 A 
ENDBRANCH   5   6
ENDBRANCH   4   5
ENDBRANCH   3   4
ENDBRANCH   1   3
BRANCH   1  13
ATOM     13  C   UNL     1       1.529   3.103  20.890  0.00  0.00    +0.000 C 
BRANCH  13  14
ATOM     14  O   UNL     1       2.308   3.340  22.061  0.00  0.00    +0.000 OA
ATOM     15  H   UNL     1       3.240   3.138  21.866  0.00  0.00    +0.000 HD
ENDBRANCH  13  14
BRANCH  13  16
ATOM     16  C   UNL     1       1.343   4.440  20.163  0.00  0.00    +0.000 C 
BRANCH  16  17
ATOM     17  C   UNL     1       2.072   5.597  20.849  0.00  0.00    +0.000 C 
BRANCH  17  18
ATOM     18  C   UNL     1       1.991   6.850  20.032  0.00  0.00    +0.000 A 
ATOM     19  C   UNL     1       2.441   6.883  18.712  0.00  0.00    +0.000 A 
ATOM     20  C   UNL     1       2.297   8.048  17.970  0.00  0.00    +0.000 A 
ATOM     21  C   UNL     1       1.702   9.144  18.577  0.00  0.00    +0.000 A 
ATOM     22  N   UNL     1       1.261   9.153  19.852  0.00  0.00    +0.000 NA
ATOM     23  C   UNL     1       1.412   8.008  20.552  0.00  0.00    +0.000 A 
ENDBRANCH  17  18
ENDBRANCH  16  17
ENDBRANCH  13  16
ENDBRANCH   1  13
TORSDOF 9
ENDMDL
MODEL 9
REMARK VINA RESULT:      -6.4      3.180      6.234
REMARK  Name = 
REMARK  9 active torsions:
REMARK  status: ('A' for Active; 'I' for Inactive)
REMARK    1  A    between atoms: C_2  and  C_3
REMARK    2  A    between atoms: C_2  and  C_12
REMARK    3  A    between atoms: C_3  and  C_4
REMARK    4  A    between atoms: C_4  and  C_5
REMARK    5  A    between atoms: C_12  and  C_13
REMARK    6  A    between atoms: C_13  and  O_14
REMARK    7  A    between atoms: C_13  and  C_15
REMARK    8  A    between atoms: C_15  and  C_16
REMARK    9  A    between atoms: C_16  and  C_17
REMARK                            x       y       z     vdW  Elec       q    Type
REMARK                         _______ _______ _______ _____ _____    ______ ____
ROOT
ATOM      1  C   UNL     1       4.663   5.811  17.205  0.00  0.00    +0.000 C 
ENDROOT
BRANCH   1   3
ATOM      2  O   UNL     1       4.324   5.723  19.559  0.00  0.00    +0.000 OA
ATOM      3  C   UNL     1       3.846   6.013  18.456  0.00  0.00    +0.000 C 
BRANCH   3   4
ATOM      4  C   UNL     1       2.417   6.498  18.350  0.00  0.00    +0.000 C 
BRANCH   4   5
ATOM      5  C   UNL     1       2.340   8.013  18.194  0.00  0.00    +0.000 C 
BRANCH   5   6
ATOM      6  C   UNL     1       1.603   8.670  19.338  0.00  0.00    +0.000 A 
ATOM      7  C   UNL     1       1.580   8.072  20.606  0.00  0.00    +0.000 A 
ATOM      8  C   UNL     1       0.905   8.682  21.665  0.00  0.00    +0.000 A 
ATOM      9  C   UNL     1       0.249   9.894  21.462  0.00  0.00    +0.000 A 
ATOM     10 CL   UNL     1      -0.576  10.649  22.769  0.00  0.00    +0.000 Cl
ATOM     11  C   UNL     1       0.262  10.501  20.209  0.00  0.00    +0.000 A 
ATOM     12  C   UNL     1       0.943   9.894  19.153  0.00  0.00    +0.000 A 
ENDBRANCH   5   6
ENDBRANCH   4   5
ENDBRANCH   3   4
ENDBRANCH   1   3
BRANCH   1  13
ATOM     13  C   UNL     1       4.957   4.348  16.899  0.00  0.00    +0.000 C 
BRANCH  13  14
ATOM     14  O   UNL     1       5.842   3.813  17.881  0.00  0.00    +0.000 OA
ATOM     15  H   UNL     1       5.332   3.599  18.683  0.00  0.00    +0.000 HD
ENDBRANCH  13  14
BRANCH  13  16
ATOM     16  C   UNL     1       3.683   3.496  16.891  0.00  0.00    +0.000 C 
BRANCH  16  17
ATOM     17  C   UNL     1       3.751   2.314  17.861  0.00  0.00    +0.000 C 
BRANCH  17  18
ATOM     18  C   UNL     1       2.870   2.537  19.051  0.00  0.00    +0.000 A 
ATOM     19  C   UNL     1       3.388   2.528  20.346  0.00  0.00    +0.000 A 
ATOM     20  C   UNL     1       2.548   2.794  21.420  0.00  0.00    +0.000 A 
ATOM     21  C   UNL     1       1.213   3.063  21.159  0.00  0.00    +0.000 A 
ATOM     22  N   UNL     1       0.674   3.073  19.922  0.00  0.00    +0.000 NA
ATOM     23  C   UNL     1       1.512   2.812  18.895  0.00  0.00    +0.000 A 
ENDBRANCH  17  18
ENDBRANCH  16  17
ENDBRANCH  13  16
ENDBRANCH   1  13
TORSDOF 9
ENDMDL
