MODEL 1
REMARK VINA RESULT:      -8.3      0.000      0.000
REMARK  Name = 
REMARK  3 active torsions:
REMARK  status: ('A' for Active; 'I' for Inactive)
REMARK    1  A    between atoms: C_3  and  N_4
REMARK    2  A    between atoms: N_4  and  C_5
REMARK    3  A    between atoms: C_13  and  C_14
REMARK                            x       y       z     vdW  Elec       q    Type
REMARK                         _______ _______ _______ _____ _____    ______ ____
ROOT
ATOM      1  C   UNL     1       3.429   1.950  19.880  0.00  0.00    +0.000 A 
ATOM      2  C   UNL     1       3.837   2.295  18.595  0.00  0.00    +0.000 A 
ATOM      3  C   UNL     1       3.607   3.581  18.072  0.00  0.00    +0.000 A 
ATOM      4  C   UNL     1       3.002   4.566  18.898  0.00  0.00    +0.000 A 
ATOM      5  N   UNL     1       2.811   5.838  18.462  0.00  0.00    +0.000 NA
ATOM      6  C   UNL     1       2.195   6.733  19.278  0.00  0.00    +0.000 A 
ATOM      7  C   UNL     1       1.745   6.417  20.550  0.00  0.00    +0.000 A 
ATOM      8  C   UNL     1       1.936   5.123  21.008  0.00  0.00    +0.000 A 
ATOM      9  C   UNL     1       2.577   4.183  20.195  0.00  0.00    +0.000 A 
ATOM     10  C   UNL     1       2.783   2.885  20.673  0.00  0.00    +0.000 A 
ENDROOT
BRANCH   6  11
ATOM     11  C   UNL     1       2.010   8.081  18.754  0.00  0.00    +0.000 A 
ATOM     12  N   UNL     1       2.516   8.526  17.608  0.00  0.00    +0.000 NA
ATOM     13  N   UNL     1       2.181   9.849  17.462  0.00  0.00    +0.000 NA
ATOM     14  C   UNL     1       1.501  10.205  18.528  0.00  0.00    +0.000 A 
ATOM     15  C   UNL     1       0.945  11.450  18.931  0.00  0.00    +0.000 A 
ATOM     16  C   UNL     1       0.328  11.548  20.125  0.00  0.00    +0.000 A 
ATOM     17  C   UNL     1       0.203  10.398  21.009  0.00  0.00    +0.000 A 
ATOM     18  C   UNL     1       0.717   9.218  20.627  0.00  0.00    +0.000 A 
ATOM     19  N   UNL     1       1.360   9.120  19.387  0.00  0.00    +0.000 N 
ENDBRANCH   6  11
BRANCH   3  20
ATOM     20  N   UNL     1       3.981   3.925  16.743  0.00  0.00    +0.000 N 
ATOM     21  H   UNL     1       3.410   4.726  16.464  0.00  0.00    +0.000 HD
BRANCH  20  22
ATOM     22  C   UNL     1       5.394   4.028  16.346  0.00  0.00    +0.000 C 
ATOM     23  C   UNL     1       6.251   4.625  17.476  0.00  0.00    +0.000 C 
ATOM     24  C   UNL     1       6.168   6.147  17.592  0.00  0.00    +0.000 C 
ATOM     25  N   UNL     1       6.370   6.840  16.320  0.00  0.00    +0.000 NA
ATOM     26  C   UNL     1       5.418   6.362  15.319  0.00  0.00    +0.000 C 
ATOM     27  C   UNL     1       5.562   4.865  15.068  0.00  0.00    +0.000 C 
ATOM     28  H   UNL     1       7.322   6.690  15.986  0.00  0.00    +0.000 HD
ENDBRANCH  20  22
ENDBRANCH   3  20
TORSDOF 3
ENDMDL
MODEL 2
REMARK VINA RESULT:      -8.2      0.715      1.301
REMARK  Name = 
REMARK  3 active torsions:
REMARK  status: ('A' for Active; 'I' for Inactive)
REMARK    1  A    between atoms: C_3  and  N_4
REMARK    2  A    between atoms: N_4  and  C_5
REMARK    3  A    between atoms: C_13  and  C_14
REMARK                            x       y       z     vdW  Elec       q    Type
REMARK                         _______ _______ _______ _____ _____    ______ ____
ROOT
ATOM      1  C   UNL     1       3.560   2.165  19.923  0.00  0.00    +0.000 A 
ATOM      2  C   UNL     1       4.014   2.545  18.664  0.00  0.00    +0.000 A 
ATOM      3  C   UNL     1       3.751   3.827  18.144  0.00  0.00    +0.000 A 
ATOM      4  C   UNL     1       3.062   4.772  18.950  0.00  0.00    +0.000 A 
ATOM      5  N   UNL     1       2.835   6.040  18.520  0.00  0.00    +0.000 NA
ATOM      6  C   UNL     1       2.139   6.894  19.314  0.00  0.00    +0.000 A 
ATOM      7  C   UNL     1       1.643   6.541  20.558  0.00  0.00    +0.000 A 
ATOM      8  C   UNL     1       1.869   5.252  21.011  0.00  0.00    +0.000 A 
ATOM      9  C   UNL     1       2.592   4.353  20.220  0.00  0.00    +0.000 A 
ATOM     10  C   UNL     1       2.834   3.058  20.694  0.00  0.00    +0.000 A 
ENDROOT
BRANCH   6  11
ATOM     11  C   UNL     1       1.918   8.240  18.797  0.00  0.00    +0.000 A 
ATOM     12  N   UNL     1       2.370   8.688  17.629  0.00  0.00    +0.000 NA
ATOM     13  N   UNL     1       2.015  10.007  17.496  0.00  0.00    +0.000 NA
ATOM     14  C   UNL     1       1.380  10.359  18.590  0.00  0.00    +0.000 A 
ATOM     15  C   UNL     1       0.831  11.599  19.016  0.00  0.00    +0.000 A 
ATOM     16  C   UNL     1       0.266  11.693  20.235  0.00  0.00    +0.000 A 
ATOM     17  C   UNL     1       0.191  10.545  21.126  0.00  0.00    +0.000 A 
ATOM     18  C   UNL     1       0.699   9.368  20.723  0.00  0.00    +0.000 A 
ATOM     19  N   UNL     1       1.287   9.274  19.456  0.00  0.00    +0.000 N 
ENDBRANCH   6  11
BRANCH   3  20
ATOM     20  N   UNL     1       4.173   4.205  16.839  0.00  0.00    +0.000 N 
ATOM     21  H   UNL     1       3.361   4.129  16.223  0.00  0.00    +0.000 HD
BRANCH  20  22
ATOM     22  C   UNL     1       4.986   5.411  16.615  0.00  0.00    +0.000 C 
ATOM     23  C   UNL     1       5.392   5.547  15.137  0.00  0.00    +0.000 C 
ATOM     24  C   UNL     1       6.575   4.669  14.727  0.00  0.00    +0.000 C 
ATOM     25  N   UNL     1       7.721   4.778  15.627  0.00  0.00    +0.000 NA
ATOM     26  C   UNL     1       7.325   4.472  17.001  0.00  0.00    +0.000 C 
ATOM     27  C   UNL     1       6.241   5.419  17.503  0.00  0.00    +0.000 C 
ATOM     28  H   UNL     1       8.113   5.719  15.585  0.00  0.00    +0.000 HD
ENDBRANCH  20  22
ENDBRANCH   3  20
TORSDOF 3
ENDMDL
MODEL 3
REMARK VINA RESULT:      -8.2      1.455      2.226
REMARK  Name = 
REMARK  3 active torsions:
REMARK  status: ('A' for Active; 'I' for Inactive)
REMARK    1  A    between atoms: C_3  and  N_4
REMARK    2  A    between atoms: N_4  and  C_5
REMARK    3  A    between atoms: C_13  and  C_14
REMARK                            x       y       z     vdW  Elec       q    Type
REMARK                         _______ _______ _______ _____ _____    ______ ____
ROOT
ATOM      1  C   UNL     1       3.755   1.851  19.176  0.00  0.00    +0.000 A 
ATOM      2  C   UNL     1       4.764   2.805  19.086  0.00  0.00    +0.000 A 
ATOM      3  C   UNL     1       4.508   4.169  19.325  0.00  0.00    +0.000 A 
ATOM      4  C   UNL     1       3.206   4.568  19.729  0.00  0.00    +0.000 A 
ATOM      5  N   UNL     1       2.921   5.861  20.030  0.00  0.00    +0.000 NA
ATOM      6  C   UNL     1       1.651   6.196  20.377  0.00  0.00    +0.000 A 
ATOM      7  C   UNL     1       0.614   5.280  20.444  0.00  0.00    +0.000 A 
ATOM      8  C   UNL     1       0.891   3.956  20.143  0.00  0.00    +0.000 A 
ATOM      9  C   UNL     1       2.192   3.579  19.793  0.00  0.00    +0.000 A 
ATOM     10  C   UNL     1       2.467   2.236  19.510  0.00  0.00    +0.000 A 
ENDROOT
BRANCH   6  11
ATOM     11  C   UNL     1       1.402   7.601  20.681  0.00  0.00    +0.000 A 
ATOM     12  N   UNL     1       0.954   8.057  21.847  0.00  0.00    +0.000 NA
ATOM     13  N   UNL     1       0.792   9.417  21.755  0.00  0.00    +0.000 NA
ATOM     14  C   UNL     1       1.113   9.773  20.532  0.00  0.00    +0.000 A 
ATOM     15  C   UNL     1       1.094  11.031  19.870  0.00  0.00    +0.000 A 
ATOM     16  C   UNL     1       1.433  11.102  18.568  0.00  0.00    +0.000 A 
ATOM     17  C   UNL     1       1.835   9.918  17.824  0.00  0.00    +0.000 A 
ATOM     18  C   UNL     1       1.865   8.729  18.448  0.00  0.00    +0.000 A 
ATOM     19  N   UNL     1       1.509   8.658  19.800  0.00  0.00    +0.000 N 
ENDBRANCH   6  11
BRANCH   3  20
ATOM     20  N   UNL     1       5.524   5.155  19.189  0.00  0.00    +0.000 N 
ATOM     21  H   UNL     1       5.616   5.624  20.093  0.00  0.00    +0.000 HD
BRANCH  20  22
ATOM     22  C   UNL     1       6.809   4.848  18.540  0.00  0.00    +0.000 C 
ATOM     23  C   UNL     1       7.869   5.917  18.861  0.00  0.00    +0.000 C 
ATOM     24  C   UNL     1       7.747   7.192  18.027  0.00  0.00    +0.000 C 
ATOM     25  N   UNL     1       7.633   6.940  16.591  0.00  0.00    +0.000 NA
ATOM     26  C   UNL     1       6.504   6.053  16.314  0.00  0.00    +0.000 C 
ATOM     27  C   UNL     1       6.653   4.709  17.018  0.00  0.00    +0.000 C 
ATOM     28  H   UNL     1       8.493   6.520  16.239  0.00  0.00    +0.000 HD
ENDBRANCH  20  22
ENDBRANCH   3  20
TORSDOF 3
ENDMDL
MODEL 4
REMARK VINA RESULT:      -8.2      1.699      4.168
REMARK  Name = 
REMARK  3 active torsions:
REMARK  status: ('A' for Active; 'I' for Inactive)
REMARK    1  A    between atoms: C_3  and  N_4
REMARK    2  A    between atoms: N_4  and  C_5
REMARK    3  A    between atoms: C_13  and  C_14
REMARK                            x       y       z     vdW  Elec       q    Type
REMARK                         _______ _______ _______ _____ _____    ______ ____
ROOT
ATOM      1  C   UNL     1       5.565   4.334  16.476  0.00  0.00    +0.000 A 
ATOM      2  C   UNL     1       5.246   3.715  17.681  0.00  0.00    +0.000 A 
ATOM      3  C   UNL     1       4.442   4.354  18.644  0.00  0.00    +0.000 A 
ATOM      4  C   UNL     1       3.894   5.632  18.351  0.00  0.00    +0.000 A 
ATOM      5  N   UNL     1       3.065   6.265  19.219  0.00  0.00    +0.000 NA
ATOM      6  C   UNL     1       2.597   7.501  18.908  0.00  0.00    +0.000 A 
ATOM      7  C   UNL     1       2.921   8.162  17.734  0.00  0.00    +0.000 A 
ATOM      8  C   UNL     1       3.763   7.527  16.837  0.00  0.00    +0.000 A 
ATOM      9  C   UNL     1       4.252   6.249  17.126  0.00  0.00    +0.000 A 
ATOM     10  C   UNL     1       5.086   5.605  16.205  0.00  0.00    +0.000 A 
ENDROOT
BRANCH   6  11
ATOM     11  C   UNL     1       1.718   8.137  19.883  0.00  0.00    +0.000 A 
ATOM     12  N   UNL     1       1.386   7.614  21.060  0.00  0.00    +0.000 NA
ATOM     13  N   UNL     1       0.508   8.462  21.687  0.00  0.00    +0.000 NA
ATOM     14  C   UNL     1       0.290   9.475  20.879  0.00  0.00    +0.000 A 
ATOM     15  C   UNL     1      -0.553  10.615  20.987  0.00  0.00    +0.000 A 
ATOM     16  C   UNL     1      -0.623  11.489  19.964  0.00  0.00    +0.000 A 
ATOM     17  C   UNL     1       0.159  11.301  18.751  0.00  0.00    +0.000 A 
ATOM     18  C   UNL     1       0.965  10.231  18.650  0.00  0.00    +0.000 A 
ATOM     19  N   UNL     1       1.034   9.323  19.713  0.00  0.00    +0.000 N 
ENDBRANCH   6  11
BRANCH   3  20
ATOM     20  N   UNL     1       4.150   3.745  19.896  0.00  0.00    +0.000 N 
ATOM     21  H   UNL     1       3.825   4.483  20.525  0.00  0.00    +0.000 HD
BRANCH  20  22
ATOM     22  C   UNL     1       3.371   2.499  19.980  0.00  0.00    +0.000 C 
ATOM     23  C   UNL     1       2.425   2.347  18.775  0.00  0.00    +0.000 C 
ATOM     24  C   UNL     1       1.137   3.165  18.881  0.00  0.00    +0.000 C 
ATOM     25  N   UNL     1       0.441   2.993  20.154  0.00  0.00    +0.000 NA
ATOM     26  C   UNL     1       1.329   3.315  21.271  0.00  0.00    +0.000 C 
ATOM     27  C   UNL     1       2.566   2.423  21.287  0.00  0.00    +0.000 C 
ATOM     28  H   UNL     1       0.109   2.034  20.247  0.00  0.00    +0.000 HD
ENDBRANCH  20  22
ENDBRANCH   3  20
TORSDOF 3
ENDMDL
MODEL 5
REMARK VINA RESULT:      -8.1      1.716      6.032
REMARK  Name = 
REMARK  3 active torsions:
REMARK  status: ('A' for Active; 'I' for Inactive)
REMARK    1  A    between atoms: C_3  and  N_4
REMARK    2  A    between atoms: N_4  and  C_5
REMARK    3  A    between atoms: C_13  and  C_14
REMARK                            x       y       z     vdW  Elec       q    Type
REMARK                         _______ _______ _______ _____ _____    ______ ____
ROOT
ATOM      1  C   UNL     1       0.158   8.607  21.187  0.00  0.00    +0.000 A 
ATOM      2  C   UNL     1       0.719   7.388  21.555  0.00  0.00    +0.000 A 
ATOM      3  C   UNL     1       1.699   6.761  20.763  0.00  0.00    +0.000 A 
ATOM      4  C   UNL     1       2.170   7.420  19.595  0.00  0.00    +0.000 A 
ATOM      5  N   UNL     1       3.156   6.888  18.829  0.00  0.00    +0.000 NA
ATOM      6  C   UNL     1       3.546   7.539  17.702  0.00  0.00    +0.000 A 
ATOM      7  C   UNL     1       2.988   8.737  17.287  0.00  0.00    +0.000 A 
ATOM      8  C   UNL     1       1.982   9.294  18.061  0.00  0.00    +0.000 A 
ATOM      9  C   UNL     1       1.568   8.650  19.231  0.00  0.00    +0.000 A 
ATOM     10  C   UNL     1       0.566   9.230  20.019  0.00  0.00    +0.000 A 
ENDROOT
BRANCH   6  11
ATOM     11  C   UNL     1       4.603   6.916  16.914  0.00  0.00    +0.000 A 
ATOM     12  N   UNL     1       4.685   6.957  15.587  0.00  0.00    +0.000 NA
ATOM     13  N   UNL     1       5.775   6.225  15.190  0.00  0.00    +0.000 NA
ATOM     14  C   UNL     1       6.329   5.722  16.269  0.00  0.00    +0.000 A 
ATOM     15  C   UNL     1       7.445   4.860  16.454  0.00  0.00    +0.000 A 
ATOM     16  C   UNL     1       7.770   4.450  17.696  0.00  0.00    +0.000 A 
ATOM     17  C   UNL     1       7.011   4.882  18.860  0.00  0.00    +0.000 A 
ATOM     18  C   UNL     1       5.962   5.705  18.690  0.00  0.00    +0.000 A 
ATOM     19  N   UNL     1       5.626   6.128  17.399  0.00  0.00    +0.000 N 
ENDBRANCH   6  11
BRANCH   3  20
ATOM     20  N   UNL     1       2.242   5.493  21.110  0.00  0.00    +0.000 N 
ATOM     21  H   UNL     1       2.650   5.582  22.043  0.00  0.00    +0.000 HD
BRANCH  20  22
ATOM     22  C   UNL     1       1.481   4.251  20.904  0.00  0.00    +0.000 C 
ATOM     23  C   UNL     1       2.203   3.041  21.524  0.00  0.00    +0.000 C 
ATOM     24  C   UNL     1       3.347   2.488  20.674  0.00  0.00    +0.000 C 
ATOM     25  N   UNL     1       2.975   2.253  19.280  0.00  0.00    +0.000 NA
ATOM     26  C   UNL     1       2.451   3.477  18.676  0.00  0.00    +0.000 C 
ATOM     27  C   UNL     1       1.218   3.991  19.412  0.00  0.00    +0.000 C 
ATOM     28  H   UNL     1       2.272   1.516  19.222  0.00  0.00    +0.000 HD
ENDBRANCH  20  22
ENDBRANCH   3  20
TORSDOF 3
ENDMDL
MODEL 6
REMARK VINA RESULT:      -8.0      2.339      4.752
REMARK  Name = 
REMARK  3 active torsions:
REMARK  status: ('A' for Active; 'I' for Inactive)
REMARK    1  A    between atoms: C_3  and  N_4
REMARK    2  A    between atoms: N_4  and  C_5
REMARK    3  A    between atoms: C_13  and  C_14
REMARK                            x       y       z     vdW  Elec       q    Type
REMARK                         _______ _______ _______ _____ _____    ______ ____
ROOT
ATOM      1  C   UNL     1       3.756   6.049  17.307  0.00  0.00    +0.000 A 
ATOM      2  C   UNL     1       3.643   5.376  18.519  0.00  0.00    +0.000 A 
ATOM      3  C   UNL     1       3.006   5.964  19.629  0.00  0.00    +0.000 A 
ATOM      4  C   UNL     1       2.411   7.246  19.486  0.00  0.00    +0.000 A 
ATOM      5  N   UNL     1       1.733   7.831  20.506  0.00  0.00    +0.000 NA
ATOM      6  C   UNL     1       1.213   9.074  20.330  0.00  0.00    +0.000 A 
ATOM      7  C   UNL     1       1.334   9.787  19.148  0.00  0.00    +0.000 A 
ATOM      8  C   UNL     1       2.020   9.201  18.098  0.00  0.00    +0.000 A 
ATOM      9  C   UNL     1       2.558   7.918  18.246  0.00  0.00    +0.000 A 
ATOM     10  C   UNL     1       3.231   7.324  17.173  0.00  0.00    +0.000 A 
ENDROOT
BRANCH   6  11
ATOM     11  C   UNL     1       0.503   9.656  21.463  0.00  0.00    +0.000 A 
ATOM     12  N   UNL     1       0.632   9.258  22.725  0.00  0.00    +0.000 NA
ATOM     13  N   UNL     1      -0.220   9.996  23.509  0.00  0.00    +0.000 NA
ATOM     14  C   UNL     1      -0.878  10.812  22.719  0.00  0.00    +0.000 A 
ATOM     15  C   UNL     1      -1.905  11.763  22.973  0.00  0.00    +0.000 A 
ATOM     16  C   UNL     1      -2.450  12.443  21.946  0.00  0.00    +0.000 A 
ATOM     17  C   UNL     1      -2.001  12.238  20.578  0.00  0.00    +0.000 A 
ATOM     18  C   UNL     1      -1.023  11.349  20.334  0.00  0.00    +0.000 A 
ATOM     19  N   UNL     1      -0.460  10.642  21.403  0.00  0.00    +0.000 N 
ENDBRANCH   6  11
BRANCH   3  20
ATOM     20  N   UNL     1       2.929   5.299  20.884  0.00  0.00    +0.000 N 
ATOM     21  H   UNL     1       3.077   6.004  21.610  0.00  0.00    +0.000 HD
BRANCH  20  22
ATOM     22  C   UNL     1       1.847   4.348  21.183  0.00  0.00    +0.000 C 
ATOM     23  C   UNL     1       2.404   2.947  21.498  0.00  0.00    +0.000 C 
ATOM     24  C   UNL     1       2.787   2.131  20.263  0.00  0.00    +0.000 C 
ATOM     25  N   UNL     1       1.741   2.094  19.243  0.00  0.00    +0.000 NA
ATOM     26  C   UNL     1       1.361   3.449  18.847  0.00  0.00    +0.000 C 
ATOM     27  C   UNL     1       0.838   4.259  20.028  0.00  0.00    +0.000 C 
ATOM     28  H   UNL     1       0.922   1.599  19.596  0.00  0.00    +0.000 HD
ENDBRANCH  20  22
ENDBRANCH   3  20
TORSDOF 3
ENDMDL
MODEL 7
REMARK VINA RESULT:      -8.0      1.446      2.267
REMARK  Name = 
REMARK  3 active torsions:
REMARK  status: ('A' for Active; 'I' for Inactive)
REMARK    1  A    between atoms: C_3  and  N_4
REMARK    2  A    between atoms: N_4  and  C_5
REMARK    3  A    between atoms: C_13  and  C_14
REMARK                            x       y       z     vdW  Elec       q    Type
REMARK                         _______ _______ _______ _____ _____    ______ ____
ROOT
ATOM      1  C   UNL     1       3.622   1.973  17.893  0.00  0.00    +0.000 A 
ATOM      2  C   UNL     1       4.447   3.020  17.493  0.00  0.00    +0.000 A 
ATOM      3  C   UNL     1       4.196   4.346  17.892  0.00  0.00    +0.000 A 
ATOM      4  C   UNL     1       3.114   4.610  18.775  0.00  0.00    +0.000 A 
ATOM      5  N   UNL     1       2.865   5.862  19.237  0.00  0.00    +0.000 NA
ATOM      6  C   UNL     1       1.797   6.068  20.050  0.00  0.00    +0.000 A 
ATOM      7  C   UNL     1       0.935   5.057  20.443  0.00  0.00    +0.000 A 
ATOM      8  C   UNL     1       1.178   3.774  19.981  0.00  0.00    +0.000 A 
ATOM      9  C   UNL     1       2.278   3.530  19.151  0.00  0.00    +0.000 A 
ATOM     10  C   UNL     1       2.529   2.227  18.705  0.00  0.00    +0.000 A 
ENDROOT
BRANCH   6  11
ATOM     11  C   UNL     1       1.573   7.435  20.509  0.00  0.00    +0.000 A 
ATOM     12  N   UNL     1       1.268   7.775  21.758  0.00  0.00    +0.000 NA
ATOM     13  N   UNL     1       1.082   9.134  21.811  0.00  0.00    +0.000 NA
ATOM     14  C   UNL     1       1.247   9.604  20.596  0.00  0.00    +0.000 A 
ATOM     15  C   UNL     1       1.135  10.916  20.058  0.00  0.00    +0.000 A 
ATOM     16  C   UNL     1       1.310  11.110  18.737  0.00  0.00    +0.000 A 
ATOM     17  C   UNL     1       1.629  10.006  17.844  0.00  0.00    +0.000 A 
ATOM     18  C   UNL     1       1.747   8.767  18.349  0.00  0.00    +0.000 A 
ATOM     19  N   UNL     1       1.561   8.568  19.722  0.00  0.00    +0.000 N 
ENDBRANCH   6  11
BRANCH   3  20
ATOM     20  N   UNL     1       5.008   5.426  17.448  0.00  0.00    +0.000 N 
ATOM     21  H   UNL     1       4.837   6.214  18.077  0.00  0.00    +0.000 HD
BRANCH  20  22
ATOM     22  C   UNL     1       6.426   5.229  17.105  0.00  0.00    +0.000 C 
ATOM     23  C   UNL     1       7.231   4.727  18.317  0.00  0.00    +0.000 C 
ATOM     24  C   UNL     1       7.619   5.822  19.311  0.00  0.00    +0.000 C 
ATOM     25  N   UNL     1       8.237   6.987  18.682  0.00  0.00    +0.000 NA
ATOM     26  C   UNL     1       7.360   7.538  17.650  0.00  0.00    +0.000 C 
ATOM     27  C   UNL     1       7.059   6.518  16.558  0.00  0.00    +0.000 C 
ATOM     28  H   UNL     1       9.133   6.729  18.268  0.00  0.00    +0.000 HD
ENDBRANCH  20  22
ENDBRANCH   3  20
TORSDOF 3
ENDMDL
MODEL 8
REMARK VINA RESULT:      -8.0      1.461      1.879
REMARK  Name = 
REMARK  3 active torsions:
REMARK  status: ('A' for Active; 'I' for Inactive)
REMARK    1  A    between atoms: C_3  and  N_4
REMARK    2  A    between atoms: N_4  and  C_5
REMARK    3  A    between atoms: C_13  and  C_14
REMARK                            x       y       z     vdW  Elec       q    Type
REMARK                         _______ _______ _______ _____ _____    ______ ____
ROOT
ATOM      1  C   UNL     1       4.021   1.792  18.631  0.00  0.00    +0.000 A 
ATOM      2  C   UNL     1       5.041   2.639  19.053  0.00  0.00    +0.000 A 
ATOM      3  C   UNL     1       4.887   4.039  19.033  0.00  0.00    +0.000 A 
ATOM      4  C   UNL     1       3.642   4.593  18.632  0.00  0.00    +0.000 A 
ATOM      5  N   UNL     1       3.422   5.932  18.651  0.00  0.00    +0.000 NA
ATOM      6  C   UNL     1       2.226   6.414  18.224  0.00  0.00    +0.000 A 
ATOM      7  C   UNL     1       1.200   5.603  17.767  0.00  0.00    +0.000 A 
ATOM      8  C   UNL     1       1.409   4.234  17.744  0.00  0.00    +0.000 A 
ATOM      9  C   UNL     1       2.628   3.708  18.188  0.00  0.00    +0.000 A 
ATOM     10  C   UNL     1       2.823   2.323  18.181  0.00  0.00    +0.000 A 
ENDROOT
BRANCH   6  11
ATOM     11  C   UNL     1       2.050   7.862  18.259  0.00  0.00    +0.000 A 
ATOM     12  N   UNL     1       2.400   8.693  17.281  0.00  0.00    +0.000 NA
ATOM     13  N   UNL     1       2.132   9.979  17.679  0.00  0.00    +0.000 NA
ATOM     14  C   UNL     1       1.651   9.924  18.900  0.00  0.00    +0.000 A 
ATOM     15  C   UNL     1       1.247  10.938  19.811  0.00  0.00    +0.000 A 
ATOM     16  C   UNL     1       0.831  10.595  21.046  0.00  0.00    +0.000 A 
ATOM     17  C   UNL     1       0.771   9.203  21.466  0.00  0.00    +0.000 A 
ATOM     18  C   UNL     1       1.141   8.241  20.604  0.00  0.00    +0.000 A 
ATOM     19  N   UNL     1       1.575   8.600  19.323  0.00  0.00    +0.000 N 
ENDBRANCH   6  11
BRANCH   3  20
ATOM     20  N   UNL     1       5.943   4.912  19.419  0.00  0.00    +0.000 N 
ATOM     21  H   UNL     1       5.991   4.896  20.440  0.00  0.00    +0.000 HD
BRANCH  20  22
ATOM     22  C   UNL     1       7.255   4.869  18.754  0.00  0.00    +0.000 C 
ATOM     23  C   UNL     1       8.003   6.206  18.903  0.00  0.00    +0.000 C 
ATOM     24  C   UNL     1       7.542   7.294  17.933  0.00  0.00    +0.000 C 
ATOM     25  N   UNL     1       7.481   6.847  16.543  0.00  0.00    +0.000 NA
ATOM     26  C   UNL     1       6.620   5.672  16.420  0.00  0.00    +0.000 C 
ATOM     27  C   UNL     1       7.123   4.509  17.266  0.00  0.00    +0.000 C 
ATOM     28  H   UNL     1       8.416   6.623  16.204  0.00  0.00    +0.000 HD
ENDBRANCH  20  22
ENDBRANCH   3  20
TORSDOF 3
ENDMDL
MODEL 9
REMARK VINA RESULT:      -8.0      2.014      4.461
REMARK  Name = 
REMARK  3 active torsions:
REMARK  status: ('A' for Active; 'I' for Inactive)
REMARK    1  A    between atoms: C_3  and  N_4
REMARK    2  A    between atoms: N_4  and  C_5
REMARK    3  A    between atoms: C_13  and  C_14
REMARK                            x       y       z     vdW  Elec       q    Type
REMARK                         _______ _______ _______ _____ _____    ______ ____
ROOT
ATOM      1  C   UNL     1       5.067   5.701  16.667  0.00  0.00    +0.000 A 
ATOM      2  C   UNL     1       4.881   4.891  17.782  0.00  0.00    +0.000 A 
ATOM      3  C   UNL     1       4.046   5.286  18.845  0.00  0.00    +0.000 A 
ATOM      4  C   UNL     1       3.331   6.509  18.746  0.00  0.00    +0.000 A 
ATOM      5  N   UNL     1       2.468   6.907  19.715  0.00  0.00    +0.000 NA
ATOM      6  C   UNL     1       1.835   8.103  19.590  0.00  0.00    +0.000 A 
ATOM      7  C   UNL     1       2.021   8.951  18.510  0.00  0.00    +0.000 A 
ATOM      8  C   UNL     1       2.897   8.556  17.512  0.00  0.00    +0.000 A 
ATOM      9  C   UNL     1       3.555   7.325  17.609  0.00  0.00    +0.000 A 
ATOM     10  C   UNL     1       4.421   6.924  16.586  0.00  0.00    +0.000 A 
ENDROOT
BRANCH   6  11
ATOM     11  C   UNL     1       0.927   8.482  20.666  0.00  0.00    +0.000 A 
ATOM     12  N   UNL     1       0.238   7.626  21.415  0.00  0.00    +0.000 NA
ATOM     13  N   UNL     1      -0.546   8.337  22.289  0.00  0.00    +0.000 NA
ATOM     14  C   UNL     1      -0.351   9.613  22.047  0.00  0.00    +0.000 A 
ATOM     15  C   UNL     1      -0.923  10.788  22.610  0.00  0.00    +0.000 A 
ATOM     16  C   UNL     1      -0.572  11.995  22.127  0.00  0.00    +0.000 A 
ATOM     17  C   UNL     1       0.395  12.128  21.048  0.00  0.00    +0.000 A 
ATOM     18  C   UNL     1       0.945  11.022  20.521  0.00  0.00    +0.000 A 
ATOM     19  N   UNL     1       0.577   9.768  21.023  0.00  0.00    +0.000 N 
ENDBRANCH   6  11
BRANCH   3  20
ATOM     20  N   UNL     1       3.888   4.482  20.009  0.00  0.00    +0.000 N 
ATOM     21  H   UNL     1       3.401   5.049  20.706  0.00  0.00    +0.000 HD
BRANCH  20  22
ATOM     22  C   UNL     1       3.409   3.094  19.923  0.00  0.00    +0.000 C 
ATOM     23  C   UNL     1       2.280   2.954  18.885  0.00  0.00    +0.000 C 
ATOM     24  C   UNL     1       0.907   3.402  19.386  0.00  0.00    +0.000 C 
ATOM     25  N   UNL     1       0.543   2.826  20.679  0.00  0.00    +0.000 NA
ATOM     26  C   UNL     1       1.563   3.131  21.681  0.00  0.00    +0.000 C 
ATOM     27  C   UNL     1       2.928   2.577  21.287  0.00  0.00    +0.000 C 
ATOM     28  H   UNL     1       0.435   1.816  20.597  0.00  0.00    +0.000 HD
ENDBRANCH  20  22
ENDBRANCH   3  20
TORSDOF 3
ENDMDL
