MODEL 1
REMARK VINA RESULT:      -6.6      0.000      0.000
REMARK  Name = 
REMARK  3 active torsions:
REMARK  status: ('A' for Active; 'I' for Inactive)
REMARK    1  A    between atoms: C_1  and  C_2
REMARK    2  A    between atoms: C_2  and  C_3
REMARK    3  A    between atoms: C_5  and  C_6
REMARK                            x       y       z     vdW  Elec       q    Type
REMARK                         _______ _______ _______ _____ _____    ______ ____
ROOT
ATOM      1  C   UNL     1       3.691   4.177  17.468  0.00  0.00    +0.000 A 
ATOM      2  N   UNL     1       2.561   4.875  17.671  0.00  0.00    +0.000 NA
ATOM      3  N   UNL     1       1.718   3.913  18.080  0.00  0.00    +0.000 N 
ATOM      4  C   UNL     1       2.334   2.697  18.136  0.00  0.00    +0.000 A 
ATOM      5  N   UNL     1       1.700   1.578  18.509  0.00  0.00    +0.000 N 
ATOM      6  N   UNL     1       3.577   2.833  17.764  0.00  0.00    +0.000 NA
ATOM      7  H   UNL     1       0.756   4.145  18.288  0.00  0.00    +0.000 HD
ATOM      8  H   UNL     1       0.820   1.578  19.010  0.00  0.00    +0.000 HD
ATOM      9  H   UNL     1       2.278   0.760  18.684  0.00  0.00    +0.000 HD
ENDROOT
BRANCH   1  12
ATOM     10  C   UNL     1       6.914   6.071  17.271  0.00  0.00    +0.000 A 
ATOM     11  C   UNL     1       5.719   5.567  17.773  0.00  0.00    +0.000 A 
ATOM     12  C   UNL     1       4.925   4.758  16.954  0.00  0.00    +0.000 A 
ATOM     13  C   UNL     1       5.353   4.499  15.651  0.00  0.00    +0.000 A 
ATOM     14  C   UNL     1       6.546   5.052  15.230  0.00  0.00    +0.000 A 
ATOM     15  N   UNL     1       7.332   5.828  16.007  0.00  0.00    +0.000 NA
BRANCH  10  17
ATOM     16  C   UNL     1       7.837   8.369  17.639  0.00  0.00    +0.000 C 
ATOM     17  C   UNL     1       7.800   6.932  18.132  0.00  0.00    +0.000 C 
ENDBRANCH  10  17
ENDBRANCH   1  12
TORSDOF 2
ENDMDL
MODEL 2
REMARK VINA RESULT:      -6.6      0.973      1.314
REMARK  Name = 
REMARK  3 active torsions:
REMARK  status: ('A' for Active; 'I' for Inactive)
REMARK    1  A    between atoms: C_1  and  C_2
REMARK    2  A    between atoms: C_2  and  C_3
REMARK    3  A    between atoms: C_5  and  C_6
REMARK                            x       y       z     vdW  Elec       q    Type
REMARK                         _______ _______ _______ _____ _____    ______ ____
ROOT
ATOM      1  C   UNL     1       4.599   3.526  18.217  0.00  0.00    +0.000 A 
ATOM      2  N   UNL     1       4.728   3.175  19.508  0.00  0.00    +0.000 NA
ATOM      3  N   UNL     1       3.628   2.428  19.698  0.00  0.00    +0.000 N 
ATOM      4  C   UNL     1       2.889   2.326  18.556  0.00  0.00    +0.000 A 
ATOM      5  N   UNL     1       1.741   1.639  18.493  0.00  0.00    +0.000 N 
ATOM      6  N   UNL     1       3.478   3.000  17.606  0.00  0.00    +0.000 NA
ATOM      7  H   UNL     1       3.439   2.037  20.611  0.00  0.00    +0.000 HD
ATOM      8  H   UNL     1       1.467   0.950  19.183  0.00  0.00    +0.000 HD
ATOM      9  H   UNL     1       1.354   1.478  17.567  0.00  0.00    +0.000 HD
ENDROOT
BRANCH   1  12
ATOM     10  C   UNL     1       7.176   6.152  17.533  0.00  0.00    +0.000 A 
ATOM     11  C   UNL     1       6.266   5.358  18.221  0.00  0.00    +0.000 A 
ATOM     12  C   UNL     1       5.526   4.404  17.516  0.00  0.00    +0.000 A 
ATOM     13  C   UNL     1       5.715   4.296  16.138  0.00  0.00    +0.000 A 
ATOM     14  C   UNL     1       6.629   5.136  15.532  0.00  0.00    +0.000 A 
ATOM     15  N   UNL     1       7.360   6.057  16.195  0.00  0.00    +0.000 NA
BRANCH  10  17
ATOM     16  C   UNL     1       7.834   8.565  17.666  0.00  0.00    +0.000 C 
ATOM     17  C   UNL     1       8.000   7.178  18.266  0.00  0.00    +0.000 C 
ENDBRANCH  10  17
ENDBRANCH   1  12
TORSDOF 2
ENDMDL
MODEL 3
REMARK VINA RESULT:      -6.6      1.940      5.539
REMARK  Name = 
REMARK  3 active torsions:
REMARK  status: ('A' for Active; 'I' for Inactive)
REMARK    1  A    between atoms: C_1  and  C_2
REMARK    2  A    between atoms: C_2  and  C_3
REMARK    3  A    between atoms: C_5  and  C_6
REMARK                            x       y       z     vdW  Elec       q    Type
REMARK                         _______ _______ _______ _____ _____    ______ ____
ROOT
ATOM      1  C   UNL     1       5.557   4.405  17.391  0.00  0.00    +0.000 A 
ATOM      2  N   UNL     1       6.713   4.395  18.077  0.00  0.00    +0.000 NA
ATOM      3  N   UNL     1       7.596   4.734  17.124  0.00  0.00    +0.000 N 
ATOM      4  C   UNL     1       6.982   4.956  15.926  0.00  0.00    +0.000 A 
ATOM      5  N   UNL     1       7.651   5.300  14.819  0.00  0.00    +0.000 N 
ATOM      6  N   UNL     1       5.698   4.764  16.065  0.00  0.00    +0.000 NA
ATOM      7  H   UNL     1       8.581   4.783  17.348  0.00  0.00    +0.000 HD
ATOM      8  H   UNL     1       8.596   5.665  14.831  0.00  0.00    +0.000 HD
ATOM      9  H   UNL     1       7.096   5.609  14.025  0.00  0.00    +0.000 HD
ENDROOT
BRANCH   1  12
ATOM     10  C   UNL     1       2.939   3.270  19.813  0.00  0.00    +0.000 A 
ATOM     11  C   UNL     1       4.187   3.564  19.275  0.00  0.00    +0.000 A 
ATOM     12  C   UNL     1       4.267   4.044  17.965  0.00  0.00    +0.000 A 
ATOM     13  C   UNL     1       3.088   4.194  17.233  0.00  0.00    +0.000 A 
ATOM     14  C   UNL     1       1.892   3.864  17.841  0.00  0.00    +0.000 A 
ATOM     15  N   UNL     1       1.792   3.407  19.107  0.00  0.00    +0.000 NA
BRANCH  10  17
ATOM     16  C   UNL     1       1.366   2.690  21.673  0.00  0.00    +0.000 C 
ATOM     17  C   UNL     1       2.817   2.765  21.227  0.00  0.00    +0.000 C 
ENDBRANCH  10  17
ENDBRANCH   1  12
TORSDOF 2
ENDMDL
MODEL 4
REMARK VINA RESULT:      -6.5      1.240      2.823
REMARK  Name = 
REMARK  3 active torsions:
REMARK  status: ('A' for Active; 'I' for Inactive)
REMARK    1  A    between atoms: C_1  and  C_2
REMARK    2  A    between atoms: C_2  and  C_3
REMARK    3  A    between atoms: C_5  and  C_6
REMARK                            x       y       z     vdW  Elec       q    Type
REMARK                         _______ _______ _______ _____ _____    ______ ____
ROOT
ATOM      1  C   UNL     1       4.684   3.515  18.318  0.00  0.00    +0.000 A 
ATOM      2  N   UNL     1       4.850   3.132  19.595  0.00  0.00    +0.000 NA
ATOM      3  N   UNL     1       3.729   2.426  19.814  0.00  0.00    +0.000 N 
ATOM      4  C   UNL     1       2.941   2.377  18.701  0.00  0.00    +0.000 A 
ATOM      5  N   UNL     1       1.766   1.738  18.671  0.00  0.00    +0.000 N 
ATOM      6  N   UNL     1       3.520   3.047  17.742  0.00  0.00    +0.000 NA
ATOM      7  H   UNL     1       3.560   2.023  20.726  0.00  0.00    +0.000 HD
ATOM      8  H   UNL     1       1.491   1.045  19.357  0.00  0.00    +0.000 HD
ATOM      9  H   UNL     1       1.336   1.612  17.758  0.00  0.00    +0.000 HD
ENDROOT
BRANCH   1  12
ATOM     10  C   UNL     1       6.734   5.010  15.566  0.00  0.00    +0.000 A 
ATOM     11  C   UNL     1       5.873   4.151  16.240  0.00  0.00    +0.000 A 
ATOM     12  C   UNL     1       5.618   4.371  17.597  0.00  0.00    +0.000 A 
ATOM     13  C   UNL     1       6.252   5.438  18.234  0.00  0.00    +0.000 A 
ATOM     14  C   UNL     1       7.104   6.233  17.491  0.00  0.00    +0.000 A 
ATOM     15  N   UNL     1       7.358   6.044  16.178  0.00  0.00    +0.000 NA
BRANCH  10  17
ATOM     16  C   UNL     1       6.040   3.837  13.466  0.00  0.00    +0.000 C 
ATOM     17  C   UNL     1       7.018   4.811  14.100  0.00  0.00    +0.000 C 
ENDBRANCH  10  17
ENDBRANCH   1  12
TORSDOF 2
ENDMDL
MODEL 5
REMARK VINA RESULT:      -6.5      1.665      2.859
REMARK  Name = 
REMARK  3 active torsions:
REMARK  status: ('A' for Active; 'I' for Inactive)
REMARK    1  A    between atoms: C_1  and  C_2
REMARK    2  A    between atoms: C_2  and  C_3
REMARK    3  A    between atoms: C_5  and  C_6
REMARK                            x       y       z     vdW  Elec       q    Type
REMARK                         _______ _______ _______ _____ _____    ______ ____
ROOT
ATOM      1  C   UNL     1       3.153   3.569  17.748  0.00  0.00    +0.000 A 
ATOM      2  N   UNL     1       3.358   2.241  17.758  0.00  0.00    +0.000 NA
ATOM      3  N   UNL     1       2.311   1.810  18.480  0.00  0.00    +0.000 N 
ATOM      4  C   UNL     1       1.507   2.844  18.864  0.00  0.00    +0.000 A 
ATOM      5  N   UNL     1       0.403   2.671  19.600  0.00  0.00    +0.000 N 
ATOM      6  N   UNL     1       2.008   3.962  18.412  0.00  0.00    +0.000 NA
ATOM      7  H   UNL     1       2.211   0.824  18.680  0.00  0.00    +0.000 HD
ATOM      8  H   UNL     1      -0.057   1.776  19.711  0.00  0.00    +0.000 HD
ATOM      9  H   UNL     1      -0.218   3.471  19.691  0.00  0.00    +0.000 HD
ENDROOT
BRANCH   1  12
ATOM     10  C   UNL     1       5.774   5.058  15.529  0.00  0.00    +0.000 A 
ATOM     11  C   UNL     1       4.953   4.114  16.135  0.00  0.00    +0.000 A 
ATOM     12  C   UNL     1       4.059   4.528  17.127  0.00  0.00    +0.000 A 
ATOM     13  C   UNL     1       4.035   5.875  17.488  0.00  0.00    +0.000 A 
ATOM     14  C   UNL     1       4.896   6.743  16.844  0.00  0.00    +0.000 A 
ATOM     15  N   UNL     1       5.760   6.366  15.877  0.00  0.00    +0.000 NA
BRANCH  10  17
ATOM     16  C   UNL     1       6.068   3.770  13.402  0.00  0.00    +0.000 C 
ATOM     17  C   UNL     1       6.737   4.648  14.446  0.00  0.00    +0.000 C 
ENDBRANCH  10  17
ENDBRANCH   1  12
TORSDOF 2
ENDMDL
MODEL 6
REMARK VINA RESULT:      -6.5      2.866      5.012
REMARK  Name = 
REMARK  3 active torsions:
REMARK  status: ('A' for Active; 'I' for Inactive)
REMARK    1  A    between atoms: C_1  and  C_2
REMARK    2  A    between atoms: C_2  and  C_3
REMARK    3  A    between atoms: C_5  and  C_6
REMARK                            x       y       z     vdW  Elec       q    Type
REMARK                         _______ _______ _______ _____ _____    ______ ____
ROOT
ATOM      1  C   UNL     1       6.721   4.769  15.520  0.00  0.00    +0.000 A 
ATOM      2  N   UNL     1       7.530   5.562  14.797  0.00  0.00    +0.000 NA
ATOM      3  N   UNL     1       7.416   5.022  13.573  0.00  0.00    +0.000 N 
ATOM      4  C   UNL     1       6.556   3.963  13.570  0.00  0.00    +0.000 A 
ATOM      5  N   UNL     1       6.281   3.253  12.469  0.00  0.00    +0.000 N 
ATOM      6  N   UNL     1       6.097   3.785  14.779  0.00  0.00    +0.000 NA
ATOM      7  H   UNL     1       7.948   5.406  12.804  0.00  0.00    +0.000 HD
ATOM      8  H   UNL     1       6.475   3.583  11.532  0.00  0.00    +0.000 HD
ATOM      9  H   UNL     1       5.506   2.597  12.527  0.00  0.00    +0.000 HD
ENDROOT
BRANCH   1  12
ATOM     10  C   UNL     1       5.271   4.432  18.954  0.00  0.00    +0.000 A 
ATOM     11  C   UNL     1       5.407   4.333  17.574  0.00  0.00    +0.000 A 
ATOM     12  C   UNL     1       6.528   4.898  16.959  0.00  0.00    +0.000 A 
ATOM     13  C   UNL     1       7.465   5.561  17.752  0.00  0.00    +0.000 A 
ATOM     14  C   UNL     1       7.243   5.626  19.115  0.00  0.00    +0.000 A 
ATOM     15  N   UNL     1       6.173   5.079  19.730  0.00  0.00    +0.000 NA
BRANCH  10  17
ATOM     16  C   UNL     1       3.949   2.340  19.334  0.00  0.00    +0.000 C 
ATOM     17  C   UNL     1       4.084   3.820  19.650  0.00  0.00    +0.000 C 
ENDBRANCH  10  17
ENDBRANCH   1  12
TORSDOF 2
ENDMDL
MODEL 7
REMARK VINA RESULT:      -6.5      2.374      5.575
REMARK  Name = 
REMARK  3 active torsions:
REMARK  status: ('A' for Active; 'I' for Inactive)
REMARK    1  A    between atoms: C_1  and  C_2
REMARK    2  A    between atoms: C_2  and  C_3
REMARK    3  A    between atoms: C_5  and  C_6
REMARK                            x       y       z     vdW  Elec       q    Type
REMARK                         _______ _______ _______ _____ _____    ______ ____
ROOT
ATOM      1  C   UNL     1       5.558   4.395  18.425  0.00  0.00    +0.000 A 
ATOM      2  N   UNL     1       6.435   4.310  17.410  0.00  0.00    +0.000 NA
ATOM      3  N   UNL     1       7.554   4.788  17.978  0.00  0.00    +0.000 N 
ATOM      4  C   UNL     1       7.349   5.125  19.284  0.00  0.00    +0.000 A 
ATOM      5  N   UNL     1       8.312   5.633  20.063  0.00  0.00    +0.000 N 
ATOM      6  N   UNL     1       6.105   4.881  19.595  0.00  0.00    +0.000 NA
ATOM      7  H   UNL     1       8.399   4.869  17.429  0.00  0.00    +0.000 HD
ATOM      8  H   UNL     1       9.298   5.571  19.840  0.00  0.00    +0.000 HD
ATOM      9  H   UNL     1       8.114   5.691  21.059  0.00  0.00    +0.000 HD
ENDROOT
BRANCH   1  12
ATOM     10  C   UNL     1       1.969   3.788  19.296  0.00  0.00    +0.000 A 
ATOM     11  C   UNL     1       3.319   4.085  19.439  0.00  0.00    +0.000 A 
ATOM     12  C   UNL     1       4.148   4.043  18.314  0.00  0.00    +0.000 A 
ATOM     13  C   UNL     1       3.592   3.684  17.086  0.00  0.00    +0.000 A 
ATOM     14  C   UNL     1       2.243   3.389  17.036  0.00  0.00    +0.000 A 
ATOM     15  N   UNL     1       1.423   3.433  18.109  0.00  0.00    +0.000 NA
BRANCH  10  17
ATOM     16  C   UNL     1       1.381   2.764  21.504  0.00  0.00    +0.000 C 
ATOM     17  C   UNL     1       1.046   3.840  20.485  0.00  0.00    +0.000 C 
ENDBRANCH  10  17
ENDBRANCH   1  12
TORSDOF 2
ENDMDL
MODEL 8
REMARK VINA RESULT:      -6.5      2.383      5.574
REMARK  Name = 
REMARK  3 active torsions:
REMARK  status: ('A' for Active; 'I' for Inactive)
REMARK    1  A    between atoms: C_1  and  C_2
REMARK    2  A    between atoms: C_2  and  C_3
REMARK    3  A    between atoms: C_5  and  C_6
REMARK                            x       y       z     vdW  Elec       q    Type
REMARK                         _______ _______ _______ _____ _____    ______ ____
ROOT
ATOM      1  C   UNL     1       5.836   4.869  17.675  0.00  0.00    +0.000 A 
ATOM      2  N   UNL     1       7.025   4.412  18.105  0.00  0.00    +0.000 NA
ATOM      3  N   UNL     1       7.779   4.537  17.001  0.00  0.00    +0.000 N 
ATOM      4  C   UNL     1       7.067   5.068  15.965  0.00  0.00    +0.000 A 
ATOM      5  N   UNL     1       7.596   5.283  14.755  0.00  0.00    +0.000 N 
ATOM      6  N   UNL     1       5.844   5.294  16.362  0.00  0.00    +0.000 NA
ATOM      7  H   UNL     1       8.744   4.238  17.016  0.00  0.00    +0.000 HD
ATOM      8  H   UNL     1       8.593   5.315  14.581  0.00  0.00    +0.000 HD
ATOM      9  H   UNL     1       7.044   5.836  14.103  0.00  0.00    +0.000 HD
ENDROOT
BRANCH   1  12
ATOM     10  C   UNL     1       3.185   3.885  20.127  0.00  0.00    +0.000 A 
ATOM     11  C   UNL     1       4.318   3.815  19.324  0.00  0.00    +0.000 A 
ATOM     12  C   UNL     1       4.630   4.895  18.493  0.00  0.00    +0.000 A 
ATOM     13  C   UNL     1       3.780   6.001  18.484  0.00  0.00    +0.000 A 
ATOM     14  C   UNL     1       2.667   5.981  19.303  0.00  0.00    +0.000 A 
ATOM     15  N   UNL     1       2.352   4.953  20.120  0.00  0.00    +0.000 NA
BRANCH  10  17
ATOM     16  C   UNL     1       1.365   2.786  21.450  0.00  0.00    +0.000 C 
ATOM     17  C   UNL     1       2.829   2.746  21.046  0.00  0.00    +0.000 C 
ENDBRANCH  10  17
ENDBRANCH   1  12
TORSDOF 2
ENDMDL
MODEL 9
REMARK VINA RESULT:      -6.4      2.073      5.675
REMARK  Name = 
REMARK  3 active torsions:
REMARK  status: ('A' for Active; 'I' for Inactive)
REMARK    1  A    between atoms: C_1  and  C_2
REMARK    2  A    between atoms: C_2  and  C_3
REMARK    3  A    between atoms: C_5  and  C_6
REMARK                            x       y       z     vdW  Elec       q    Type
REMARK                         _______ _______ _______ _____ _____    ______ ____
ROOT
ATOM      1  C   UNL     1       5.561   5.258  18.301  0.00  0.00    +0.000 A 
ATOM      2  N   UNL     1       6.666   4.880  18.965  0.00  0.00    +0.000 NA
ATOM      3  N   UNL     1       7.555   5.802  18.561  0.00  0.00    +0.000 N 
ATOM      4  C   UNL     1       6.989   6.702  17.706  0.00  0.00    +0.000 A 
ATOM      5  N   UNL     1       7.674   7.714  17.159  0.00  0.00    +0.000 N 
ATOM      6  N   UNL     1       5.734   6.390  17.530  0.00  0.00    +0.000 NA
ATOM      7  H   UNL     1       8.510   5.754  18.887  0.00  0.00    +0.000 HD
ATOM      8  H   UNL     1       8.563   8.041  17.517  0.00  0.00    +0.000 HD
ATOM      9  H   UNL     1       7.133   8.426  16.676  0.00  0.00    +0.000 HD
ENDROOT
BRANCH   1  12
ATOM     10  C   UNL     1       2.254   3.963  19.485  0.00  0.00    +0.000 A 
ATOM     11  C   UNL     1       3.478   4.624  19.482  0.00  0.00    +0.000 A 
ATOM     12  C   UNL     1       4.295   4.538  18.350  0.00  0.00    +0.000 A 
ATOM     13  C   UNL     1       3.860   3.774  17.267  0.00  0.00    +0.000 A 
ATOM     14  C   UNL     1       2.637   3.138  17.360  0.00  0.00    +0.000 A 
ATOM     15  N   UNL     1       1.829   3.215  18.439  0.00  0.00    +0.000 NA
BRANCH  10  17
ATOM     16  C   UNL     1       1.373   2.769  21.501  0.00  0.00    +0.000 C 
ATOM     17  C   UNL     1       1.344   4.048  20.681  0.00  0.00    +0.000 C 
ENDBRANCH  10  17
ENDBRANCH   1  12
TORSDOF 2
ENDMDL
