MODEL 1
REMARK VINA RESULT:      -6.7      0.000      0.000
REMARK  Name = 
REMARK  9 active torsions:
REMARK  status: ('A' for Active; 'I' for Inactive)
REMARK    1  A    between atoms: C_1  and  C_2
REMARK    2  A    between atoms: C_2  and  C_3
REMARK    3  A    between atoms: C_2  and  C_15
REMARK    4  A    between atoms: C_3  and  N_4
REMARK    5  A    between atoms: N_4  and  C_5
REMARK    6  A    between atoms: N_4  and  C_6
REMARK    7  A    between atoms: C_6  and  C_7
REMARK    8  A    between atoms: C_7  and  C_8
REMARK    9  A    between atoms: C_8  and  O_9
REMARK                            x       y       z     vdW  Elec       q    Type
REMARK                         _______ _______ _______ _____ _____    ______ ____
ROOT
ATOM      1  N   UNL     1       3.238   5.626  18.499  0.00  0.00    +0.000 NA
ATOM      2  C   UNL     1       2.837   6.895  19.131  0.00  0.00    +0.000 C 
ENDROOT
BRANCH   1   3
ATOM      3  C   UNL     1       3.703   5.872  17.113  0.00  0.00    +0.000 C 
BRANCH   3   5
ATOM      4  C   UNL     1       5.197   3.795  16.543  0.00  0.00    +0.000 C 
ATOM      5  C   UNL     1       5.045   5.315  16.548  0.00  0.00    +0.000 C 
BRANCH   5   6
ATOM      6  C   UNL     1       6.188   5.926  17.370  0.00  0.00    +0.000 A 
ATOM      7  C   UNL     1       6.819   5.182  18.378  0.00  0.00    +0.000 A 
ATOM      8  C   UNL     1       7.876   5.731  19.110  0.00  0.00    +0.000 A 
ATOM      9  C   UNL     1       8.326   7.024  18.836  0.00  0.00    +0.000 A 
ATOM     10  C   UNL     1       7.705   7.773  17.838  0.00  0.00    +0.000 A 
ATOM     11  C   UNL     1       6.647   7.229  17.114  0.00  0.00    +0.000 A 
ENDBRANCH   5   6
ENDBRANCH   3   5
ENDBRANCH   1   3
BRANCH   1  12
ATOM     12  C   UNL     1       2.044   4.721  18.511  0.00  0.00    +0.000 C 
BRANCH  12  13
ATOM     13  C   UNL     1       2.011   3.423  19.409  0.00  0.00    +0.000 C 
ATOM     14  C   UNL     1       1.126   3.585  20.672  0.00  0.00    +0.000 C 
ATOM     15  C   UNL     1       1.415   2.597  21.793  0.00  0.00    +0.000 C 
ATOM     16  O   UNL     1       2.794   2.577  22.121  0.00  0.00    +0.000 OA
ATOM     17  C   UNL     1       3.584   2.158  21.013  0.00  0.00    +0.000 C 
ATOM     18  C   UNL     1       3.478   3.176  19.884  0.00  0.00    +0.000 C 
BRANCH  13  19
ATOM     19  C   UNL     1       1.504   2.219  18.581  0.00  0.00    +0.000 C 
BRANCH  19  20
ATOM     20  O   UNL     1       2.210   2.078  17.352  0.00  0.00    +0.000 OA
ATOM     21  H   UNL     1       2.568   2.959  17.136  0.00  0.00    +0.000 HD
ENDBRANCH  19  20
ENDBRANCH  13  19
ENDBRANCH  12  13
ENDBRANCH   1  12
TORSDOF 7
ENDMDL
MODEL 2
REMARK VINA RESULT:      -6.5      2.566      3.888
REMARK  Name = 
REMARK  9 active torsions:
REMARK  status: ('A' for Active; 'I' for Inactive)
REMARK    1  A    between atoms: C_1  and  C_2
REMARK    2  A    between atoms: C_2  and  C_3
REMARK    3  A    between atoms: C_2  and  C_15
REMARK    4  A    between atoms: C_3  and  N_4
REMARK    5  A    between atoms: N_4  and  C_5
REMARK    6  A    between atoms: N_4  and  C_6
REMARK    7  A    between atoms: C_6  and  C_7
REMARK    8  A    between atoms: C_7  and  C_8
REMARK    9  A    between atoms: C_8  and  O_9
REMARK                            x       y       z     vdW  Elec       q    Type
REMARK                         _______ _______ _______ _____ _____    ______ ____
ROOT
ATOM      1  N   UNL     1       5.710   4.295  18.327  0.00  0.00    +0.000 NA
ATOM      2  C   UNL     1       6.468   5.383  18.968  0.00  0.00    +0.000 C 
ENDROOT
BRANCH   1   3
ATOM      3  C   UNL     1       6.082   4.190  16.896  0.00  0.00    +0.000 C 
BRANCH   3   5
ATOM      4  C   UNL     1       5.131   6.444  15.955  0.00  0.00    +0.000 C 
ATOM      5  C   UNL     1       6.271   5.428  15.967  0.00  0.00    +0.000 C 
BRANCH   5   6
ATOM      6  C   UNL     1       6.493   4.912  14.538  0.00  0.00    +0.000 A 
ATOM      7  C   UNL     1       7.568   5.383  13.770  0.00  0.00    +0.000 A 
ATOM      8  C   UNL     1       7.784   4.895  12.477  0.00  0.00    +0.000 A 
ATOM      9  C   UNL     1       6.938   3.924  11.940  0.00  0.00    +0.000 A 
ATOM     10  C   UNL     1       5.865   3.450  12.694  0.00  0.00    +0.000 A 
ATOM     11  C   UNL     1       5.646   3.941  13.979  0.00  0.00    +0.000 A 
ENDBRANCH   5   6
ENDBRANCH   3   5
ENDBRANCH   1   3
BRANCH   1  12
ATOM     12  C   UNL     1       4.253   4.612  18.479  0.00  0.00    +0.000 C 
BRANCH  12  13
ATOM     13  C   UNL     1       3.280   3.634  19.247  0.00  0.00    +0.000 C 
ATOM     14  C   UNL     1       2.125   3.109  18.356  0.00  0.00    +0.000 C 
ATOM     15  C   UNL     1       0.919   2.572  19.113  0.00  0.00    +0.000 C 
ATOM     16  O   UNL     1       0.455   3.506  20.074  0.00  0.00    +0.000 OA
ATOM     17  C   UNL     1       1.449   3.776  21.056  0.00  0.00    +0.000 C 
ATOM     18  C   UNL     1       2.647   4.462  20.410  0.00  0.00    +0.000 C 
BRANCH  13  19
ATOM     19  C   UNL     1       4.075   2.434  19.813  0.00  0.00    +0.000 C 
BRANCH  19  20
ATOM     20  O   UNL     1       4.329   1.442  18.823  0.00  0.00    +0.000 OA
ATOM     21  H   UNL     1       4.445   0.599  19.299  0.00  0.00    +0.000 HD
ENDBRANCH  19  20
ENDBRANCH  13  19
ENDBRANCH  12  13
ENDBRANCH   1  12
TORSDOF 7
ENDMDL
MODEL 3
REMARK VINA RESULT:      -6.5      2.527      4.218
REMARK  Name = 
REMARK  9 active torsions:
REMARK  status: ('A' for Active; 'I' for Inactive)
REMARK    1  A    between atoms: C_1  and  C_2
REMARK    2  A    between atoms: C_2  and  C_3
REMARK    3  A    between atoms: C_2  and  C_15
REMARK    4  A    between atoms: C_3  and  N_4
REMARK    5  A    between atoms: N_4  and  C_5
REMARK    6  A    between atoms: N_4  and  C_6
REMARK    7  A    between atoms: C_6  and  C_7
REMARK    8  A    between atoms: C_7  and  C_8
REMARK    9  A    between atoms: C_8  and  O_9
REMARK                            x       y       z     vdW  Elec       q    Type
REMARK                         _______ _______ _______ _____ _____    ______ ____
ROOT
ATOM      1  N   UNL     1       6.126   4.485  18.485  0.00  0.00    +0.000 NA
ATOM      2  C   UNL     1       7.288   5.341  18.781  0.00  0.00    +0.000 C 
ENDROOT
BRANCH   1   3
ATOM      3  C   UNL     1       5.933   4.375  17.020  0.00  0.00    +0.000 C 
BRANCH   3   5
ATOM      4  C   UNL     1       5.098   6.610  15.935  0.00  0.00    +0.000 C 
ATOM      5  C   UNL     1       6.195   5.551  16.031  0.00  0.00    +0.000 C 
BRANCH   5   6
ATOM      6  C   UNL     1       6.429   4.950  14.638  0.00  0.00    +0.000 A 
ATOM      7  C   UNL     1       5.541   3.998  14.114  0.00  0.00    +0.000 A 
ATOM      8  C   UNL     1       5.742   3.468  12.836  0.00  0.00    +0.000 A 
ATOM      9  C   UNL     1       6.823   3.889  12.061  0.00  0.00    +0.000 A 
ATOM     10  C   UNL     1       7.713   4.832  12.572  0.00  0.00    +0.000 A 
ATOM     11  C   UNL     1       7.518   5.355  13.848  0.00  0.00    +0.000 A 
ENDBRANCH   5   6
ENDBRANCH   3   5
ENDBRANCH   1   3
BRANCH   1  12
ATOM     12  C   UNL     1       4.930   5.111  19.137  0.00  0.00    +0.000 C 
BRANCH  12  13
ATOM     13  C   UNL     1       3.551   4.347  19.221  0.00  0.00    +0.000 C 
ATOM     14  C   UNL     1       3.702   2.811  19.077  0.00  0.00    +0.000 C 
ATOM     15  C   UNL     1       2.433   2.072  18.675  0.00  0.00    +0.000 C 
ATOM     16  O   UNL     1       1.844   2.649  17.521  0.00  0.00    +0.000 OA
ATOM     17  C   UNL     1       1.457   3.999  17.757  0.00  0.00    +0.000 C 
ATOM     18  C   UNL     1       2.690   4.855  18.021  0.00  0.00    +0.000 C 
BRANCH  13  19
ATOM     19  C   UNL     1       2.848   4.669  20.560  0.00  0.00    +0.000 C 
BRANCH  19  20
ATOM     20  O   UNL     1       2.442   6.032  20.640  0.00  0.00    +0.000 OA
ATOM     21  H   UNL     1       2.039   6.251  19.780  0.00  0.00    +0.000 HD
ENDBRANCH  19  20
ENDBRANCH  13  19
ENDBRANCH  12  13
ENDBRANCH   1  12
TORSDOF 7
ENDMDL
MODEL 4
REMARK VINA RESULT:      -6.4      2.539      3.649
REMARK  Name = 
REMARK  9 active torsions:
REMARK  status: ('A' for Active; 'I' for Inactive)
REMARK    1  A    between atoms: C_1  and  C_2
REMARK    2  A    between atoms: C_2  and  C_3
REMARK    3  A    between atoms: C_2  and  C_15
REMARK    4  A    between atoms: C_3  and  N_4
REMARK    5  A    between atoms: N_4  and  C_5
REMARK    6  A    between atoms: N_4  and  C_6
REMARK    7  A    between atoms: C_6  and  C_7
REMARK    8  A    between atoms: C_7  and  C_8
REMARK    9  A    between atoms: C_8  and  O_9
REMARK                            x       y       z     vdW  Elec       q    Type
REMARK                         _______ _______ _______ _____ _____    ______ ____
ROOT
ATOM      1  N   UNL     1       5.451   4.164  18.177  0.00  0.00    +0.000 NA
ATOM      2  C   UNL     1       6.254   5.224  18.811  0.00  0.00    +0.000 C 
ENDROOT
BRANCH   1   3
ATOM      3  C   UNL     1       5.757   4.090  16.729  0.00  0.00    +0.000 C 
BRANCH   3   5
ATOM      4  C   UNL     1       5.136   6.459  15.793  0.00  0.00    +0.000 C 
ATOM      5  C   UNL     1       6.161   5.330  15.875  0.00  0.00    +0.000 C 
BRANCH   5   6
ATOM      6  C   UNL     1       6.474   4.838  14.454  0.00  0.00    +0.000 A 
ATOM      7  C   UNL     1       5.680   3.852  13.850  0.00  0.00    +0.000 A 
ATOM      8  C   UNL     1       5.951   3.422  12.547  0.00  0.00    +0.000 A 
ATOM      9  C   UNL     1       7.008   3.978  11.828  0.00  0.00    +0.000 A 
ATOM     10  C   UNL     1       7.806   4.958  12.419  0.00  0.00    +0.000 A 
ATOM     11  C   UNL     1       7.541   5.381  13.719  0.00  0.00    +0.000 A 
ENDBRANCH   5   6
ENDBRANCH   3   5
ENDBRANCH   1   3
BRANCH   1  12
ATOM     12  C   UNL     1       4.007   4.497  18.404  0.00  0.00    +0.000 C 
BRANCH  12  13
ATOM     13  C   UNL     1       3.006   3.433  19.001  0.00  0.00    +0.000 C 
ATOM     14  C   UNL     1       1.526   3.887  18.925  0.00  0.00    +0.000 C 
ATOM     15  C   UNL     1       0.581   3.168  19.877  0.00  0.00    +0.000 C 
ATOM     16  O   UNL     1       1.068   3.197  21.208  0.00  0.00    +0.000 OA
ATOM     17  C   UNL     1       2.321   2.529  21.316  0.00  0.00    +0.000 C 
ATOM     18  C   UNL     1       3.378   3.273  20.509  0.00  0.00    +0.000 C 
BRANCH  13  19
ATOM     19  C   UNL     1       3.167   2.084  18.262  0.00  0.00    +0.000 C 
BRANCH  19  20
ATOM     20  O   UNL     1       4.321   1.369  18.693  0.00  0.00    +0.000 OA
ATOM     21  H   UNL     1       5.089   1.818  18.295  0.00  0.00    +0.000 HD
ENDBRANCH  19  20
ENDBRANCH  13  19
ENDBRANCH  12  13
ENDBRANCH   1  12
TORSDOF 7
ENDMDL
MODEL 5
REMARK VINA RESULT:      -6.4      2.573      5.669
REMARK  Name = 
REMARK  9 active torsions:
REMARK  status: ('A' for Active; 'I' for Inactive)
REMARK    1  A    between atoms: C_1  and  C_2
REMARK    2  A    between atoms: C_2  and  C_3
REMARK    3  A    between atoms: C_2  and  C_15
REMARK    4  A    between atoms: C_3  and  N_4
REMARK    5  A    between atoms: N_4  and  C_5
REMARK    6  A    between atoms: N_4  and  C_6
REMARK    7  A    between atoms: C_6  and  C_7
REMARK    8  A    between atoms: C_7  and  C_8
REMARK    9  A    between atoms: C_8  and  O_9
REMARK                            x       y       z     vdW  Elec       q    Type
REMARK                         _______ _______ _______ _____ _____    ______ ____
ROOT
ATOM      1  N   UNL     1       2.709   4.118  18.223  0.00  0.00    +0.000 NA
ATOM      2  C   UNL     1       1.644   3.202  17.780  0.00  0.00    +0.000 C 
ENDROOT
BRANCH   1   3
ATOM      3  C   UNL     1       2.160   5.481  18.418  0.00  0.00    +0.000 C 
BRANCH   3   5
ATOM      4  C   UNL     1       1.620   5.824  20.960  0.00  0.00    +0.000 C 
ATOM      5  C   UNL     1       2.370   6.310  19.722  0.00  0.00    +0.000 C 
BRANCH   5   6
ATOM      6  C   UNL     1       1.958   7.759  19.427  0.00  0.00    +0.000 A 
ATOM      7  C   UNL     1       2.220   8.334  18.174  0.00  0.00    +0.000 A 
ATOM      8  C   UNL     1       1.823   9.646  17.898  0.00  0.00    +0.000 A 
ATOM      9  C   UNL     1       1.149  10.395  18.862  0.00  0.00    +0.000 A 
ATOM     10  C   UNL     1       0.885   9.836  20.112  0.00  0.00    +0.000 A 
ATOM     11  C   UNL     1       1.287   8.531  20.390  0.00  0.00    +0.000 A 
ENDBRANCH   5   6
ENDBRANCH   3   5
ENDBRANCH   1   3
BRANCH   1  12
ATOM     12  C   UNL     1       3.773   4.114  17.167  0.00  0.00    +0.000 C 
BRANCH  12  13
ATOM     13  C   UNL     1       5.214   4.688  17.457  0.00  0.00    +0.000 C 
ATOM     14  C   UNL     1       5.293   6.229  17.302  0.00  0.00    +0.000 C 
ATOM     15  C   UNL     1       6.694   6.786  17.095  0.00  0.00    +0.000 C 
ATOM     16  O   UNL     1       7.363   6.120  16.037  0.00  0.00    +0.000 OA
ATOM     17  C   UNL     1       7.527   4.734  16.319  0.00  0.00    +0.000 C 
ATOM     18  C   UNL     1       6.165   4.054  16.393  0.00  0.00    +0.000 C 
BRANCH  13  19
ATOM     19  C   UNL     1       5.664   4.293  18.883  0.00  0.00    +0.000 C 
BRANCH  19  20
ATOM     20  O   UNL     1       5.293   2.959  19.213  0.00  0.00    +0.000 OA
ATOM     21  H   UNL     1       4.514   2.745  18.667  0.00  0.00    +0.000 HD
ENDBRANCH  19  20
ENDBRANCH  13  19
ENDBRANCH  12  13
ENDBRANCH   1  12
TORSDOF 7
ENDMDL
MODEL 6
REMARK VINA RESULT:      -6.4      2.630      3.852
REMARK  Name = 
REMARK  9 active torsions:
REMARK  status: ('A' for Active; 'I' for Inactive)
REMARK    1  A    between atoms: C_1  and  C_2
REMARK    2  A    between atoms: C_2  and  C_3
REMARK    3  A    between atoms: C_2  and  C_15
REMARK    4  A    between atoms: C_3  and  N_4
REMARK    5  A    between atoms: N_4  and  C_5
REMARK    6  A    between atoms: N_4  and  C_6
REMARK    7  A    between atoms: C_6  and  C_7
REMARK    8  A    between atoms: C_7  and  C_8
REMARK    9  A    between atoms: C_8  and  O_9
REMARK                            x       y       z     vdW  Elec       q    Type
REMARK                         _______ _______ _______ _____ _____    ______ ____
ROOT
ATOM      1  N   UNL     1       4.627   5.893  17.536  0.00  0.00    +0.000 NA
ATOM      2  C   UNL     1       4.788   7.351  17.404  0.00  0.00    +0.000 C 
ENDROOT
BRANCH   1   3
ATOM      3  C   UNL     1       4.877   5.233  16.233  0.00  0.00    +0.000 C 
BRANCH   3   5
ATOM      4  C   UNL     1       7.295   4.419  16.835  0.00  0.00    +0.000 C 
ATOM      5  C   UNL     1       6.034   4.217  15.996  0.00  0.00    +0.000 C 
BRANCH   5   6
ATOM      6  C   UNL     1       6.412   4.275  14.509  0.00  0.00    +0.000 A 
ATOM      7  C   UNL     1       7.399   5.164  14.059  0.00  0.00    +0.000 A 
ATOM      8  C   UNL     1       7.759   5.200  12.708  0.00  0.00    +0.000 A 
ATOM      9  C   UNL     1       7.149   4.342  11.793  0.00  0.00    +0.000 A 
ATOM     10  C   UNL     1       6.165   3.455  12.229  0.00  0.00    +0.000 A 
ATOM     11  C   UNL     1       5.800   3.424  13.573  0.00  0.00    +0.000 A 
ENDBRANCH   5   6
ENDBRANCH   3   5
ENDBRANCH   1   3
BRANCH   1  12
ATOM     12  C   UNL     1       3.227   5.637  18.007  0.00  0.00    +0.000 C 
BRANCH  12  13
ATOM     13  C   UNL     1       2.836   4.279  18.709  0.00  0.00    +0.000 C 
ATOM     14  C   UNL     1       1.745   3.493  17.938  0.00  0.00    +0.000 C 
ATOM     15  C   UNL     1       0.993   2.456  18.760  0.00  0.00    +0.000 C 
ATOM     16  O   UNL     1       0.484   3.018  19.958  0.00  0.00    +0.000 OA
ATOM     17  C   UNL     1       1.533   3.499  20.792  0.00  0.00    +0.000 C 
ATOM     18  C   UNL     1       2.253   4.654  20.108  0.00  0.00    +0.000 C 
BRANCH  13  19
ATOM     19  C   UNL     1       4.090   3.388  18.871  0.00  0.00    +0.000 C 
BRANCH  19  20
ATOM     20  O   UNL     1       5.121   4.040  19.606  0.00  0.00    +0.000 OA
ATOM     21  H   UNL     1       4.718   4.834  20.003  0.00  0.00    +0.000 HD
ENDBRANCH  19  20
ENDBRANCH  13  19
ENDBRANCH  12  13
ENDBRANCH   1  12
TORSDOF 7
ENDMDL
MODEL 7
REMARK VINA RESULT:      -6.3      1.779      3.351
REMARK  Name = 
REMARK  9 active torsions:
REMARK  status: ('A' for Active; 'I' for Inactive)
REMARK    1  A    between atoms: C_1  and  C_2
REMARK    2  A    between atoms: C_2  and  C_3
REMARK    3  A    between atoms: C_2  and  C_15
REMARK    4  A    between atoms: C_3  and  N_4
REMARK    5  A    between atoms: N_4  and  C_5
REMARK    6  A    between atoms: N_4  and  C_6
REMARK    7  A    between atoms: C_6  and  C_7
REMARK    8  A    between atoms: C_7  and  C_8
REMARK    9  A    between atoms: C_8  and  O_9
REMARK                            x       y       z     vdW  Elec       q    Type
REMARK                         _______ _______ _______ _____ _____    ______ ____
ROOT
ATOM      1  N   UNL     1       3.393   6.926  18.211  0.00  0.00    +0.000 NA
ATOM      2  C   UNL     1       2.561   8.133  18.077  0.00  0.00    +0.000 C 
ENDROOT
BRANCH   1   3
ATOM      3  C   UNL     1       4.539   6.990  17.273  0.00  0.00    +0.000 C 
BRANCH   3   5
ATOM      4  C   UNL     1       7.119   6.847  17.715  0.00  0.00    +0.000 C 
ATOM      5  C   UNL     1       5.816   6.108  17.419  0.00  0.00    +0.000 C 
BRANCH   5   6
ATOM      6  C   UNL     1       5.982   5.307  16.120  0.00  0.00    +0.000 A 
ATOM      7  C   UNL     1       5.078   4.286  15.791  0.00  0.00    +0.000 A 
ATOM      8  C   UNL     1       5.216   3.573  14.596  0.00  0.00    +0.000 A 
ATOM      9  C   UNL     1       6.250   3.876  13.711  0.00  0.00    +0.000 A 
ATOM     10  C   UNL     1       7.157   4.887  14.028  0.00  0.00    +0.000 A 
ATOM     11  C   UNL     1       7.023   5.593  15.221  0.00  0.00    +0.000 A 
ENDBRANCH   5   6
ENDBRANCH   3   5
ENDBRANCH   1   3
BRANCH   1  12
ATOM     12  C   UNL     1       2.522   5.744  17.912  0.00  0.00    +0.000 C 
BRANCH  12  13
ATOM     13  C   UNL     1       2.447   4.513  18.898  0.00  0.00    +0.000 C 
ATOM     14  C   UNL     1       3.837   3.897  19.201  0.00  0.00    +0.000 C 
ATOM     15  C   UNL     1       3.810   2.471  19.730  0.00  0.00    +0.000 C 
ATOM     16  O   UNL     1       3.036   1.625  18.895  0.00  0.00    +0.000 OA
ATOM     17  C   UNL     1       1.679   2.053  18.841  0.00  0.00    +0.000 C 
ATOM     18  C   UNL     1       1.590   3.422  18.180  0.00  0.00    +0.000 C 
BRANCH  13  19
ATOM     19  C   UNL     1       1.775   4.937  20.224  0.00  0.00    +0.000 C 
BRANCH  19  20
ATOM     20  O   UNL     1       2.470   6.004  20.862  0.00  0.00    +0.000 OA
ATOM     21  H   UNL     1       3.064   5.594  21.518  0.00  0.00    +0.000 HD
ENDBRANCH  19  20
ENDBRANCH  13  19
ENDBRANCH  12  13
ENDBRANCH   1  12
TORSDOF 7
ENDMDL
MODEL 8
REMARK VINA RESULT:      -6.3      2.914      6.068
REMARK  Name = 
REMARK  9 active torsions:
REMARK  status: ('A' for Active; 'I' for Inactive)
REMARK    1  A    between atoms: C_1  and  C_2
REMARK    2  A    between atoms: C_2  and  C_3
REMARK    3  A    between atoms: C_2  and  C_15
REMARK    4  A    between atoms: C_3  and  N_4
REMARK    5  A    between atoms: N_4  and  C_5
REMARK    6  A    between atoms: N_4  and  C_6
REMARK    7  A    between atoms: C_6  and  C_7
REMARK    8  A    between atoms: C_7  and  C_8
REMARK    9  A    between atoms: C_8  and  O_9
REMARK                            x       y       z     vdW  Elec       q    Type
REMARK                         _______ _______ _______ _____ _____    ______ ____
ROOT
ATOM      1  N   UNL     1       2.931   5.216  18.991  0.00  0.00    +0.000 NA
ATOM      2  C   UNL     1       1.618   4.592  18.757  0.00  0.00    +0.000 C 
ENDROOT
BRANCH   1   3
ATOM      3  C   UNL     1       2.755   6.594  19.508  0.00  0.00    +0.000 C 
BRANCH   3   5
ATOM      4  C   UNL     1       2.624   8.550  17.768  0.00  0.00    +0.000 C 
ATOM      5  C   UNL     1       1.896   7.676  18.787  0.00  0.00    +0.000 C 
BRANCH   5   6
ATOM      6  C   UNL     1       1.277   8.578  19.864  0.00  0.00    +0.000 A 
ATOM      7  C   UNL     1       1.358   8.227  21.220  0.00  0.00    +0.000 A 
ATOM      8  C   UNL     1       0.815   9.061  22.203  0.00  0.00    +0.000 A 
ATOM      9  C   UNL     1       0.196  10.259  21.846  0.00  0.00    +0.000 A 
ATOM     10  C   UNL     1       0.108  10.617  20.502  0.00  0.00    +0.000 A 
ATOM     11  C   UNL     1       0.642   9.784  19.522  0.00  0.00    +0.000 A 
ENDBRANCH   5   6
ENDBRANCH   3   5
ENDBRANCH   1   3
BRANCH   1  12
ATOM     12  C   UNL     1       3.665   5.224  17.684  0.00  0.00    +0.000 C 
BRANCH  12  13
ATOM     13  C   UNL     1       5.242   5.203  17.632  0.00  0.00    +0.000 C 
ATOM     14  C   UNL     1       5.859   6.615  17.463  0.00  0.00    +0.000 C 
ATOM     15  C   UNL     1       7.287   6.636  16.937  0.00  0.00    +0.000 C 
ATOM     16  O   UNL     1       7.413   5.867  15.753  0.00  0.00    +0.000 OA
ATOM     17  C   UNL     1       7.099   4.498  15.989  0.00  0.00    +0.000 C 
ATOM     18  C   UNL     1       5.632   4.359  16.377  0.00  0.00    +0.000 C 
BRANCH  13  19
ATOM     19  C   UNL     1       5.805   4.548  18.915  0.00  0.00    +0.000 C 
BRANCH  19  20
ATOM     20  O   UNL     1       5.302   3.230  19.111  0.00  0.00    +0.000 OA
ATOM     21  H   UNL     1       5.498   2.736  18.294  0.00  0.00    +0.000 HD
ENDBRANCH  19  20
ENDBRANCH  13  19
ENDBRANCH  12  13
ENDBRANCH   1  12
TORSDOF 7
ENDMDL
MODEL 9
REMARK VINA RESULT:      -6.2      2.128      3.140
REMARK  Name = 
REMARK  9 active torsions:
REMARK  status: ('A' for Active; 'I' for Inactive)
REMARK    1  A    between atoms: C_1  and  C_2
REMARK    2  A    between atoms: C_2  and  C_3
REMARK    3  A    between atoms: C_2  and  C_15
REMARK    4  A    between atoms: C_3  and  N_4
REMARK    5  A    between atoms: N_4  and  C_5
REMARK    6  A    between atoms: N_4  and  C_6
REMARK    7  A    between atoms: C_6  and  C_7
REMARK    8  A    between atoms: C_7  and  C_8
REMARK    9  A    between atoms: C_8  and  O_9
REMARK                            x       y       z     vdW  Elec       q    Type
REMARK                         _______ _______ _______ _____ _____    ______ ____
ROOT
ATOM      1  N   UNL     1       4.053   5.608  17.812  0.00  0.00    +0.000 NA
ATOM      2  C   UNL     1       3.369   6.911  17.876  0.00  0.00    +0.000 C 
ENDROOT
BRANCH   1   3
ATOM      3  C   UNL     1       5.080   5.625  16.743  0.00  0.00    +0.000 C 
BRANCH   3   5
ATOM      4  C   UNL     1       7.416   4.561  17.277  0.00  0.00    +0.000 C 
ATOM      5  C   UNL     1       6.096   4.465  16.514  0.00  0.00    +0.000 C 
BRANCH   5   6
ATOM      6  C   UNL     1       6.396   4.394  15.010  0.00  0.00    +0.000 A 
ATOM      7  C   UNL     1       5.604   3.604  14.163  0.00  0.00    +0.000 A 
ATOM      8  C   UNL     1       5.862   3.558  12.789  0.00  0.00    +0.000 A 
ATOM      9  C   UNL     1       6.904   4.308  12.243  0.00  0.00    +0.000 A 
ATOM     10  C   UNL     1       7.699   5.095  13.076  0.00  0.00    +0.000 A 
ATOM     11  C   UNL     1       7.446   5.135  14.445  0.00  0.00    +0.000 A 
ENDBRANCH   5   6
ENDBRANCH   3   5
ENDBRANCH   1   3
BRANCH   1  12
ATOM     12  C   UNL     1       3.011   4.566  17.537  0.00  0.00    +0.000 C 
BRANCH  12  13
ATOM     13  C   UNL     1       2.578   3.531  18.647  0.00  0.00    +0.000 C 
ATOM     14  C   UNL     1       1.403   4.040  19.522  0.00  0.00    +0.000 C 
ATOM     15  C   UNL     1       1.250   3.343  20.866  0.00  0.00    +0.000 C 
ATOM     16  O   UNL     1       2.472   3.337  21.586  0.00  0.00    +0.000 OA
ATOM     17  C   UNL     1       3.484   2.622  20.883  0.00  0.00    +0.000 C 
ATOM     18  C   UNL     1       3.816   3.337  19.579  0.00  0.00    +0.000 C 
BRANCH  13  19
ATOM     19  C   UNL     1       2.184   2.187  17.992  0.00  0.00    +0.000 C 
BRANCH  19  20
ATOM     20  O   UNL     1       0.821   1.851  18.231  0.00  0.00    +0.000 OA
ATOM     21  H   UNL     1       0.691   0.953  17.876  0.00  0.00    +0.000 HD
ENDBRANCH  19  20
ENDBRANCH  13  19
ENDBRANCH  12  13
ENDBRANCH   1  12
TORSDOF 7
ENDMDL
