MODEL 1
REMARK VINA RESULT:      -7.0      0.000      0.000
REMARK  Name = 
REMARK  11 active torsions:
REMARK  status: ('A' for Active; 'I' for Inactive)
REMARK    1  A    between atoms: C_1  and  C_2
REMARK    2  A    between atoms: C_2  and  O_3
REMARK    3  A    between atoms: O_3  and  C_4
REMARK    4  A    between atoms: C_4  and  C_6
REMARK    5  A    between atoms: CA_8  and  C_9
REMARK    6  A    between atoms: C_9  and  OXT_11
REMARK    7  A    between atoms: C_12  and  O_13
REMARK    8  A    between atoms: O_13  and  C_14
REMARK    9  A    between atoms: C_14  and  C_16
REMARK   10  A    between atoms: C_16  and  C_17
REMARK   11  A    between atoms: C_18  and  C_19
REMARK                            x       y       z     vdW  Elec       q    Type
REMARK                         _______ _______ _______ _____ _____    ______ ____
ROOT
ATOM      1  C   UNL     1       5.671   5.023  17.504  0.00  0.00    +0.000 A 
ATOM      2  N   UNL     1       5.804   3.767  18.049  0.00  0.00    +0.000 N 
ATOM      3  CA  UNL     1       4.691   3.415  18.777  0.00  0.00    +0.000 A 
ATOM      4  C   UNL     1       3.847   4.517  18.743  0.00  0.00    +0.000 A 
ATOM      5  C   UNL     1       4.428   5.514  17.900  0.00  0.00    +0.000 A 
ATOM      6  C   UNL     1       3.867   6.832  17.490  0.00  0.00    +0.000 C 
ATOM      7  H   UNL     1       6.642   3.209  17.946  0.00  0.00    +0.000 HD
ENDROOT
BRANCH   1   8
ATOM      8  C   UNL     1       6.684   5.651  16.684  0.00  0.00    +0.000 C 
ATOM      9  O   UNL     1       6.556   5.986  15.516  0.00  0.00    +0.000 OA
BRANCH   8  10
ATOM     10  O   UNL     1       7.830   5.782  17.414  0.00  0.00    +0.000 OA
BRANCH  10  12
ATOM     11  C   UNL     1       7.877   8.190  17.697  0.00  0.00    +0.000 C 
ATOM     12  C   UNL     1       7.813   6.838  18.386  0.00  0.00    +0.000 C 
ENDBRANCH  10  12
ENDBRANCH   8  10
ENDBRANCH   1   8
BRANCH   3  13
ATOM     13  C   UNL     1       4.529   2.183  19.504  0.00  0.00    +0.000 C 
ATOM     14  O   UNL     1       4.833   1.993  20.672  0.00  0.00    +0.000 OA
BRANCH  13  15
ATOM     15  OXT UNL     1       3.988   1.202  18.738  0.00  0.00    +0.000 OA
ATOM     16  HXT UNL     1       3.029   1.288  18.605  0.00  0.00    +0.000 HD
ENDBRANCH  13  15
ENDBRANCH   3  13
BRANCH   4  17
ATOM     17  O   UNL     1       2.644   4.475  19.358  0.00  0.00    +0.000 OA
BRANCH  17  18
ATOM     18  C   UNL     1       1.570   3.900  18.745  0.00  0.00    +0.000 C 
ATOM     19  O   UNL     1       1.209   4.053  17.583  0.00  0.00    +0.000 OA
BRANCH  18  20
ATOM     20  C   UNL     1       0.775   3.087  19.742  0.00  0.00    +0.000 C 
ATOM     21  C   UNL     1       1.374   3.084  21.136  0.00  0.00    +0.000 C 
ENDBRANCH  18  20
ENDBRANCH  17  18
ENDBRANCH   4  17
TORSDOF 8
ENDMDL
MODEL 2
REMARK VINA RESULT:      -7.0      1.248      1.636
REMARK  Name = 
REMARK  11 active torsions:
REMARK  status: ('A' for Active; 'I' for Inactive)
REMARK    1  A    between atoms: C_1  and  C_2
REMARK    2  A    between atoms: C_2  and  O_3
REMARK    3  A    between atoms: O_3  and  C_4
REMARK    4  A    between atoms: C_4  and  C_6
REMARK    5  A    between atoms: CA_8  and  C_9
REMARK    6  A    between atoms: C_9  and  OXT_11
REMARK    7  A    between atoms: C_12  and  O_13
REMARK    8  A    between atoms: O_13  and  C_14
REMARK    9  A    between atoms: C_14  and  C_16
REMARK   10  A    between atoms: C_16  and  C_17
REMARK   11  A    between atoms: C_18  and  C_19
REMARK                            x       y       z     vdW  Elec       q    Type
REMARK                         _______ _______ _______ _____ _____    ______ ____
ROOT
ATOM      1  C   UNL     1       5.317   4.709  16.765  0.00  0.00    +0.000 A 
ATOM      2  N   UNL     1       5.042   3.377  16.974  0.00  0.00    +0.000 N 
ATOM      3  CA  UNL     1       3.810   3.205  17.560  0.00  0.00    +0.000 A 
ATOM      4  C   UNL     1       3.311   4.480  17.786  0.00  0.00    +0.000 A 
ATOM      5  C   UNL     1       4.225   5.434  17.241  0.00  0.00    +0.000 A 
ATOM      6  C   UNL     1       4.094   6.917  17.167  0.00  0.00    +0.000 C 
ATOM      7  H   UNL     1       5.699   2.640  16.754  0.00  0.00    +0.000 HD
ENDROOT
BRANCH   1   8
ATOM      8  C   UNL     1       6.540   5.189  16.159  0.00  0.00    +0.000 C 
ATOM      9  O   UNL     1       6.667   5.569  15.005  0.00  0.00    +0.000 OA
BRANCH   8  10
ATOM     10  O   UNL     1       7.549   5.117  17.075  0.00  0.00    +0.000 OA
BRANCH  10  12
ATOM     11  C   UNL     1       7.769   5.748  19.406  0.00  0.00    +0.000 C 
ATOM     12  C   UNL     1       7.633   6.233  17.973  0.00  0.00    +0.000 C 
ENDBRANCH  10  12
ENDBRANCH   8  10
ENDBRANCH   1   8
BRANCH   3  13
ATOM     13  C   UNL     1       3.242   1.939  17.944  0.00  0.00    +0.000 C 
ATOM     14  O   UNL     1       3.827   1.036  18.523  0.00  0.00    +0.000 OA
BRANCH  13  15
ATOM     15  OXT UNL     1       1.939   1.829  17.582  0.00  0.00    +0.000 OA
ATOM     16  HXT UNL     1       1.807   1.570  16.654  0.00  0.00    +0.000 HD
ENDBRANCH  13  15
ENDBRANCH   3  13
BRANCH   4  17
ATOM     17  O   UNL     1       2.089   4.649  18.339  0.00  0.00    +0.000 OA
BRANCH  17  18
ATOM     18  C   UNL     1       1.953   4.814  19.686  0.00  0.00    +0.000 C 
ATOM     19  O   UNL     1       2.616   5.545  20.414  0.00  0.00    +0.000 OA
BRANCH  18  20
ATOM     20  C   UNL     1       0.902   3.868  20.224  0.00  0.00    +0.000 C 
ATOM     21  C   UNL     1       1.431   2.911  21.275  0.00  0.00    +0.000 C 
ENDBRANCH  18  20
ENDBRANCH  17  18
ENDBRANCH   4  17
TORSDOF 8
ENDMDL
MODEL 3
REMARK VINA RESULT:      -6.9      1.366      2.166
REMARK  Name = 
REMARK  11 active torsions:
REMARK  status: ('A' for Active; 'I' for Inactive)
REMARK    1  A    between atoms: C_1  and  C_2
REMARK    2  A    between atoms: C_2  and  O_3
REMARK    3  A    between atoms: O_3  and  C_4
REMARK    4  A    between atoms: C_4  and  C_6
REMARK    5  A    between atoms: CA_8  and  C_9
REMARK    6  A    between atoms: C_9  and  OXT_11
REMARK    7  A    between atoms: C_12  and  O_13
REMARK    8  A    between atoms: O_13  and  C_14
REMARK    9  A    between atoms: C_14  and  C_16
REMARK   10  A    between atoms: C_16  and  C_17
REMARK   11  A    between atoms: C_18  and  C_19
REMARK                            x       y       z     vdW  Elec       q    Type
REMARK                         _______ _______ _______ _____ _____    ______ ____
ROOT
ATOM      1  C   UNL     1       5.970   5.069  17.434  0.00  0.00    +0.000 A 
ATOM      2  N   UNL     1       5.964   3.855  18.081  0.00  0.00    +0.000 N 
ATOM      3  CA  UNL     1       4.738   3.596  18.649  0.00  0.00    +0.000 A 
ATOM      4  C   UNL     1       3.957   4.716  18.403  0.00  0.00    +0.000 A 
ATOM      5  C   UNL     1       4.702   5.626  17.592  0.00  0.00    +0.000 A 
ATOM      6  C   UNL     1       4.267   6.925  17.005  0.00  0.00    +0.000 C 
ATOM      7  H   UNL     1       6.783   3.267  18.152  0.00  0.00    +0.000 HD
ENDROOT
BRANCH   1   8
ATOM      8  C   UNL     1       7.123   5.601  16.740  0.00  0.00    +0.000 C 
ATOM      9  O   UNL     1       7.638   6.691  16.935  0.00  0.00    +0.000 OA
BRANCH   8  10
ATOM     10  O   UNL     1       7.530   4.701  15.797  0.00  0.00    +0.000 OA
BRANCH  10  12
ATOM     11  C   UNL     1       6.065   3.897  14.040  0.00  0.00    +0.000 C 
ATOM     12  C   UNL     1       7.060   4.962  14.467  0.00  0.00    +0.000 C 
ENDBRANCH  10  12
ENDBRANCH   8  10
ENDBRANCH   1   8
BRANCH   3  13
ATOM     13  C   UNL     1       4.414   2.429  19.428  0.00  0.00    +0.000 C 
ATOM     14  O   UNL     1       4.967   2.078  20.459  0.00  0.00    +0.000 OA
BRANCH  13  15
ATOM     15  OXT UNL     1       3.395   1.716  18.886  0.00  0.00    +0.000 OA
ATOM     16  HXT UNL     1       3.363   0.789  19.177  0.00  0.00    +0.000 HD
ENDBRANCH  13  15
ENDBRANCH   3  13
BRANCH   4  17
ATOM     17  O   UNL     1       2.672   4.759  18.823  0.00  0.00    +0.000 OA
BRANCH  17  18
ATOM     18  C   UNL     1       2.317   5.525  19.894  0.00  0.00    +0.000 C 
ATOM     19  O   UNL     1       2.281   6.749  19.951  0.00  0.00    +0.000 OA
BRANCH  18  20
ATOM     20  C   UNL     1       2.055   4.647  21.097  0.00  0.00    +0.000 C 
ATOM     21  C   UNL     1       1.135   3.476  20.804  0.00  0.00    +0.000 C 
ENDBRANCH  18  20
ENDBRANCH  17  18
ENDBRANCH   4  17
TORSDOF 8
ENDMDL
MODEL 4
REMARK VINA RESULT:      -6.9      1.538      2.387
REMARK  Name = 
REMARK  11 active torsions:
REMARK  status: ('A' for Active; 'I' for Inactive)
REMARK    1  A    between atoms: C_1  and  C_2
REMARK    2  A    between atoms: C_2  and  O_3
REMARK    3  A    between atoms: O_3  and  C_4
REMARK    4  A    between atoms: C_4  and  C_6
REMARK    5  A    between atoms: CA_8  and  C_9
REMARK    6  A    between atoms: C_9  and  OXT_11
REMARK    7  A    between atoms: C_12  and  O_13
REMARK    8  A    between atoms: O_13  and  C_14
REMARK    9  A    between atoms: C_14  and  C_16
REMARK   10  A    between atoms: C_16  and  C_17
REMARK   11  A    between atoms: C_18  and  C_19
REMARK                            x       y       z     vdW  Elec       q    Type
REMARK                         _______ _______ _______ _____ _____    ______ ____
ROOT
ATOM      1  C   UNL     1       5.606   4.711  17.069  0.00  0.00    +0.000 A 
ATOM      2  N   UNL     1       5.288   3.384  17.237  0.00  0.00    +0.000 N 
ATOM      3  CA  UNL     1       3.987   3.229  17.658  0.00  0.00    +0.000 A 
ATOM      4  C   UNL     1       3.482   4.511  17.820  0.00  0.00    +0.000 A 
ATOM      5  C   UNL     1       4.472   5.451  17.400  0.00  0.00    +0.000 A 
ATOM      6  C   UNL     1       4.372   6.936  17.312  0.00  0.00    +0.000 C 
ATOM      7  H   UNL     1       5.957   2.637  17.103  0.00  0.00    +0.000 HD
ENDROOT
BRANCH   1   8
ATOM      8  C   UNL     1       6.904   5.174  16.627  0.00  0.00    +0.000 C 
ATOM      9  O   UNL     1       7.568   6.055  17.152  0.00  0.00    +0.000 OA
BRANCH   8  10
ATOM     10  O   UNL     1       7.261   4.491  15.501  0.00  0.00    +0.000 OA
BRANCH  10  12
ATOM     11  C   UNL     1       6.192   3.745  13.455  0.00  0.00    +0.000 C 
ATOM     12  C   UNL     1       6.622   4.936  14.294  0.00  0.00    +0.000 C 
ENDBRANCH  10  12
ENDBRANCH   8  10
ENDBRANCH   1   8
BRANCH   3  13
ATOM     13  C   UNL     1       3.357   1.971  17.962  0.00  0.00    +0.000 C 
ATOM     14  O   UNL     1       3.858   1.049  18.589  0.00  0.00    +0.000 OA
BRANCH  13  15
ATOM     15  OXT UNL     1       2.098   1.892  17.461  0.00  0.00    +0.000 OA
ATOM     16  HXT UNL     1       1.935   2.483  16.707  0.00  0.00    +0.000 HD
ENDBRANCH  13  15
ENDBRANCH   3  13
BRANCH   4  17
ATOM     17  O   UNL     1       2.200   4.696  18.210  0.00  0.00    +0.000 OA
BRANCH  17  18
ATOM     18  C   UNL     1       1.905   4.990  19.508  0.00  0.00    +0.000 C 
ATOM     19  O   UNL     1       2.362   5.905  20.184  0.00  0.00    +0.000 OA
BRANCH  18  20
ATOM     20  C   UNL     1       0.975   3.944  20.081  0.00  0.00    +0.000 C 
ATOM     21  C   UNL     1       1.612   3.098  21.168  0.00  0.00    +0.000 C 
ENDBRANCH  18  20
ENDBRANCH  17  18
ENDBRANCH   4  17
TORSDOF 8
ENDMDL
MODEL 5
REMARK VINA RESULT:      -6.8      1.576      1.979
REMARK  Name = 
REMARK  11 active torsions:
REMARK  status: ('A' for Active; 'I' for Inactive)
REMARK    1  A    between atoms: C_1  and  C_2
REMARK    2  A    between atoms: C_2  and  O_3
REMARK    3  A    between atoms: O_3  and  C_4
REMARK    4  A    between atoms: C_4  and  C_6
REMARK    5  A    between atoms: CA_8  and  C_9
REMARK    6  A    between atoms: C_9  and  OXT_11
REMARK    7  A    between atoms: C_12  and  O_13
REMARK    8  A    between atoms: O_13  and  C_14
REMARK    9  A    between atoms: C_14  and  C_16
REMARK   10  A    between atoms: C_16  and  C_17
REMARK   11  A    between atoms: C_18  and  C_19
REMARK                            x       y       z     vdW  Elec       q    Type
REMARK                         _______ _______ _______ _____ _____    ______ ____
ROOT
ATOM      1  C   UNL     1       4.255   5.565  17.105  0.00  0.00    +0.000 A 
ATOM      2  N   UNL     1       4.297   4.191  17.048  0.00  0.00    +0.000 N 
ATOM      3  CA  UNL     1       3.242   3.628  17.727  0.00  0.00    +0.000 A 
ATOM      4  C   UNL     1       2.539   4.685  18.288  0.00  0.00    +0.000 A 
ATOM      5  C   UNL     1       3.135   5.911  17.858  0.00  0.00    +0.000 A 
ATOM      6  C   UNL     1       2.693   7.308  18.129  0.00  0.00    +0.000 C 
ATOM      7  H   UNL     1       5.044   3.683  16.592  0.00  0.00    +0.000 HD
ENDROOT
BRANCH   1   8
ATOM      8  C   UNL     1       5.235   6.423  16.475  0.00  0.00    +0.000 C 
ATOM      9  O   UNL     1       5.303   6.678  15.282  0.00  0.00    +0.000 OA
BRANCH   8  10
ATOM     10  O   UNL     1       6.103   6.880  17.423  0.00  0.00    +0.000 OA
BRANCH  10  12
ATOM     11  C   UNL     1       7.668   5.848  18.962  0.00  0.00    +0.000 C 
ATOM     12  C   UNL     1       7.340   6.158  17.512  0.00  0.00    +0.000 C 
ENDBRANCH  10  12
ENDBRANCH   8  10
ENDBRANCH   1   8
BRANCH   3  13
ATOM     13  C   UNL     1       3.017   2.215  17.889  0.00  0.00    +0.000 C 
ATOM     14  O   UNL     1       3.867   1.379  18.155  0.00  0.00    +0.000 OA
BRANCH  13  15
ATOM     15  OXT UNL     1       1.716   1.877  17.705  0.00  0.00    +0.000 OA
ATOM     16  HXT UNL     1       1.584   0.958  17.415  0.00  0.00    +0.000 HD
ENDBRANCH  13  15
ENDBRANCH   3  13
BRANCH   4  17
ATOM     17  O   UNL     1       1.419   4.455  19.009  0.00  0.00    +0.000 OA
BRANCH  17  18
ATOM     18  C   UNL     1       1.431   4.575  20.368  0.00  0.00    +0.000 C 
ATOM     19  O   UNL     1       1.646   5.590  21.021  0.00  0.00    +0.000 OA
BRANCH  18  20
ATOM     20  C   UNL     1       1.239   3.220  21.012  0.00  0.00    +0.000 C 
ATOM     21  C   UNL     1       2.523   2.622  21.556  0.00  0.00    +0.000 C 
ENDBRANCH  18  20
ENDBRANCH  17  18
ENDBRANCH   4  17
TORSDOF 8
ENDMDL
MODEL 6
REMARK VINA RESULT:      -6.8      0.902      1.198
REMARK  Name = 
REMARK  11 active torsions:
REMARK  status: ('A' for Active; 'I' for Inactive)
REMARK    1  A    between atoms: C_1  and  C_2
REMARK    2  A    between atoms: C_2  and  O_3
REMARK    3  A    between atoms: O_3  and  C_4
REMARK    4  A    between atoms: C_4  and  C_6
REMARK    5  A    between atoms: CA_8  and  C_9
REMARK    6  A    between atoms: C_9  and  OXT_11
REMARK    7  A    between atoms: C_12  and  O_13
REMARK    8  A    between atoms: O_13  and  C_14
REMARK    9  A    between atoms: C_14  and  C_16
REMARK   10  A    between atoms: C_16  and  C_17
REMARK   11  A    between atoms: C_18  and  C_19
REMARK                            x       y       z     vdW  Elec       q    Type
REMARK                         _______ _______ _______ _____ _____    ______ ____
ROOT
ATOM      1  C   UNL     1       5.876   5.285  17.717  0.00  0.00    +0.000 A 
ATOM      2  N   UNL     1       5.947   4.050  18.320  0.00  0.00    +0.000 N 
ATOM      3  CA  UNL     1       4.707   3.619  18.728  0.00  0.00    +0.000 A 
ATOM      4  C   UNL     1       3.825   4.647  18.428  0.00  0.00    +0.000 A 
ATOM      5  C   UNL     1       4.538   5.678  17.741  0.00  0.00    +0.000 A 
ATOM      6  C   UNL     1       4.014   6.941  17.149  0.00  0.00    +0.000 C 
ATOM      7  H   UNL     1       6.821   3.562  18.468  0.00  0.00    +0.000 HD
ENDROOT
BRANCH   1   8
ATOM      8  C   UNL     1       7.025   5.983  17.183  0.00  0.00    +0.000 C 
ATOM      9  O   UNL     1       7.552   5.775  16.101  0.00  0.00    +0.000 OA
BRANCH   8  10
ATOM     10  O   UNL     1       7.456   6.898  18.100  0.00  0.00    +0.000 OA
BRANCH  10  12
ATOM     11  C   UNL     1       8.576   9.011  18.501  0.00  0.00    +0.000 C 
ATOM     12  C   UNL     1       7.654   8.224  17.587  0.00  0.00    +0.000 C 
ENDBRANCH  10  12
ENDBRANCH   8  10
ENDBRANCH   1   8
BRANCH   3  13
ATOM     13  C   UNL     1       4.444   2.386  19.425  0.00  0.00    +0.000 C 
ATOM     14  O   UNL     1       5.032   1.983  20.417  0.00  0.00    +0.000 OA
BRANCH  13  15
ATOM     15  OXT UNL     1       3.442   1.674  18.850  0.00  0.00    +0.000 OA
ATOM     16  HXT UNL     1       3.728   1.122  18.104  0.00  0.00    +0.000 HD
ENDBRANCH  13  15
ENDBRANCH   3  13
BRANCH   4  17
ATOM     17  O   UNL     1       2.505   4.516  18.692  0.00  0.00    +0.000 OA
BRANCH  17  18
ATOM     18  C   UNL     1       1.989   4.946  19.879  0.00  0.00    +0.000 C 
ATOM     19  O   UNL     1       2.252   5.989  20.467  0.00  0.00    +0.000 OA
BRANCH  18  20
ATOM     20  C   UNL     1       1.081   3.888  20.466  0.00  0.00    +0.000 C 
ATOM     21  C   UNL     1       1.710   3.122  21.616  0.00  0.00    +0.000 C 
ENDBRANCH  18  20
ENDBRANCH  17  18
ENDBRANCH   4  17
TORSDOF 8
ENDMDL
MODEL 7
REMARK VINA RESULT:      -6.7      1.017      1.688
REMARK  Name = 
REMARK  11 active torsions:
REMARK  status: ('A' for Active; 'I' for Inactive)
REMARK    1  A    between atoms: C_1  and  C_2
REMARK    2  A    between atoms: C_2  and  O_3
REMARK    3  A    between atoms: O_3  and  C_4
REMARK    4  A    between atoms: C_4  and  C_6
REMARK    5  A    between atoms: CA_8  and  C_9
REMARK    6  A    between atoms: C_9  and  OXT_11
REMARK    7  A    between atoms: C_12  and  O_13
REMARK    8  A    between atoms: O_13  and  C_14
REMARK    9  A    between atoms: C_14  and  C_16
REMARK   10  A    between atoms: C_16  and  C_17
REMARK   11  A    between atoms: C_18  and  C_19
REMARK                            x       y       z     vdW  Elec       q    Type
REMARK                         _______ _______ _______ _____ _____    ______ ____
ROOT
ATOM      1  C   UNL     1       5.856   5.047  17.684  0.00  0.00    +0.000 A 
ATOM      2  N   UNL     1       5.952   3.812  18.284  0.00  0.00    +0.000 N 
ATOM      3  CA  UNL     1       4.791   3.484  18.944  0.00  0.00    +0.000 A 
ATOM      4  C   UNL     1       3.950   4.579  18.808  0.00  0.00    +0.000 A 
ATOM      5  C   UNL     1       4.587   5.546  17.971  0.00  0.00    +0.000 A 
ATOM      6  C   UNL     1       4.054   6.846  17.472  0.00  0.00    +0.000 C 
ATOM      7  H   UNL     1       6.796   3.255  18.262  0.00  0.00    +0.000 HD
ENDROOT
BRANCH   1   8
ATOM      8  C   UNL     1       6.924   5.648  16.914  0.00  0.00    +0.000 C 
ATOM      9  O   UNL     1       7.296   6.809  16.988  0.00  0.00    +0.000 OA
BRANCH   8  10
ATOM     10  O   UNL     1       7.434   4.716  16.056  0.00  0.00    +0.000 OA
BRANCH  10  12
ATOM     11  C   UNL     1       7.240   4.913  13.647  0.00  0.00    +0.000 C 
ATOM     12  C   UNL     1       6.600   4.409  14.929  0.00  0.00    +0.000 C 
ENDBRANCH  10  12
ENDBRANCH   8  10
ENDBRANCH   1   8
BRANCH   3  13
ATOM     13  C   UNL     1       4.580   2.280  19.704  0.00  0.00    +0.000 C 
ATOM     14  O   UNL     1       4.809   2.133  20.895  0.00  0.00    +0.000 OA
BRANCH  13  15
ATOM     15  OXT UNL     1       4.086   1.271  18.943  0.00  0.00    +0.000 OA
ATOM     16  HXT UNL     1       3.165   1.035  19.148  0.00  0.00    +0.000 HD
ENDBRANCH  13  15
ENDBRANCH   3  13
BRANCH   4  17
ATOM     17  O   UNL     1       2.705   4.556  19.337  0.00  0.00    +0.000 OA
BRANCH  17  18
ATOM     18  C   UNL     1       1.687   3.922  18.688  0.00  0.00    +0.000 C 
ATOM     19  O   UNL     1       1.472   3.907  17.481  0.00  0.00    +0.000 OA
BRANCH  18  20
ATOM     20  C   UNL     1       0.745   3.291  19.689  0.00  0.00    +0.000 C 
ATOM     21  C   UNL     1       1.355   3.117  21.068  0.00  0.00    +0.000 C 
ENDBRANCH  18  20
ENDBRANCH  17  18
ENDBRANCH   4  17
TORSDOF 8
ENDMDL
MODEL 8
REMARK VINA RESULT:      -6.7      1.834      5.569
REMARK  Name = 
REMARK  11 active torsions:
REMARK  status: ('A' for Active; 'I' for Inactive)
REMARK    1  A    between atoms: C_1  and  C_2
REMARK    2  A    between atoms: C_2  and  O_3
REMARK    3  A    between atoms: O_3  and  C_4
REMARK    4  A    between atoms: C_4  and  C_6
REMARK    5  A    between atoms: CA_8  and  C_9
REMARK    6  A    between atoms: C_9  and  OXT_11
REMARK    7  A    between atoms: C_12  and  O_13
REMARK    8  A    between atoms: O_13  and  C_14
REMARK    9  A    between atoms: C_14  and  C_16
REMARK   10  A    between atoms: C_16  and  C_17
REMARK   11  A    between atoms: C_18  and  C_19
REMARK                            x       y       z     vdW  Elec       q    Type
REMARK                         _______ _______ _______ _____ _____    ______ ____
ROOT
ATOM      1  C   UNL     1       4.315   3.323  18.685  0.00  0.00    +0.000 A 
ATOM      2  N   UNL     1       5.598   3.662  19.047  0.00  0.00    +0.000 N 
ATOM      3  CA  UNL     1       6.178   4.495  18.119  0.00  0.00    +0.000 A 
ATOM      4  C   UNL     1       5.248   4.639  17.100  0.00  0.00    +0.000 A 
ATOM      5  C   UNL     1       4.051   3.952  17.470  0.00  0.00    +0.000 A 
ATOM      6  C   UNL     1       2.751   3.883  16.744  0.00  0.00    +0.000 C 
ATOM      7  H   UNL     1       6.050   3.297  19.876  0.00  0.00    +0.000 HD
ENDROOT
BRANCH   1   8
ATOM      8  C   UNL     1       3.461   2.462  19.475  0.00  0.00    +0.000 C 
ATOM      9  O   UNL     1       2.993   1.392  19.118  0.00  0.00    +0.000 OA
BRANCH   8  10
ATOM     10  O   UNL     1       3.227   3.054  20.683  0.00  0.00    +0.000 OA
BRANCH  10  12
ATOM     11  C   UNL     1       0.985   3.920  20.362  0.00  0.00    +0.000 C 
ATOM     12  C   UNL     1       2.442   4.254  20.628  0.00  0.00    +0.000 C 
ENDBRANCH  10  12
ENDBRANCH   8  10
ENDBRANCH   1   8
BRANCH   3  13
ATOM     13  C   UNL     1       7.525   5.000  18.182  0.00  0.00    +0.000 C 
ATOM     14  O   UNL     1       7.855   6.122  18.536  0.00  0.00    +0.000 OA
BRANCH  13  15
ATOM     15  OXT UNL     1       8.439   4.077  17.789  0.00  0.00    +0.000 OA
ATOM     16  HXT UNL     1       9.029   3.777  18.500  0.00  0.00    +0.000 HD
ENDBRANCH  13  15
ENDBRANCH   3  13
BRANCH   4  17
ATOM     17  O   UNL     1       5.517   5.429  16.035  0.00  0.00    +0.000 OA
BRANCH  17  18
ATOM     18  C   UNL     1       6.320   4.985  15.027  0.00  0.00    +0.000 C 
ATOM     19  O   UNL     1       7.450   5.375  14.752  0.00  0.00    +0.000 OA
BRANCH  18  20
ATOM     20  C   UNL     1       5.582   3.972  14.179  0.00  0.00    +0.000 C 
ATOM     21  C   UNL     1       6.251   3.697  12.846  0.00  0.00    +0.000 C 
ENDBRANCH  18  20
ENDBRANCH  17  18
ENDBRANCH   4  17
TORSDOF 8
ENDMDL
MODEL 9
REMARK VINA RESULT:      -6.6      1.245      2.203
REMARK  Name = 
REMARK  11 active torsions:
REMARK  status: ('A' for Active; 'I' for Inactive)
REMARK    1  A    between atoms: C_1  and  C_2
REMARK    2  A    between atoms: C_2  and  O_3
REMARK    3  A    between atoms: O_3  and  C_4
REMARK    4  A    between atoms: C_4  and  C_6
REMARK    5  A    between atoms: CA_8  and  C_9
REMARK    6  A    between atoms: C_9  and  OXT_11
REMARK    7  A    between atoms: C_12  and  O_13
REMARK    8  A    between atoms: O_13  and  C_14
REMARK    9  A    between atoms: C_14  and  C_16
REMARK   10  A    between atoms: C_16  and  C_17
REMARK   11  A    between atoms: C_18  and  C_19
REMARK                            x       y       z     vdW  Elec       q    Type
REMARK                         _______ _______ _______ _____ _____    ______ ____
ROOT
ATOM      1  C   UNL     1       5.571   5.055  17.050  0.00  0.00    +0.000 A 
ATOM      2  N   UNL     1       5.631   3.762  17.516  0.00  0.00    +0.000 N 
ATOM      3  CA  UNL     1       4.560   3.471  18.327  0.00  0.00    +0.000 A 
ATOM      4  C   UNL     1       3.826   4.644  18.429  0.00  0.00    +0.000 A 
ATOM      5  C   UNL     1       4.421   5.632  17.586  0.00  0.00    +0.000 A 
ATOM      6  C   UNL     1       3.953   7.018  17.299  0.00  0.00    +0.000 C 
ATOM      7  H   UNL     1       6.400   3.139  17.306  0.00  0.00    +0.000 HD
ENDROOT
BRANCH   1   8
ATOM      8  C   UNL     1       6.562   5.637  16.171  0.00  0.00    +0.000 C 
ATOM      9  O   UNL     1       7.535   6.288  16.517  0.00  0.00    +0.000 OA
BRANCH   8  10
ATOM     10  O   UNL     1       6.218   5.373  14.876  0.00  0.00    +0.000 OA
BRANCH  10  12
ATOM     11  C   UNL     1       6.310   3.876  12.971  0.00  0.00    +0.000 C 
ATOM     12  C   UNL     1       6.339   3.998  14.485  0.00  0.00    +0.000 C 
ENDBRANCH  10  12
ENDBRANCH   8  10
ENDBRANCH   1   8
BRANCH   3  13
ATOM     13  C   UNL     1       4.347   2.217  19.003  0.00  0.00    +0.000 C 
ATOM     14  O   UNL     1       3.573   1.337  18.657  0.00  0.00    +0.000 OA
BRANCH  13  15
ATOM     15  OXT UNL     1       5.113   2.097  20.117  0.00  0.00    +0.000 OA
ATOM     16  HXT UNL     1       5.339   1.179  20.343  0.00  0.00    +0.000 HD
ENDBRANCH  13  15
ENDBRANCH   3  13
BRANCH   4  17
ATOM     17  O   UNL     1       2.683   4.675  19.153  0.00  0.00    +0.000 OA
BRANCH  17  18
ATOM     18  C   UNL     1       1.540   4.110  18.670  0.00  0.00    +0.000 C 
ATOM     19  O   UNL     1       1.122   4.150  17.518  0.00  0.00    +0.000 OA
BRANCH  18  20
ATOM     20  C   UNL     1       0.753   3.481  19.798  0.00  0.00    +0.000 C 
ATOM     21  C   UNL     1       1.542   3.355  21.089  0.00  0.00    +0.000 C 
ENDBRANCH  18  20
ENDBRANCH  17  18
ENDBRANCH   4  17
TORSDOF 8
ENDMDL
