MODEL 1
REMARK VINA RESULT:      -7.3      0.000      0.000
REMARK  Name = 
REMARK  3 active torsions:
REMARK  status: ('A' for Active; 'I' for Inactive)
REMARK    1  A    between atoms: C_1  and  O_2
REMARK    2  A    between atoms: O_2  and  C_3
REMARK    3  A    between atoms: C_8  and  C_9
REMARK                            x       y       z     vdW  Elec       q    Type
REMARK                         _______ _______ _______ _____ _____    ______ ____
ROOT
ATOM      1  C   UNL     1       4.392   4.208  18.167  0.00  0.00    +0.000 A 
ATOM      2  C   UNL     1       4.279   3.711  16.886  0.00  0.00    +0.000 A 
ATOM      3  N   UNL     1       5.351   4.219  16.209  0.00  0.00    +0.000 N 
ATOM      4  C   UNL     1       5.716   4.115  14.883  0.00  0.00    +0.000 A 
ATOM      5  C   UNL     1       6.830   4.767  14.523  0.00  0.00    +0.000 A 
ATOM      6  N   UNL     1       7.587   5.489  15.427  0.00  0.00    +0.000 NA
ATOM      7  N   UNL     1       7.251   5.569  16.647  0.00  0.00    +0.000 NA
ATOM      8  C   UNL     1       6.113   4.955  17.100  0.00  0.00    +0.000 A 
ATOM      9  N   UNL     1       5.558   4.940  18.298  0.00  0.00    +0.000 NA
ENDROOT
BRANCH   1  15
ATOM     10  C   UNL     1       2.422   4.874  19.607  0.00  0.00    +0.000 A 
ATOM     11  C   UNL     1       1.571   4.562  20.679  0.00  0.00    +0.000 A 
ATOM     12  C   UNL     1       1.781   3.422  21.455  0.00  0.00    +0.000 A 
ATOM     13  C   UNL     1       2.842   2.572  21.163  0.00  0.00    +0.000 A 
ATOM     14  C   UNL     1       3.673   2.852  20.079  0.00  0.00    +0.000 A 
ATOM     15  C   UNL     1       3.471   3.990  19.274  0.00  0.00    +0.000 A 
BRANCH  10  17
ATOM     16  C   UNL     1       2.345   7.237  19.577  0.00  0.00    +0.000 C 
ATOM     17  O   UNL     1       2.254   6.013  18.855  0.00  0.00    +0.000 OA
ENDBRANCH  10  17
ENDBRANCH   1  15
TORSDOF 2
ENDMDL
MODEL 2
REMARK VINA RESULT:      -7.2      2.581      5.863
REMARK  Name = 
REMARK  3 active torsions:
REMARK  status: ('A' for Active; 'I' for Inactive)
REMARK    1  A    between atoms: C_1  and  O_2
REMARK    2  A    between atoms: O_2  and  C_3
REMARK    3  A    between atoms: C_8  and  C_9
REMARK                            x       y       z     vdW  Elec       q    Type
REMARK                         _______ _______ _______ _____ _____    ______ ____
ROOT
ATOM      1  C   UNL     1       4.341   3.856  18.385  0.00  0.00    +0.000 A 
ATOM      2  C   UNL     1       3.024   4.253  18.472  0.00  0.00    +0.000 A 
ATOM      3  N   UNL     1       2.557   3.695  19.627  0.00  0.00    +0.000 N 
ATOM      4  C   UNL     1       1.297   3.696  20.189  0.00  0.00    +0.000 A 
ATOM      5  C   UNL     1       1.160   3.019  21.336  0.00  0.00    +0.000 A 
ATOM      6  N   UNL     1       2.220   2.369  21.941  0.00  0.00    +0.000 NA
ATOM      7  N   UNL     1       3.378   2.382  21.424  0.00  0.00    +0.000 NA
ATOM      8  C   UNL     1       3.605   3.029  20.238  0.00  0.00    +0.000 A 
ATOM      9  N   UNL     1       4.701   3.136  19.509  0.00  0.00    +0.000 NA
ENDROOT
BRANCH   1  15
ATOM     10  C   UNL     1       6.611   4.564  17.523  0.00  0.00    +0.000 A 
ATOM     11  C   UNL     1       7.442   4.807  16.418  0.00  0.00    +0.000 A 
ATOM     12  C   UNL     1       6.954   4.709  15.116  0.00  0.00    +0.000 A 
ATOM     13  C   UNL     1       5.627   4.356  14.898  0.00  0.00    +0.000 A 
ATOM     14  C   UNL     1       4.800   4.077  15.987  0.00  0.00    +0.000 A 
ATOM     15  C   UNL     1       5.277   4.158  17.310  0.00  0.00    +0.000 A 
BRANCH  10  17
ATOM     16  C   UNL     1       7.765   5.902  19.094  0.00  0.00    +0.000 C 
ATOM     17  O   UNL     1       7.064   4.694  18.814  0.00  0.00    +0.000 OA
ENDBRANCH  10  17
ENDBRANCH   1  15
TORSDOF 2
ENDMDL
MODEL 3
REMARK VINA RESULT:      -7.1      1.343      2.331
REMARK  Name = 
REMARK  3 active torsions:
REMARK  status: ('A' for Active; 'I' for Inactive)
REMARK    1  A    between atoms: C_1  and  O_2
REMARK    2  A    between atoms: O_2  and  C_3
REMARK    3  A    between atoms: C_8  and  C_9
REMARK                            x       y       z     vdW  Elec       q    Type
REMARK                         _______ _______ _______ _____ _____    ______ ____
ROOT
ATOM      1  C   UNL     1       4.482   4.213  17.999  0.00  0.00    +0.000 A 
ATOM      2  C   UNL     1       4.462   3.634  16.748  0.00  0.00    +0.000 A 
ATOM      3  N   UNL     1       5.487   4.223  16.064  0.00  0.00    +0.000 N 
ATOM      4  C   UNL     1       5.898   4.087  14.755  0.00  0.00    +0.000 A 
ATOM      5  C   UNL     1       6.940   4.841  14.380  0.00  0.00    +0.000 A 
ATOM      6  N   UNL     1       7.585   5.696  15.255  0.00  0.00    +0.000 NA
ATOM      7  N   UNL     1       7.208   5.806  16.461  0.00  0.00    +0.000 NA
ATOM      8  C   UNL     1       6.135   5.092  16.925  0.00  0.00    +0.000 A 
ATOM      9  N   UNL     1       5.552   5.081  18.110  0.00  0.00    +0.000 NA
ENDROOT
BRANCH   1  15
ATOM     10  C   UNL     1       3.752   2.939  20.058  0.00  0.00    +0.000 A 
ATOM     11  C   UNL     1       2.818   2.786  21.095  0.00  0.00    +0.000 A 
ATOM     12  C   UNL     1       1.676   3.584  21.158  0.00  0.00    +0.000 A 
ATOM     13  C   UNL     1       1.456   4.555  20.187  0.00  0.00    +0.000 A 
ATOM     14  C   UNL     1       2.394   4.741  19.171  0.00  0.00    +0.000 A 
ATOM     15  C   UNL     1       3.561   3.954  19.097  0.00  0.00    +0.000 A 
BRANCH  10  17
ATOM     16  C   UNL     1       5.105   1.289  21.078  0.00  0.00    +0.000 C 
ATOM     17  O   UNL     1       4.863   2.135  19.958  0.00  0.00    +0.000 OA
ENDBRANCH  10  17
ENDBRANCH   1  15
TORSDOF 2
ENDMDL
MODEL 4
REMARK VINA RESULT:      -7.0      1.351      2.289
REMARK  Name = 
REMARK  3 active torsions:
REMARK  status: ('A' for Active; 'I' for Inactive)
REMARK    1  A    between atoms: C_1  and  O_2
REMARK    2  A    between atoms: O_2  and  C_3
REMARK    3  A    between atoms: C_8  and  C_9
REMARK                            x       y       z     vdW  Elec       q    Type
REMARK                         _______ _______ _______ _____ _____    ______ ____
ROOT
ATOM      1  C   UNL     1       4.605   4.819  17.624  0.00  0.00    +0.000 A 
ATOM      2  C   UNL     1       4.460   4.116  16.447  0.00  0.00    +0.000 A 
ATOM      3  N   UNL     1       5.529   4.478  15.679  0.00  0.00    +0.000 N 
ATOM      4  C   UNL     1       5.869   4.145  14.385  0.00  0.00    +0.000 A 
ATOM      5  C   UNL     1       6.989   4.701  13.905  0.00  0.00    +0.000 A 
ATOM      6  N   UNL     1       7.777   5.547  14.664  0.00  0.00    +0.000 NA
ATOM      7  N   UNL     1       7.464   5.839  15.857  0.00  0.00    +0.000 NA
ATOM      8  C   UNL     1       6.322   5.336  16.423  0.00  0.00    +0.000 A 
ATOM      9  N   UNL     1       5.787   5.535  17.613  0.00  0.00    +0.000 NA
ENDROOT
BRANCH   1  15
ATOM     10  C   UNL     1       3.486   3.688  19.591  0.00  0.00    +0.000 A 
ATOM     11  C   UNL     1       2.611   3.790  20.683  0.00  0.00    +0.000 A 
ATOM     12  C   UNL     1       1.904   4.967  20.930  0.00  0.00    +0.000 A 
ATOM     13  C   UNL     1       2.071   6.064  20.092  0.00  0.00    +0.000 A 
ATOM     14  C   UNL     1       2.966   5.987  19.024  0.00  0.00    +0.000 A 
ATOM     15  C   UNL     1       3.699   4.812  18.765  0.00  0.00    +0.000 A 
BRANCH  10  17
ATOM     16  C   UNL     1       3.385   1.508  18.681  0.00  0.00    +0.000 C 
ATOM     17  O   UNL     1       4.161   2.524  19.309  0.00  0.00    +0.000 OA
ENDBRANCH  10  17
ENDBRANCH   1  15
TORSDOF 2
ENDMDL
MODEL 5
REMARK VINA RESULT:      -6.8      2.613      5.922
REMARK  Name = 
REMARK  3 active torsions:
REMARK  status: ('A' for Active; 'I' for Inactive)
REMARK    1  A    between atoms: C_1  and  O_2
REMARK    2  A    between atoms: O_2  and  C_3
REMARK    3  A    between atoms: C_8  and  C_9
REMARK                            x       y       z     vdW  Elec       q    Type
REMARK                         _______ _______ _______ _____ _____    ______ ____
ROOT
ATOM      1  C   UNL     1       4.311   3.843  18.197  0.00  0.00    +0.000 A 
ATOM      2  C   UNL     1       4.533   3.114  19.346  0.00  0.00    +0.000 A 
ATOM      3  N   UNL     1       3.334   3.100  19.999  0.00  0.00    +0.000 N 
ATOM      4  C   UNL     1       2.978   2.581  21.227  0.00  0.00    +0.000 A 
ATOM      5  C   UNL     1       1.703   2.762  21.598  0.00  0.00    +0.000 A 
ATOM      6  N   UNL     1       0.786   3.415  20.795  0.00  0.00    +0.000 NA
ATOM      7  N   UNL     1       1.119   3.879  19.663  0.00  0.00    +0.000 NA
ATOM      8  C   UNL     1       2.407   3.762  19.212  0.00  0.00    +0.000 A 
ATOM      9  N   UNL     1       2.978   4.198  18.104  0.00  0.00    +0.000 NA
ENDROOT
BRANCH   1  15
ATOM     10  C   UNL     1       6.618   4.563  17.453  0.00  0.00    +0.000 A 
ATOM     11  C   UNL     1       7.493   4.846  16.392  0.00  0.00    +0.000 A 
ATOM     12  C   UNL     1       7.053   4.812  15.069  0.00  0.00    +0.000 A 
ATOM     13  C   UNL     1       5.731   4.484  14.787  0.00  0.00    +0.000 A 
ATOM     14  C   UNL     1       4.861   4.166  15.830  0.00  0.00    +0.000 A 
ATOM     15  C   UNL     1       5.289   4.182  17.173  0.00  0.00    +0.000 A 
BRANCH  10  17
ATOM     16  C   UNL     1       7.712   5.823  19.129  0.00  0.00    +0.000 C 
ATOM     17  O   UNL     1       7.024   4.630  18.765  0.00  0.00    +0.000 OA
ENDBRANCH  10  17
ENDBRANCH   1  15
TORSDOF 2
ENDMDL
MODEL 6
REMARK VINA RESULT:      -6.8      2.580      5.954
REMARK  Name = 
REMARK  3 active torsions:
REMARK  status: ('A' for Active; 'I' for Inactive)
REMARK    1  A    between atoms: C_1  and  O_2
REMARK    2  A    between atoms: O_2  and  C_3
REMARK    3  A    between atoms: C_8  and  C_9
REMARK                            x       y       z     vdW  Elec       q    Type
REMARK                         _______ _______ _______ _____ _____    ______ ____
ROOT
ATOM      1  C   UNL     1       4.401   4.038  17.993  0.00  0.00    +0.000 A 
ATOM      2  C   UNL     1       4.041   4.886  19.018  0.00  0.00    +0.000 A 
ATOM      3  N   UNL     1       3.107   4.199  19.740  0.00  0.00    +0.000 N 
ATOM      4  C   UNL     1       2.351   4.573  20.831  0.00  0.00    +0.000 A 
ATOM      5  C   UNL     1       1.488   3.659  21.295  0.00  0.00    +0.000 A 
ATOM      6  N   UNL     1       1.368   2.403  20.729  0.00  0.00    +0.000 NA
ATOM      7  N   UNL     1       2.075   2.063  19.733  0.00  0.00    +0.000 NA
ATOM      8  C   UNL     1       2.967   2.942  19.177  0.00  0.00    +0.000 A 
ATOM      9  N   UNL     1       3.762   2.819  18.130  0.00  0.00    +0.000 NA
ENDROOT
BRANCH   1  15
ATOM     10  C   UNL     1       6.724   4.534  17.123  0.00  0.00    +0.000 A 
ATOM     11  C   UNL     1       7.556   4.769  16.018  0.00  0.00    +0.000 A 
ATOM     12  C   UNL     1       7.033   4.845  14.727  0.00  0.00    +0.000 A 
ATOM     13  C   UNL     1       5.668   4.679  14.523  0.00  0.00    +0.000 A 
ATOM     14  C   UNL     1       4.835   4.410  15.609  0.00  0.00    +0.000 A 
ATOM     15  C   UNL     1       5.345   4.315  16.919  0.00  0.00    +0.000 A 
BRANCH  10  17
ATOM     16  C   UNL     1       7.740   5.725  18.896  0.00  0.00    +0.000 C 
ATOM     17  O   UNL     1       7.216   4.494  18.406  0.00  0.00    +0.000 OA
ENDBRANCH  10  17
ENDBRANCH   1  15
TORSDOF 2
ENDMDL
MODEL 7
REMARK VINA RESULT:      -6.8      0.994      1.126
REMARK  Name = 
REMARK  3 active torsions:
REMARK  status: ('A' for Active; 'I' for Inactive)
REMARK    1  A    between atoms: C_1  and  O_2
REMARK    2  A    between atoms: O_2  and  C_3
REMARK    3  A    between atoms: C_8  and  C_9
REMARK                            x       y       z     vdW  Elec       q    Type
REMARK                         _______ _______ _______ _____ _____    ______ ____
ROOT
ATOM      1  C   UNL     1       4.579   4.905  17.569  0.00  0.00    +0.000 A 
ATOM      2  C   UNL     1       4.446   4.156  16.420  0.00  0.00    +0.000 A 
ATOM      3  N   UNL     1       5.524   4.486  15.650  0.00  0.00    +0.000 N 
ATOM      4  C   UNL     1       5.877   4.101  14.373  0.00  0.00    +0.000 A 
ATOM      5  C   UNL     1       7.003   4.637  13.883  0.00  0.00    +0.000 A 
ATOM      6  N   UNL     1       7.783   5.513  14.615  0.00  0.00    +0.000 NA
ATOM      7  N   UNL     1       7.457   5.853  15.793  0.00  0.00    +0.000 NA
ATOM      8  C   UNL     1       6.309   5.373  16.366  0.00  0.00    +0.000 A 
ATOM      9  N   UNL     1       5.762   5.620  17.542  0.00  0.00    +0.000 NA
ENDROOT
BRANCH   1  15
ATOM     10  C   UNL     1       2.917   6.086  19.066  0.00  0.00    +0.000 A 
ATOM     11  C   UNL     1       2.039   6.015  20.159  0.00  0.00    +0.000 A 
ATOM     12  C   UNL     1       1.933   4.852  20.922  0.00  0.00    +0.000 A 
ATOM     13  C   UNL     1       2.700   3.738  20.596  0.00  0.00    +0.000 A 
ATOM     14  C   UNL     1       3.550   3.784  19.491  0.00  0.00    +0.000 A 
ATOM     15  C   UNL     1       3.662   4.944  18.700  0.00  0.00    +0.000 A 
BRANCH  10  17
ATOM     16  C   UNL     1       2.086   8.242  18.567  0.00  0.00    +0.000 C 
ATOM     17  O   UNL     1       3.064   7.235  18.327  0.00  0.00    +0.000 OA
ENDBRANCH  10  17
ENDBRANCH   1  15
TORSDOF 2
ENDMDL
MODEL 8
REMARK VINA RESULT:      -6.7      2.106      2.444
REMARK  Name = 
REMARK  3 active torsions:
REMARK  status: ('A' for Active; 'I' for Inactive)
REMARK    1  A    between atoms: C_1  and  O_2
REMARK    2  A    between atoms: O_2  and  C_3
REMARK    3  A    between atoms: C_8  and  C_9
REMARK                            x       y       z     vdW  Elec       q    Type
REMARK                         _______ _______ _______ _____ _____    ______ ____
ROOT
ATOM      1  C   UNL     1       4.236   4.730  18.705  0.00  0.00    +0.000 A 
ATOM      2  C   UNL     1       4.460   5.688  17.740  0.00  0.00    +0.000 A 
ATOM      3  N   UNL     1       5.745   6.105  17.941  0.00  0.00    +0.000 N 
ATOM      4  C   UNL     1       6.484   7.090  17.321  0.00  0.00    +0.000 A 
ATOM      5  C   UNL     1       7.729   7.273  17.780  0.00  0.00    +0.000 A 
ATOM      6  N   UNL     1       8.258   6.509  18.804  0.00  0.00    +0.000 NA
ATOM      7  N   UNL     1       7.575   5.597  19.361  0.00  0.00    +0.000 NA
ATOM      8  C   UNL     1       6.284   5.356  18.973  0.00  0.00    +0.000 A 
ATOM      9  N   UNL     1       5.389   4.501  19.433  0.00  0.00    +0.000 NA
ENDROOT
BRANCH   1  15
ATOM     10  C   UNL     1       2.090   4.309  19.977  0.00  0.00    +0.000 A 
ATOM     11  C   UNL     1       0.910   3.560  20.107  0.00  0.00    +0.000 A 
ATOM     12  C   UNL     1       0.649   2.479  19.266  0.00  0.00    +0.000 A 
ATOM     13  C   UNL     1       1.562   2.137  18.274  0.00  0.00    +0.000 A 
ATOM     14  C   UNL     1       2.721   2.895  18.112  0.00  0.00    +0.000 A 
ATOM     15  C   UNL     1       2.998   3.999  18.942  0.00  0.00    +0.000 A 
BRANCH  10  17
ATOM     16  C   UNL     1       1.646   6.550  20.589  0.00  0.00    +0.000 C 
ATOM     17  O   UNL     1       2.383   5.353  20.822  0.00  0.00    +0.000 OA
ENDBRANCH  10  17
ENDBRANCH   1  15
TORSDOF 2
ENDMDL
MODEL 9
REMARK VINA RESULT:      -6.6      2.039      2.488
REMARK  Name = 
REMARK  3 active torsions:
REMARK  status: ('A' for Active; 'I' for Inactive)
REMARK    1  A    between atoms: C_1  and  O_2
REMARK    2  A    between atoms: O_2  and  C_3
REMARK    3  A    between atoms: C_8  and  C_9
REMARK                            x       y       z     vdW  Elec       q    Type
REMARK                         _______ _______ _______ _____ _____    ______ ____
ROOT
ATOM      1  C   UNL     1       4.116   4.918  18.627  0.00  0.00    +0.000 A 
ATOM      2  C   UNL     1       5.305   4.887  19.324  0.00  0.00    +0.000 A 
ATOM      3  N   UNL     1       6.134   5.741  18.655  0.00  0.00    +0.000 N 
ATOM      4  C   UNL     1       7.462   6.057  18.856  0.00  0.00    +0.000 A 
ATOM      5  C   UNL     1       8.001   6.926  17.992  0.00  0.00    +0.000 A 
ATOM      6  N   UNL     1       7.271   7.496  16.965  0.00  0.00    +0.000 NA
ATOM      7  N   UNL     1       6.047   7.209  16.795  0.00  0.00    +0.000 NA
ATOM      8  C   UNL     1       5.419   6.310  17.616  0.00  0.00    +0.000 A 
ATOM      9  N   UNL     1       4.186   5.839  17.598  0.00  0.00    +0.000 NA
ENDROOT
BRANCH   1  15
ATOM     10  C   UNL     1       2.039   4.429  19.985  0.00  0.00    +0.000 A 
ATOM     11  C   UNL     1       0.890   3.642  20.162  0.00  0.00    +0.000 A 
ATOM     12  C   UNL     1       0.630   2.552  19.331  0.00  0.00    +0.000 A 
ATOM     13  C   UNL     1       1.512   2.239  18.303  0.00  0.00    +0.000 A 
ATOM     14  C   UNL     1       2.639   3.035  18.094  0.00  0.00    +0.000 A 
ATOM     15  C   UNL     1       2.913   4.148  18.914  0.00  0.00    +0.000 A 
BRANCH  10  17
ATOM     16  C   UNL     1       1.643   6.695  20.531  0.00  0.00    +0.000 C 
ATOM     17  O   UNL     1       2.332   5.482  20.818  0.00  0.00    +0.000 OA
ENDBRANCH  10  17
ENDBRANCH   1  15
TORSDOF 2
ENDMDL
