MODEL 1
REMARK VINA RESULT:      -9.7      0.000      0.000
REMARK  Name = 
REMARK  5 active torsions:
REMARK  status: ('A' for Active; 'I' for Inactive)
REMARK    1  A    between atoms: C_1  and  C_2
REMARK    2  A    between atoms: C_5  and  C_6
REMARK    3  A    between atoms: C_9  and  C_10
REMARK    4  A    between atoms: C_11  and  C_12
REMARK    5  A    between atoms: N_14  and  C_15
REMARK                            x       y       z     vdW  Elec       q    Type
REMARK                         _______ _______ _______ _____ _____    ______ ____
ROOT
ATOM      1  C   UNL     1       2.471   5.486  19.245  0.00  0.00    +0.000 C 
ATOM      2  O   UNL     1       1.616   5.482  18.366  0.00  0.00    +0.000 OA
ATOM      3  N   UNL     1       2.689   6.552  20.100  0.00  0.00    +0.000 N 
ATOM      4  H   UNL     1       3.513   6.546  20.678  0.00  0.00    +0.000 HD
ENDROOT
BRANCH   3   5
ATOM      5  C   UNL     1       1.882   7.712  20.179  0.00  0.00    +0.000 A 
ATOM      6  C   UNL     1       1.712   8.595  19.112  0.00  0.00    +0.000 A 
ATOM      7  C   UNL     1       0.918   9.736  19.247  0.00  0.00    +0.000 A 
ATOM      8  C   UNL     1       0.285  10.024  20.459  0.00  0.00    +0.000 A 
ATOM      9  C   UNL     1      -0.487  11.186  20.615  0.00  0.00    +0.000 A 
ATOM     10  C   UNL     1      -1.098  11.475  21.836  0.00  0.00    +0.000 A 
ATOM     11  C   UNL     1      -0.943  10.604  22.910  0.00  0.00    +0.000 A 
ATOM     12  C   UNL     1      -0.187   9.438  22.767  0.00  0.00    +0.000 A 
ATOM     13  C   UNL     1       0.434   9.132  21.545  0.00  0.00    +0.000 A 
ATOM     14  C   UNL     1       1.213   7.969  21.382  0.00  0.00    +0.000 A 
ENDBRANCH   3   5
BRANCH   1  20
ATOM     15  C   UNL     1       4.697   4.325  19.180  0.00  0.00    +0.000 A 
ATOM     16  O   UNL     1       5.209   3.112  19.528  0.00  0.00    +0.000 OA
ATOM     17  N   UNL     1       4.208   2.302  20.018  0.00  0.00    +0.000 NA
ATOM     18  C   UNL     1       3.089   3.035  19.979  0.00  0.00    +0.000 A 
ATOM     19  C   UNL     1       1.846   2.453  20.540  0.00  0.00    +0.000 C 
ATOM     20  C   UNL     1       3.334   4.330  19.436  0.00  0.00    +0.000 A 
BRANCH  15  25
ATOM     21  C   UNL     1       8.327   8.491  17.490  0.00  0.00    +0.000 C 
ATOM     22  C   UNL     1       7.428   7.344  17.849  0.00  0.00    +0.000 A 
ATOM     23  C   UNL     1       6.202   7.169  17.207  0.00  0.00    +0.000 A 
ATOM     24  C   UNL     1       5.339   6.143  17.601  0.00  0.00    +0.000 A 
ATOM     25  C   UNL     1       5.666   5.290  18.665  0.00  0.00    +0.000 A 
ATOM     26  C   UNL     1       6.924   5.436  19.266  0.00  0.00    +0.000 A 
ATOM     27  C   UNL     1       7.797   6.452  18.863  0.00  0.00    +0.000 A 
ENDBRANCH  15  25
ENDBRANCH   1  20
TORSDOF 3
ENDMDL
MODEL 2
REMARK VINA RESULT:      -9.6      1.472      1.940
REMARK  Name = 
REMARK  5 active torsions:
REMARK  status: ('A' for Active; 'I' for Inactive)
REMARK    1  A    between atoms: C_1  and  C_2
REMARK    2  A    between atoms: C_5  and  C_6
REMARK    3  A    between atoms: C_9  and  C_10
REMARK    4  A    between atoms: C_11  and  C_12
REMARK    5  A    between atoms: N_14  and  C_15
REMARK                            x       y       z     vdW  Elec       q    Type
REMARK                         _______ _______ _______ _____ _____    ______ ____
ROOT
ATOM      1  C   UNL     1       2.429   5.050  19.339  0.00  0.00    +0.000 C 
ATOM      2  O   UNL     1       1.452   4.936  18.607  0.00  0.00    +0.000 OA
ATOM      3  N   UNL     1       2.827   6.248  19.907  0.00  0.00    +0.000 N 
ATOM      4  H   UNL     1       3.728   6.292  20.356  0.00  0.00    +0.000 HD
ENDROOT
BRANCH   3   5
ATOM      5  C   UNL     1       2.102   7.462  19.843  0.00  0.00    +0.000 A 
ATOM      6  C   UNL     1       2.056   8.260  18.699  0.00  0.00    +0.000 A 
ATOM      7  C   UNL     1       1.339   9.459  18.694  0.00  0.00    +0.000 A 
ATOM      8  C   UNL     1       0.663   9.890  19.838  0.00  0.00    +0.000 A 
ATOM      9  C   UNL     1      -0.032  11.111  19.853  0.00  0.00    +0.000 A 
ATOM     10  C   UNL     1      -0.686  11.542  21.007  0.00  0.00    +0.000 A 
ATOM     11  C   UNL     1      -0.653  10.757  22.155  0.00  0.00    +0.000 A 
ATOM     12  C   UNL     1       0.024   9.535  22.153  0.00  0.00    +0.000 A 
ATOM     13  C   UNL     1       0.688   9.086  21.000  0.00  0.00    +0.000 A 
ATOM     14  C   UNL     1       1.389   7.863  20.979  0.00  0.00    +0.000 A 
ENDBRANCH   3   5
BRANCH   1  20
ATOM     15  C   UNL     1       4.391   3.529  18.955  0.00  0.00    +0.000 A 
ATOM     16  O   UNL     1       4.953   2.442  19.553  0.00  0.00    +0.000 OA
ATOM     17  N   UNL     1       4.206   2.069  20.648  0.00  0.00    +0.000 NA
ATOM     18  C   UNL     1       3.196   2.946  20.721  0.00  0.00    +0.000 A 
ATOM     19  C   UNL     1       2.265   2.854  21.872  0.00  0.00    +0.000 C 
ATOM     20  C   UNL     1       3.250   3.891  19.656  0.00  0.00    +0.000 A 
BRANCH  15  25
ATOM     21  C   UNL     1       7.388   5.062  14.258  0.00  0.00    +0.000 C 
ATOM     22  C   UNL     1       6.581   4.772  15.490  0.00  0.00    +0.000 A 
ATOM     23  C   UNL     1       7.155   4.863  16.758  0.00  0.00    +0.000 A 
ATOM     24  C   UNL     1       6.418   4.517  17.893  0.00  0.00    +0.000 A 
ATOM     25  C   UNL     1       5.104   4.042  17.787  0.00  0.00    +0.000 A 
ATOM     26  C   UNL     1       4.515   4.009  16.514  0.00  0.00    +0.000 A 
ATOM     27  C   UNL     1       5.245   4.370  15.377  0.00  0.00    +0.000 A 
ENDBRANCH  15  25
ENDBRANCH   1  20
TORSDOF 3
ENDMDL
MODEL 3
REMARK VINA RESULT:      -9.3      1.526      1.915
REMARK  Name = 
REMARK  5 active torsions:
REMARK  status: ('A' for Active; 'I' for Inactive)
REMARK    1  A    between atoms: C_1  and  C_2
REMARK    2  A    between atoms: C_5  and  C_6
REMARK    3  A    between atoms: C_9  and  C_10
REMARK    4  A    between atoms: C_11  and  C_12
REMARK    5  A    between atoms: N_14  and  C_15
REMARK                            x       y       z     vdW  Elec       q    Type
REMARK                         _______ _______ _______ _____ _____    ______ ____
ROOT
ATOM      1  C   UNL     1       2.464   5.036  19.214  0.00  0.00    +0.000 C 
ATOM      2  O   UNL     1       1.520   4.864  18.452  0.00  0.00    +0.000 OA
ATOM      3  N   UNL     1       2.881   6.281  19.652  0.00  0.00    +0.000 N 
ATOM      4  H   UNL     1       3.761   6.352  20.138  0.00  0.00    +0.000 HD
ENDROOT
BRANCH   3   5
ATOM      5  C   UNL     1       2.207   7.501  19.404  0.00  0.00    +0.000 A 
ATOM      6  C   UNL     1       2.240   8.150  18.169  0.00  0.00    +0.000 A 
ATOM      7  C   UNL     1       1.570   9.361  17.981  0.00  0.00    +0.000 A 
ATOM      8  C   UNL     1       0.864   9.955  19.030  0.00  0.00    +0.000 A 
ATOM      9  C   UNL     1       0.218  11.191  18.861  0.00  0.00    +0.000 A 
ATOM     10  C   UNL     1      -0.467  11.785  19.920  0.00  0.00    +0.000 A 
ATOM     11  C   UNL     1      -0.513  11.151  21.158  0.00  0.00    +0.000 A 
ATOM     12  C   UNL     1       0.115   9.917  21.339  0.00  0.00    +0.000 A 
ATOM     13  C   UNL     1       0.810   9.303  20.283  0.00  0.00    +0.000 A 
ATOM     14  C   UNL     1       1.463   8.065  20.447  0.00  0.00    +0.000 A 
ENDBRANCH   3   5
BRANCH   1  20
ATOM     15  C   UNL     1       4.394   3.430  19.131  0.00  0.00    +0.000 A 
ATOM     16  O   UNL     1       4.881   2.402  19.882  0.00  0.00    +0.000 OA
ATOM     17  N   UNL     1       4.055   2.177  20.962  0.00  0.00    +0.000 NA
ATOM     18  C   UNL     1       3.073   3.083  20.870  0.00  0.00    +0.000 A 
ATOM     19  C   UNL     1       2.071   3.147  21.961  0.00  0.00    +0.000 C 
ATOM     20  C   UNL     1       3.225   3.899  19.712  0.00  0.00    +0.000 A 
BRANCH  15  25
ATOM     21  C   UNL     1       7.317   5.315  14.517  0.00  0.00    +0.000 C 
ATOM     22  C   UNL     1       6.609   4.726  15.703  0.00  0.00    +0.000 A 
ATOM     23  C   UNL     1       5.408   4.035  15.546  0.00  0.00    +0.000 A 
ATOM     24  C   UNL     1       4.718   3.557  16.663  0.00  0.00    +0.000 A 
ATOM     25  C   UNL     1       5.194   3.787  17.962  0.00  0.00    +0.000 A 
ATOM     26  C   UNL     1       6.431   4.432  18.107  0.00  0.00    +0.000 A 
ATOM     27  C   UNL     1       7.132   4.896  16.990  0.00  0.00    +0.000 A 
ENDBRANCH  15  25
ENDBRANCH   1  20
TORSDOF 3
ENDMDL
MODEL 4
REMARK VINA RESULT:      -9.0      0.642      1.661
REMARK  Name = 
REMARK  5 active torsions:
REMARK  status: ('A' for Active; 'I' for Inactive)
REMARK    1  A    between atoms: C_1  and  C_2
REMARK    2  A    between atoms: C_5  and  C_6
REMARK    3  A    between atoms: C_9  and  C_10
REMARK    4  A    between atoms: C_11  and  C_12
REMARK    5  A    between atoms: N_14  and  C_15
REMARK                            x       y       z     vdW  Elec       q    Type
REMARK                         _______ _______ _______ _____ _____    ______ ____
ROOT
ATOM      1  C   UNL     1       2.481   5.490  19.361  0.00  0.00    +0.000 C 
ATOM      2  O   UNL     1       1.768   5.597  18.369  0.00  0.00    +0.000 OA
ATOM      3  N   UNL     1       2.537   6.433  20.372  0.00  0.00    +0.000 N 
ATOM      4  H   UNL     1       3.265   6.355  21.064  0.00  0.00    +0.000 HD
ENDROOT
BRANCH   3   5
ATOM      5  C   UNL     1       1.694   7.565  20.480  0.00  0.00    +0.000 A 
ATOM      6  C   UNL     1       0.758   7.722  21.503  0.00  0.00    +0.000 A 
ATOM      7  C   UNL     1      -0.062   8.851  21.554  0.00  0.00    +0.000 A 
ATOM      8  C   UNL     1       0.029   9.843  20.575  0.00  0.00    +0.000 A 
ATOM      9  C   UNL     1      -0.815  10.965  20.598  0.00  0.00    +0.000 A 
ATOM     10  C   UNL     1      -0.730  11.939  19.604  0.00  0.00    +0.000 A 
ATOM     11  C   UNL     1       0.200  11.802  18.578  0.00  0.00    +0.000 A 
ATOM     12  C   UNL     1       1.054  10.697  18.547  0.00  0.00    +0.000 A 
ATOM     13  C   UNL     1       0.982   9.706  19.540  0.00  0.00    +0.000 A 
ATOM     14  C   UNL     1       1.825   8.577  19.521  0.00  0.00    +0.000 A 
ENDBRANCH   3   5
BRANCH   1  20
ATOM     15  C   UNL     1       4.695   4.309  19.236  0.00  0.00    +0.000 A 
ATOM     16  O   UNL     1       5.205   3.091  19.568  0.00  0.00    +0.000 OA
ATOM     17  N   UNL     1       4.209   2.288  20.082  0.00  0.00    +0.000 NA
ATOM     18  C   UNL     1       3.096   3.032  20.073  0.00  0.00    +0.000 A 
ATOM     19  C   UNL     1       1.862   2.460  20.664  0.00  0.00    +0.000 C 
ATOM     20  C   UNL     1       3.338   4.326  19.527  0.00  0.00    +0.000 A 
BRANCH  15  25
ATOM     21  C   UNL     1       8.303   8.454  17.450  0.00  0.00    +0.000 C 
ATOM     22  C   UNL     1       7.410   7.311  17.835  0.00  0.00    +0.000 A 
ATOM     23  C   UNL     1       6.185   7.116  17.199  0.00  0.00    +0.000 A 
ATOM     24  C   UNL     1       5.327   6.095  17.617  0.00  0.00    +0.000 A 
ATOM     25  C   UNL     1       5.658   5.268  18.698  0.00  0.00    +0.000 A 
ATOM     26  C   UNL     1       6.917   5.433  19.295  0.00  0.00    +0.000 A 
ATOM     27  C   UNL     1       7.784   6.443  18.868  0.00  0.00    +0.000 A 
ENDBRANCH  15  25
ENDBRANCH   1  20
TORSDOF 3
ENDMDL
MODEL 5
REMARK VINA RESULT:      -8.6      1.499      2.529
REMARK  Name = 
REMARK  5 active torsions:
REMARK  status: ('A' for Active; 'I' for Inactive)
REMARK    1  A    between atoms: C_1  and  C_2
REMARK    2  A    between atoms: C_5  and  C_6
REMARK    3  A    between atoms: C_9  and  C_10
REMARK    4  A    between atoms: C_11  and  C_12
REMARK    5  A    between atoms: N_14  and  C_15
REMARK                            x       y       z     vdW  Elec       q    Type
REMARK                         _______ _______ _______ _____ _____    ______ ____
ROOT
ATOM      1  C   UNL     1       2.437   5.233  19.433  0.00  0.00    +0.000 C 
ATOM      2  O   UNL     1       1.842   5.383  18.372  0.00  0.00    +0.000 OA
ATOM      3  N   UNL     1       2.450   6.176  20.447  0.00  0.00    +0.000 N 
ATOM      4  H   UNL     1       3.094   6.053  21.212  0.00  0.00    +0.000 HD
ENDROOT
BRANCH   3   5
ATOM      5  C   UNL     1       1.680   7.363  20.467  0.00  0.00    +0.000 A 
ATOM      6  C   UNL     1       0.685   7.608  21.415  0.00  0.00    +0.000 A 
ATOM      7  C   UNL     1      -0.059   8.790  21.380  0.00  0.00    +0.000 A 
ATOM      8  C   UNL     1       0.169   9.746  20.387  0.00  0.00    +0.000 A 
ATOM      9  C   UNL     1      -0.598  10.921  20.323  0.00  0.00    +0.000 A 
ATOM     10  C   UNL     1      -0.377  11.859  19.315  0.00  0.00    +0.000 A 
ATOM     11  C   UNL     1       0.612  11.633  18.364  0.00  0.00    +0.000 A 
ATOM     12  C   UNL     1       1.391  10.475  18.421  0.00  0.00    +0.000 A 
ATOM     13  C   UNL     1       1.182   9.519  19.429  0.00  0.00    +0.000 A 
ATOM     14  C   UNL     1       1.946   8.337  19.497  0.00  0.00    +0.000 A 
ENDBRANCH   3   5
BRANCH   1  20
ATOM     15  C   UNL     1       4.298   3.615  18.953  0.00  0.00    +0.000 A 
ATOM     16  O   UNL     1       4.801   2.472  19.495  0.00  0.00    +0.000 OA
ATOM     17  N   UNL     1       4.049   2.098  20.587  0.00  0.00    +0.000 NA
ATOM     18  C   UNL     1       3.096   3.030  20.714  0.00  0.00    +0.000 A 
ATOM     19  C   UNL     1       2.178   2.945  21.875  0.00  0.00    +0.000 C 
ATOM     20  C   UNL     1       3.191   4.015  19.688  0.00  0.00    +0.000 A 
BRANCH  15  25
ATOM     21  C   UNL     1       7.364   5.175  14.310  0.00  0.00    +0.000 C 
ATOM     22  C   UNL     1       6.535   4.877  15.526  0.00  0.00    +0.000 A 
ATOM     23  C   UNL     1       7.072   5.009  16.806  0.00  0.00    +0.000 A 
ATOM     24  C   UNL     1       6.317   4.656  17.928  0.00  0.00    +0.000 A 
ATOM     25  C   UNL     1       5.023   4.133  17.795  0.00  0.00    +0.000 A 
ATOM     26  C   UNL     1       4.470   4.058  16.508  0.00  0.00    +0.000 A 
ATOM     27  C   UNL     1       5.217   4.426  15.385  0.00  0.00    +0.000 A 
ENDBRANCH  15  25
ENDBRANCH   1  20
TORSDOF 3
ENDMDL
MODEL 6
REMARK VINA RESULT:      -8.5      2.888      7.596
REMARK  Name = 
REMARK  5 active torsions:
REMARK  status: ('A' for Active; 'I' for Inactive)
REMARK    1  A    between atoms: C_1  and  C_2
REMARK    2  A    between atoms: C_5  and  C_6
REMARK    3  A    between atoms: C_9  and  C_10
REMARK    4  A    between atoms: C_11  and  C_12
REMARK    5  A    between atoms: N_14  and  C_15
REMARK                            x       y       z     vdW  Elec       q    Type
REMARK                         _______ _______ _______ _____ _____    ______ ____
ROOT
ATOM      1  C   UNL     1       4.401   5.008  18.910  0.00  0.00    +0.000 C 
ATOM      2  O   UNL     1       5.502   5.336  19.341  0.00  0.00    +0.000 OA
ATOM      3  N   UNL     1       4.117   4.859  17.563  0.00  0.00    +0.000 N 
ATOM      4  H   UNL     1       3.155   4.754  17.283  0.00  0.00    +0.000 HD
ENDROOT
BRANCH   3   5
ATOM      5  C   UNL     1       5.067   4.921  16.517  0.00  0.00    +0.000 A 
ATOM      6  C   UNL     1       6.216   5.711  16.579  0.00  0.00    +0.000 A 
ATOM      7  C   UNL     1       7.115   5.749  15.511  0.00  0.00    +0.000 A 
ATOM      8  C   UNL     1       6.877   5.007  14.352  0.00  0.00    +0.000 A 
ATOM      9  C   UNL     1       7.757   5.066  13.258  0.00  0.00    +0.000 A 
ATOM     10  C   UNL     1       7.498   4.337  12.098  0.00  0.00    +0.000 A 
ATOM     11  C   UNL     1       6.360   3.542  12.020  0.00  0.00    +0.000 A 
ATOM     12  C   UNL     1       5.481   3.463  13.102  0.00  0.00    +0.000 A 
ATOM     13  C   UNL     1       5.726   4.191  14.279  0.00  0.00    +0.000 A 
ATOM     14  C   UNL     1       4.845   4.137  15.378  0.00  0.00    +0.000 A 
ENDBRANCH   3   5
BRANCH   1  20
ATOM     15  C   UNL     1       2.320   5.687  20.142  0.00  0.00    +0.000 A 
ATOM     16  O   UNL     1       1.407   5.107  20.970  0.00  0.00    +0.000 OA
ATOM     17  N   UNL     1       1.757   3.797  21.212  0.00  0.00    +0.000 NA
ATOM     18  C   UNL     1       2.879   3.581  20.514  0.00  0.00    +0.000 A 
ATOM     19  C   UNL     1       3.449   2.212  20.504  0.00  0.00    +0.000 C 
ATOM     20  C   UNL     1       3.299   4.756  19.825  0.00  0.00    +0.000 A 
BRANCH  15  25
ATOM     21  C   UNL     1       0.764  11.034  18.601  0.00  0.00    +0.000 C 
ATOM     22  C   UNL     1       1.271   9.686  19.022  0.00  0.00    +0.000 A 
ATOM     23  C   UNL     1       1.878   8.832  18.101  0.00  0.00    +0.000 A 
ATOM     24  C   UNL     1       2.277   7.549  18.485  0.00  0.00    +0.000 A 
ATOM     25  C   UNL     1       2.050   7.079  19.786  0.00  0.00    +0.000 A 
ATOM     26  C   UNL     1       1.493   7.964  20.720  0.00  0.00    +0.000 A 
ATOM     27  C   UNL     1       1.107   9.254  20.343  0.00  0.00    +0.000 A 
ENDBRANCH  15  25
ENDBRANCH   1  20
TORSDOF 3
ENDMDL
MODEL 7
REMARK VINA RESULT:      -8.3      2.296      4.389
REMARK  Name = 
REMARK  5 active torsions:
REMARK  status: ('A' for Active; 'I' for Inactive)
REMARK    1  A    between atoms: C_1  and  C_2
REMARK    2  A    between atoms: C_5  and  C_6
REMARK    3  A    between atoms: C_9  and  C_10
REMARK    4  A    between atoms: C_11  and  C_12
REMARK    5  A    between atoms: N_14  and  C_15
REMARK                            x       y       z     vdW  Elec       q    Type
REMARK                         _______ _______ _______ _____ _____    ______ ____
ROOT
ATOM      1  C   UNL     1       4.348   6.316  17.460  0.00  0.00    +0.000 C 
ATOM      2  O   UNL     1       5.098   7.286  17.475  0.00  0.00    +0.000 OA
ATOM      3  N   UNL     1       3.063   6.330  17.975  0.00  0.00    +0.000 N 
ATOM      4  H   UNL     1       2.575   5.455  18.077  0.00  0.00    +0.000 HD
ENDROOT
BRANCH   3   5
ATOM      5  C   UNL     1       2.390   7.478  18.456  0.00  0.00    +0.000 A 
ATOM      6  C   UNL     1       2.097   8.580  17.652  0.00  0.00    +0.000 A 
ATOM      7  C   UNL     1       1.445   9.697  18.180  0.00  0.00    +0.000 A 
ATOM      8  C   UNL     1       1.083   9.739  19.529  0.00  0.00    +0.000 A 
ATOM      9  C   UNL     1       0.459  10.871  20.078  0.00  0.00    +0.000 A 
ATOM     10  C   UNL     1       0.120  10.910  21.430  0.00  0.00    +0.000 A 
ATOM     11  C   UNL     1       0.401   9.820  22.246  0.00  0.00    +0.000 A 
ATOM     12  C   UNL     1       1.012   8.682  21.713  0.00  0.00    +0.000 A 
ATOM     13  C   UNL     1       1.360   8.625  20.353  0.00  0.00    +0.000 A 
ATOM     14  C   UNL     1       1.989   7.493  19.798  0.00  0.00    +0.000 A 
ENDBRANCH   3   5
BRANCH   1  20
ATOM     15  C   UNL     1       4.424   3.807  17.366  0.00  0.00    +0.000 A 
ATOM     16  O   UNL     1       4.952   2.846  16.558  0.00  0.00    +0.000 OA
ATOM     17  N   UNL     1       5.665   3.431  15.535  0.00  0.00    +0.000 NA
ATOM     18  C   UNL     1       5.553   4.753  15.718  0.00  0.00    +0.000 A 
ATOM     19  C   UNL     1       6.147   5.657  14.703  0.00  0.00    +0.000 C 
ATOM     20  C   UNL     1       4.788   5.055  16.882  0.00  0.00    +0.000 A 
BRANCH  15  25
ATOM     21  C   UNL     1       1.192   2.369  21.936  0.00  0.00    +0.000 C 
ATOM     22  C   UNL     1       2.043   2.633  20.728  0.00  0.00    +0.000 A 
ATOM     23  C   UNL     1       3.433   2.677  20.829  0.00  0.00    +0.000 A 
ATOM     24  C   UNL     1       4.212   2.999  19.715  0.00  0.00    +0.000 A 
ATOM     25  C   UNL     1       3.620   3.315  18.484  0.00  0.00    +0.000 A 
ATOM     26  C   UNL     1       2.226   3.212  18.376  0.00  0.00    +0.000 A 
ATOM     27  C   UNL     1       1.444   2.874  19.485  0.00  0.00    +0.000 A 
ENDBRANCH  15  25
ENDBRANCH   1  20
TORSDOF 3
ENDMDL
MODEL 8
REMARK VINA RESULT:      -8.2      1.046      1.053
REMARK  Name = 
REMARK  5 active torsions:
REMARK  status: ('A' for Active; 'I' for Inactive)
REMARK    1  A    between atoms: C_1  and  C_2
REMARK    2  A    between atoms: C_5  and  C_6
REMARK    3  A    between atoms: C_9  and  C_10
REMARK    4  A    between atoms: C_11  and  C_12
REMARK    5  A    between atoms: N_14  and  C_15
REMARK                            x       y       z     vdW  Elec       q    Type
REMARK                         _______ _______ _______ _____ _____    ______ ____
ROOT
ATOM      1  C   UNL     1       2.527   5.297  19.528  0.00  0.00    +0.000 C 
ATOM      2  O   UNL     1       2.304   5.264  20.734  0.00  0.00    +0.000 OA
ATOM      3  N   UNL     1       2.225   6.379  18.720  0.00  0.00    +0.000 N 
ATOM      4  H   UNL     1       2.283   6.266  17.721  0.00  0.00    +0.000 HD
ENDROOT
BRANCH   3   5
ATOM      5  C   UNL     1       1.756   7.634  19.178  0.00  0.00    +0.000 A 
ATOM      6  C   UNL     1       1.871   8.807  18.432  0.00  0.00    +0.000 A 
ATOM      7  C   UNL     1       1.407  10.024  18.937  0.00  0.00    +0.000 A 
ATOM      8  C   UNL     1       0.829  10.093  20.207  0.00  0.00    +0.000 A 
ATOM      9  C   UNL     1       0.391  11.318  20.739  0.00  0.00    +0.000 A 
ATOM     10  C   UNL     1      -0.166  11.379  22.015  0.00  0.00    +0.000 A 
ATOM     11  C   UNL     1      -0.292  10.219  22.772  0.00  0.00    +0.000 A 
ATOM     12  C   UNL     1       0.128   8.992  22.254  0.00  0.00    +0.000 A 
ATOM     13  C   UNL     1       0.692   8.912  20.970  0.00  0.00    +0.000 A 
ATOM     14  C   UNL     1       1.135   7.686  20.432  0.00  0.00    +0.000 A 
ENDBRANCH   3   5
BRANCH   1  20
ATOM     15  C   UNL     1       4.390   4.182  18.264  0.00  0.00    +0.000 A 
ATOM     16  O   UNL     1       4.684   2.937  17.797  0.00  0.00    +0.000 OA
ATOM     17  N   UNL     1       3.648   2.073  18.076  0.00  0.00    +0.000 NA
ATOM     18  C   UNL     1       2.730   2.798  18.728  0.00  0.00    +0.000 A 
ATOM     19  C   UNL     1       1.526   2.105  19.248  0.00  0.00    +0.000 C 
ATOM     20  C   UNL     1       3.138   4.156  18.862  0.00  0.00    +0.000 A 
BRANCH  15  25
ATOM     21  C   UNL     1       8.246   8.462  17.807  0.00  0.00    +0.000 C 
ATOM     22  C   UNL     1       7.296   7.300  17.840  0.00  0.00    +0.000 A 
ATOM     23  C   UNL     1       6.146   7.295  17.050  0.00  0.00    +0.000 A 
ATOM     24  C   UNL     1       5.230   6.245  17.144  0.00  0.00    +0.000 A 
ATOM     25  C   UNL     1       5.423   5.193  18.051  0.00  0.00    +0.000 A 
ATOM     26  C   UNL     1       6.610   5.177  18.799  0.00  0.00    +0.000 A 
ATOM     27  C   UNL     1       7.537   6.219  18.695  0.00  0.00    +0.000 A 
ENDBRANCH  15  25
ENDBRANCH   1  20
TORSDOF 3
ENDMDL
MODEL 9
REMARK VINA RESULT:      -8.2      1.326      2.013
REMARK  Name = 
REMARK  5 active torsions:
REMARK  status: ('A' for Active; 'I' for Inactive)
REMARK    1  A    between atoms: C_1  and  C_2
REMARK    2  A    between atoms: C_5  and  C_6
REMARK    3  A    between atoms: C_9  and  C_10
REMARK    4  A    between atoms: C_11  and  C_12
REMARK    5  A    between atoms: N_14  and  C_15
REMARK                            x       y       z     vdW  Elec       q    Type
REMARK                         _______ _______ _______ _____ _____    ______ ____
ROOT
ATOM      1  C   UNL     1       2.401   5.197  19.608  0.00  0.00    +0.000 C 
ATOM      2  O   UNL     1       2.255   5.047  20.816  0.00  0.00    +0.000 OA
ATOM      3  N   UNL     1       2.111   6.374  18.939  0.00  0.00    +0.000 N 
ATOM      4  H   UNL     1       2.097   6.366  17.932  0.00  0.00    +0.000 HD
ENDROOT
BRANCH   3   5
ATOM      5  C   UNL     1       1.746   7.594  19.557  0.00  0.00    +0.000 A 
ATOM      6  C   UNL     1       1.454   7.700  20.917  0.00  0.00    +0.000 A 
ATOM      7  C   UNL     1       1.083   8.926  21.475  0.00  0.00    +0.000 A 
ATOM      8  C   UNL     1       0.983  10.070  20.679  0.00  0.00    +0.000 A 
ATOM      9  C   UNL     1       0.577  11.299  21.223  0.00  0.00    +0.000 A 
ATOM     10  C   UNL     1       0.461  12.430  20.416  0.00  0.00    +0.000 A 
ATOM     11  C   UNL     1       0.752  12.344  19.058  0.00  0.00    +0.000 A 
ATOM     12  C   UNL     1       1.168  11.132  18.504  0.00  0.00    +0.000 A 
ATOM     13  C   UNL     1       1.290   9.982  19.302  0.00  0.00    +0.000 A 
ATOM     14  C   UNL     1       1.695   8.745  18.761  0.00  0.00    +0.000 A 
ENDBRANCH   3   5
BRANCH   1  20
ATOM     15  C   UNL     1       4.116   4.126  18.118  0.00  0.00    +0.000 A 
ATOM     16  O   UNL     1       4.305   2.926  17.501  0.00  0.00    +0.000 OA
ATOM     17  N   UNL     1       3.232   2.097  17.749  0.00  0.00    +0.000 NA
ATOM     18  C   UNL     1       2.400   2.795  18.531  0.00  0.00    +0.000 A 
ATOM     19  C   UNL     1       1.185   2.120  19.046  0.00  0.00    +0.000 C 
ATOM     20  C   UNL     1       2.901   4.105  18.786  0.00  0.00    +0.000 A 
BRANCH  15  25
ATOM     21  C   UNL     1       8.157   8.247  17.833  0.00  0.00    +0.000 C 
ATOM     22  C   UNL     1       7.162   7.123  17.824  0.00  0.00    +0.000 A 
ATOM     23  C   UNL     1       6.055   7.157  16.976  0.00  0.00    +0.000 A 
ATOM     24  C   UNL     1       5.094   6.144  17.030  0.00  0.00    +0.000 A 
ATOM     25  C   UNL     1       5.199   5.094  17.952  0.00  0.00    +0.000 A 
ATOM     26  C   UNL     1       6.344   5.037  18.760  0.00  0.00    +0.000 A 
ATOM     27  C   UNL     1       7.316   6.041  18.697  0.00  0.00    +0.000 A 
ENDBRANCH  15  25
ENDBRANCH   1  20
TORSDOF 3
ENDMDL
