MODEL 1
REMARK VINA RESULT:      -8.9      0.000      0.000
REMARK  Name = 
REMARK  5 active torsions:
REMARK  status: ('A' for Active; 'I' for Inactive)
REMARK    1  A    between atoms: C_1  and  C_2
REMARK    2  A    between atoms: C_5  and  N_6
REMARK    3  A    between atoms: N_9  and  C_10
REMARK    4  A    between atoms: C_13  and  C_14
REMARK    5  A    between atoms: C_21  and  C_22
REMARK                            x       y       z     vdW  Elec       q    Type
REMARK                         _______ _______ _______ _____ _____    ______ ____
ROOT
ATOM      1  C   UNL     1       1.151   9.313  19.025  0.00  0.00    +0.000 A 
ATOM      2  C   UNL     1       1.815   8.926  17.862  0.00  0.00    +0.000 A 
ATOM      3  C   UNL     1       2.583   7.762  17.845  0.00  0.00    +0.000 A 
ATOM      4  C   UNL     1       2.808   7.013  19.006  0.00  0.00    +0.000 A 
ATOM      5  C   UNL     1       2.099   7.389  20.161  0.00  0.00    +0.000 A 
ATOM      6  C   UNL     1       1.295   8.528  20.167  0.00  0.00    +0.000 A 
ATOM      7  F   UNL     1       0.617   8.848  21.280  0.00  0.00    +0.000 F 
ENDROOT
BRANCH   4   8
ATOM      8  C   UNL     1       3.734   5.878  19.023  0.00  0.00    +0.000 A 
ATOM      9  N   UNL     1       4.965   6.095  18.482  0.00  0.00    +0.000 NA
ATOM     10  C   UNL     1       5.847   5.084  18.460  0.00  0.00    +0.000 A 
ATOM     11  N   UNL     1       5.674   3.836  18.915  0.00  0.00    +0.000 NA
ATOM     12  C   UNL     1       4.444   3.661  19.418  0.00  0.00    +0.000 A 
ATOM     13  N   UNL     1       4.007   2.475  19.925  0.00  0.00    +0.000 N 
ATOM     14  C   UNL     1       2.710   2.583  20.328  0.00  0.00    +0.000 A 
ATOM     15  C   UNL     1       2.283   3.874  20.065  0.00  0.00    +0.000 A 
ATOM     16  C   UNL     1       0.895   4.341  20.331  0.00  0.00    +0.000 C 
ATOM     17  C   UNL     1       3.413   4.588  19.506  0.00  0.00    +0.000 A 
ATOM     18  H   UNL     1       4.581   1.646  19.977  0.00  0.00    +0.000 HD
ENDBRANCH   4   8
BRANCH   1  22
ATOM     19  N   UNL     1      -1.635  11.615  18.673  0.00  0.00    +0.000 N 
ATOM     20  C   UNL     1      -0.968  10.416  18.527  0.00  0.00    +0.000 C 
ATOM     21  O   UNL     1      -1.452   9.415  18.007  0.00  0.00    +0.000 OA
ATOM     22  N   UNL     1       0.307  10.451  19.063  0.00  0.00    +0.000 N 
ATOM     23  H   UNL     1      -1.063  12.437  18.812  0.00  0.00    +0.000 HD
ATOM     24  H   UNL     1       0.443  11.065  19.857  0.00  0.00    +0.000 HD
BRANCH  19  29
ATOM     25  C   UNL     1      -7.222  12.356  17.982  0.00  0.00    +0.000 C 
ATOM     26  C   UNL     1      -5.743  12.164  18.119  0.00  0.00    +0.000 A 
ATOM     27  C   UNL     1      -4.998  11.699  17.044  0.00  0.00    +0.000 A 
ATOM     28  C   UNL     1      -3.629  11.513  17.208  0.00  0.00    +0.000 A 
ATOM     29  C   UNL     1      -3.014  11.803  18.426  0.00  0.00    +0.000 A 
ATOM     30  C   UNL     1      -3.842  12.262  19.442  0.00  0.00    +0.000 A 
ATOM     31  N   UNL     1      -5.185  12.452  19.321  0.00  0.00    +0.000 NA
ENDBRANCH  19  29
ENDBRANCH   1  22
TORSDOF 3
ENDMDL
MODEL 2
REMARK VINA RESULT:      -8.8      1.215      1.215
REMARK  Name = 
REMARK  5 active torsions:
REMARK  status: ('A' for Active; 'I' for Inactive)
REMARK    1  A    between atoms: C_1  and  C_2
REMARK    2  A    between atoms: C_5  and  N_6
REMARK    3  A    between atoms: N_9  and  C_10
REMARK    4  A    between atoms: C_13  and  C_14
REMARK    5  A    between atoms: C_21  and  C_22
REMARK                            x       y       z     vdW  Elec       q    Type
REMARK                         _______ _______ _______ _____ _____    ______ ____
ROOT
ATOM      1  C   UNL     1       1.207   9.223  18.998  0.00  0.00    +0.000 A 
ATOM      2  C   UNL     1       1.842   9.208  17.756  0.00  0.00    +0.000 A 
ATOM      3  C   UNL     1       2.719   8.176  17.426  0.00  0.00    +0.000 A 
ATOM      4  C   UNL     1       3.080   7.194  18.355  0.00  0.00    +0.000 A 
ATOM      5  C   UNL     1       2.402   7.193  19.588  0.00  0.00    +0.000 A 
ATOM      6  C   UNL     1       1.491   8.201  19.902  0.00  0.00    +0.000 A 
ATOM      7  F   UNL     1       0.847   8.161  21.079  0.00  0.00    +0.000 F 
ENDROOT
BRANCH   4   8
ATOM      8  C   UNL     1       4.113   6.197  18.061  0.00  0.00    +0.000 A 
ATOM      9  N   UNL     1       5.381   6.670  17.908  0.00  0.00    +0.000 NA
ATOM     10  C   UNL     1       6.363   5.800  17.625  0.00  0.00    +0.000 A 
ATOM     11  N   UNL     1       6.262   4.475  17.460  0.00  0.00    +0.000 NA
ATOM     12  C   UNL     1       4.996   4.057  17.597  0.00  0.00    +0.000 A 
ATOM     13  N   UNL     1       4.620   2.756  17.456  0.00  0.00    +0.000 N 
ATOM     14  C   UNL     1       3.273   2.634  17.612  0.00  0.00    +0.000 A 
ATOM     15  C   UNL     1       2.750   3.893  17.850  0.00  0.00    +0.000 A 
ATOM     16  C   UNL     1       1.294   4.151  18.023  0.00  0.00    +0.000 C 
ATOM     17  C   UNL     1       3.867   4.817  17.876  0.00  0.00    +0.000 A 
ATOM     18  H   UNL     1       5.268   2.007  17.256  0.00  0.00    +0.000 HD
ENDBRANCH   4   8
BRANCH   1  22
ATOM     19  N   UNL     1      -1.681  11.420  19.088  0.00  0.00    +0.000 N 
ATOM     20  C   UNL     1      -0.878  10.419  18.582  0.00  0.00    +0.000 C 
ATOM     21  O   UNL     1      -1.146   9.755  17.585  0.00  0.00    +0.000 OA
ATOM     22  N   UNL     1       0.259  10.217  19.344  0.00  0.00    +0.000 N 
ATOM     23  H   UNL     1      -1.235  12.096  19.694  0.00  0.00    +0.000 HD
ATOM     24  H   UNL     1       0.175  10.410  20.335  0.00  0.00    +0.000 HD
BRANCH  19  29
ATOM     25  C   UNL     1      -7.062  12.503  17.634  0.00  0.00    +0.000 C 
ATOM     26  C   UNL     1      -5.631  12.220  17.973  0.00  0.00    +0.000 A 
ATOM     27  C   UNL     1      -4.781  11.683  17.017  0.00  0.00    +0.000 A 
ATOM     28  C   UNL     1      -3.462  11.413  17.368  0.00  0.00    +0.000 A 
ATOM     29  C   UNL     1      -2.999  11.691  18.653  0.00  0.00    +0.000 A 
ATOM     30  C   UNL     1      -3.923  12.227  19.541  0.00  0.00    +0.000 A 
ATOM     31  N   UNL     1      -5.222  12.500  19.235  0.00  0.00    +0.000 NA
ENDBRANCH  19  29
ENDBRANCH   1  22
TORSDOF 3
ENDMDL
MODEL 3
REMARK VINA RESULT:      -8.7      2.109      2.360
REMARK  Name = 
REMARK  5 active torsions:
REMARK  status: ('A' for Active; 'I' for Inactive)
REMARK    1  A    between atoms: C_1  and  C_2
REMARK    2  A    between atoms: C_5  and  N_6
REMARK    3  A    between atoms: N_9  and  C_10
REMARK    4  A    between atoms: C_13  and  C_14
REMARK    5  A    between atoms: C_21  and  C_22
REMARK                            x       y       z     vdW  Elec       q    Type
REMARK                         _______ _______ _______ _____ _____    ______ ____
ROOT
ATOM      1  C   UNL     1       1.553   9.187  19.563  0.00  0.00    +0.000 A 
ATOM      2  C   UNL     1       1.813   9.034  18.202  0.00  0.00    +0.000 A 
ATOM      3  C   UNL     1       2.270   7.813  17.705  0.00  0.00    +0.000 A 
ATOM      4  C   UNL     1       2.590   6.748  18.555  0.00  0.00    +0.000 A 
ATOM      5  C   UNL     1       2.283   6.899  19.919  0.00  0.00    +0.000 A 
ATOM      6  C   UNL     1       1.784   8.105  20.411  0.00  0.00    +0.000 A 
ATOM      7  F   UNL     1       1.484   8.209  21.715  0.00  0.00    +0.000 F 
ENDROOT
BRANCH   4   8
ATOM      8  C   UNL     1       3.211   5.521  18.051  0.00  0.00    +0.000 A 
ATOM      9  N   UNL     1       4.165   5.676  17.092  0.00  0.00    +0.000 NA
ATOM     10  C   UNL     1       4.756   4.582  16.587  0.00  0.00    +0.000 A 
ATOM     11  N   UNL     1       4.522   3.303  16.908  0.00  0.00    +0.000 NA
ATOM     12  C   UNL     1       3.563   3.195  17.837  0.00  0.00    +0.000 A 
ATOM     13  N   UNL     1       3.122   2.001  18.320  0.00  0.00    +0.000 N 
ATOM     14  C   UNL     1       2.120   2.197  19.222  0.00  0.00    +0.000 A 
ATOM     15  C   UNL     1       1.890   3.558  19.322  0.00  0.00    +0.000 A 
ATOM     16  C   UNL     1       0.826   4.142  20.183  0.00  0.00    +0.000 C 
ATOM     17  C   UNL     1       2.846   4.214  18.452  0.00  0.00    +0.000 A 
ATOM     18  H   UNL     1       3.498   1.109  18.029  0.00  0.00    +0.000 HD
ENDBRANCH   4   8
BRANCH   1  22
ATOM     19  N   UNL     1      -0.655  11.801  20.773  0.00  0.00    +0.000 N 
ATOM     20  C   UNL     1      -0.341  10.576  20.223  0.00  0.00    +0.000 C 
ATOM     21  O   UNL     1      -1.168   9.727  19.907  0.00  0.00    +0.000 OA
ATOM     22  N   UNL     1       1.024  10.388  20.096  0.00  0.00    +0.000 N 
ATOM     23  H   UNL     1       0.047  12.525  20.698  0.00  0.00    +0.000 HD
ATOM     24  H   UNL     1       1.607  10.852  20.783  0.00  0.00    +0.000 HD
BRANCH  19  29
ATOM     25  C   UNL     1      -5.790  13.107  22.817  0.00  0.00    +0.000 C 
ATOM     26  C   UNL     1      -4.442  12.793  22.243  0.00  0.00    +0.000 A 
ATOM     27  C   UNL     1      -4.182  13.033  20.902  0.00  0.00    +0.000 A 
ATOM     28  C   UNL     1      -2.927  12.712  20.395  0.00  0.00    +0.000 A 
ATOM     29  C   UNL     1      -1.943  12.174  21.224  0.00  0.00    +0.000 A 
ATOM     30  C   UNL     1      -2.296  11.969  22.550  0.00  0.00    +0.000 A 
ATOM     31  N   UNL     1      -3.516  12.266  23.082  0.00  0.00    +0.000 NA
ENDBRANCH  19  29
ENDBRANCH   1  22
TORSDOF 3
ENDMDL
MODEL 4
REMARK VINA RESULT:      -8.6      2.514      3.451
REMARK  Name = 
REMARK  5 active torsions:
REMARK  status: ('A' for Active; 'I' for Inactive)
REMARK    1  A    between atoms: C_1  and  C_2
REMARK    2  A    between atoms: C_5  and  N_6
REMARK    3  A    between atoms: N_9  and  C_10
REMARK    4  A    between atoms: C_13  and  C_14
REMARK    5  A    between atoms: C_21  and  C_22
REMARK                            x       y       z     vdW  Elec       q    Type
REMARK                         _______ _______ _______ _____ _____    ______ ____
ROOT
ATOM      1  C   UNL     1       1.540   8.953  19.602  0.00  0.00    +0.000 A 
ATOM      2  C   UNL     1       1.737   7.896  20.489  0.00  0.00    +0.000 A 
ATOM      3  C   UNL     1       2.256   6.683  20.035  0.00  0.00    +0.000 A 
ATOM      4  C   UNL     1       2.485   6.446  18.675  0.00  0.00    +0.000 A 
ATOM      5  C   UNL     1       2.324   7.532  17.796  0.00  0.00    +0.000 A 
ATOM      6  C   UNL     1       1.848   8.760  18.257  0.00  0.00    +0.000 A 
ATOM      7  F   UNL     1       1.723   9.781  17.395  0.00  0.00    +0.000 F 
ENDROOT
BRANCH   4   8
ATOM      8  C   UNL     1       2.886   5.127  18.180  0.00  0.00    +0.000 A 
ATOM      9  N   UNL     1       2.023   4.103  18.425  0.00  0.00    +0.000 NA
ATOM     10  C   UNL     1       2.349   2.870  18.004  0.00  0.00    +0.000 A 
ATOM     11  N   UNL     1       3.456   2.494  17.351  0.00  0.00    +0.000 NA
ATOM     12  C   UNL     1       4.286   3.527  17.151  0.00  0.00    +0.000 A 
ATOM     13  N   UNL     1       5.491   3.407  16.529  0.00  0.00    +0.000 N 
ATOM     14  C   UNL     1       6.130   4.610  16.501  0.00  0.00    +0.000 A 
ATOM     15  C   UNL     1       5.325   5.541  17.135  0.00  0.00    +0.000 A 
ATOM     16  C   UNL     1       5.726   6.960  17.336  0.00  0.00    +0.000 C 
ATOM     17  C   UNL     1       4.111   4.853  17.529  0.00  0.00    +0.000 A 
ATOM     18  H   UNL     1       5.841   2.536  16.156  0.00  0.00    +0.000 HD
ENDBRANCH   4   8
BRANCH   1  22
ATOM     19  N   UNL     1      -0.513  11.747  20.679  0.00  0.00    +0.000 N 
ATOM     20  C   UNL     1      -0.267  10.460  20.247  0.00  0.00    +0.000 C 
ATOM     21  O   UNL     1      -1.134   9.605  20.093  0.00  0.00    +0.000 OA
ATOM     22  N   UNL     1       1.079  10.221  20.036  0.00  0.00    +0.000 N 
ATOM     23  H   UNL     1       0.195  12.437  20.469  0.00  0.00    +0.000 HD
ATOM     24  H   UNL     1       1.724  10.740  20.620  0.00  0.00    +0.000 HD
BRANCH  19  29
ATOM     25  C   UNL     1      -5.458  13.387  22.938  0.00  0.00    +0.000 C 
ATOM     26  C   UNL     1      -4.159  12.985  22.308  0.00  0.00    +0.000 A 
ATOM     27  C   UNL     1      -3.946  13.199  20.954  0.00  0.00    +0.000 A 
ATOM     28  C   UNL     1      -2.737  12.797  20.394  0.00  0.00    +0.000 A 
ATOM     29  C   UNL     1      -1.753  12.203  21.183  0.00  0.00    +0.000 A 
ATOM     30  C   UNL     1      -2.058  12.030  22.526  0.00  0.00    +0.000 A 
ATOM     31  N   UNL     1      -3.231  12.406  23.109  0.00  0.00    +0.000 NA
ENDBRANCH  19  29
ENDBRANCH   1  22
TORSDOF 3
ENDMDL
MODEL 5
REMARK VINA RESULT:      -8.5      2.422      3.000
REMARK  Name = 
REMARK  5 active torsions:
REMARK  status: ('A' for Active; 'I' for Inactive)
REMARK    1  A    between atoms: C_1  and  C_2
REMARK    2  A    between atoms: C_5  and  N_6
REMARK    3  A    between atoms: N_9  and  C_10
REMARK    4  A    between atoms: C_13  and  C_14
REMARK    5  A    between atoms: C_21  and  C_22
REMARK                            x       y       z     vdW  Elec       q    Type
REMARK                         _______ _______ _______ _____ _____    ______ ____
ROOT
ATOM      1  C   UNL     1       1.603   8.998  19.580  0.00  0.00    +0.000 A 
ATOM      2  C   UNL     1       1.824   7.932  20.451  0.00  0.00    +0.000 A 
ATOM      3  C   UNL     1       2.407   6.753  19.987  0.00  0.00    +0.000 A 
ATOM      4  C   UNL     1       2.681   6.554  18.629  0.00  0.00    +0.000 A 
ATOM      5  C   UNL     1       2.494   7.650  17.767  0.00  0.00    +0.000 A 
ATOM      6  C   UNL     1       1.952   8.846  18.239  0.00  0.00    +0.000 A 
ATOM      7  F   UNL     1       1.804   9.878  17.395  0.00  0.00    +0.000 F 
ENDROOT
BRANCH   4   8
ATOM      8  C   UNL     1       3.153   5.264  18.119  0.00  0.00    +0.000 A 
ATOM      9  N   UNL     1       4.095   5.312  17.137  0.00  0.00    +0.000 NA
ATOM     10  C   UNL     1       4.552   4.157  16.626  0.00  0.00    +0.000 A 
ATOM     11  N   UNL     1       4.189   2.913  16.961  0.00  0.00    +0.000 NA
ATOM     12  C   UNL     1       3.247   2.914  17.914  0.00  0.00    +0.000 A 
ATOM     13  N   UNL     1       2.692   1.776  18.416  0.00  0.00    +0.000 N 
ATOM     14  C   UNL     1       1.739   2.083  19.340  0.00  0.00    +0.000 A 
ATOM     15  C   UNL     1       1.660   3.462  19.436  0.00  0.00    +0.000 A 
ATOM     16  C   UNL     1       0.686   4.161  20.318  0.00  0.00    +0.000 C 
ATOM     17  C   UNL     1       2.659   4.007  18.538  0.00  0.00    +0.000 A 
ATOM     18  H   UNL     1       2.962   0.848  18.123  0.00  0.00    +0.000 HD
ENDBRANCH   4   8
BRANCH   1  22
ATOM     19  N   UNL     1      -0.556  11.621  20.859  0.00  0.00    +0.000 N 
ATOM     20  C   UNL     1      -0.237  10.342  20.453  0.00  0.00    +0.000 C 
ATOM     21  O   UNL     1      -1.011   9.391  20.491  0.00  0.00    +0.000 OA
ATOM     22  N   UNL     1       1.075  10.235  20.026  0.00  0.00    +0.000 N 
ATOM     23  H   UNL     1       0.022  12.368  20.499  0.00  0.00    +0.000 HD
ATOM     24  H   UNL     1       1.742  10.858  20.465  0.00  0.00    +0.000 HD
BRANCH  19  29
ATOM     25  C   UNL     1      -5.376  13.233  23.392  0.00  0.00    +0.000 C 
ATOM     26  C   UNL     1      -4.097  12.779  22.759  0.00  0.00    +0.000 A 
ATOM     27  C   UNL     1      -3.098  12.210  23.536  0.00  0.00    +0.000 A 
ATOM     28  C   UNL     1      -1.914  11.816  22.921  0.00  0.00    +0.000 A 
ATOM     29  C   UNL     1      -1.740  11.975  21.547  0.00  0.00    +0.000 A 
ATOM     30  C   UNL     1      -2.794  12.554  20.854  0.00  0.00    +0.000 A 
ATOM     31  N   UNL     1      -3.966  12.957  21.421  0.00  0.00    +0.000 NA
ENDBRANCH  19  29
ENDBRANCH   1  22
TORSDOF 3
ENDMDL
MODEL 6
REMARK VINA RESULT:      -8.5      2.463      3.303
REMARK  Name = 
REMARK  5 active torsions:
REMARK  status: ('A' for Active; 'I' for Inactive)
REMARK    1  A    between atoms: C_1  and  C_2
REMARK    2  A    between atoms: C_5  and  N_6
REMARK    3  A    between atoms: N_9  and  C_10
REMARK    4  A    between atoms: C_13  and  C_14
REMARK    5  A    between atoms: C_21  and  C_22
REMARK                            x       y       z     vdW  Elec       q    Type
REMARK                         _______ _______ _______ _____ _____    ______ ____
ROOT
ATOM      1  C   UNL     1       1.581   8.947  19.542  0.00  0.00    +0.000 A 
ATOM      2  C   UNL     1       1.830   8.755  18.184  0.00  0.00    +0.000 A 
ATOM      3  C   UNL     1       2.201   7.498  17.706  0.00  0.00    +0.000 A 
ATOM      4  C   UNL     1       2.448   6.428  18.573  0.00  0.00    +0.000 A 
ATOM      5  C   UNL     1       2.152   6.620  19.935  0.00  0.00    +0.000 A 
ATOM      6  C   UNL     1       1.737   7.865  20.406  0.00  0.00    +0.000 A 
ATOM      7  F   UNL     1       1.445   8.010  21.708  0.00  0.00    +0.000 F 
ENDROOT
BRANCH   4   8
ATOM      8  C   UNL     1       2.982   5.152  18.089  0.00  0.00    +0.000 A 
ATOM      9  N   UNL     1       2.205   4.054  18.299  0.00  0.00    +0.000 NA
ATOM     10  C   UNL     1       2.654   2.858  17.886  0.00  0.00    +0.000 A 
ATOM     11  N   UNL     1       3.813   2.585  17.273  0.00  0.00    +0.000 NA
ATOM     12  C   UNL     1       4.554   3.689  17.106  0.00  0.00    +0.000 A 
ATOM     13  N   UNL     1       5.786   3.681  16.527  0.00  0.00    +0.000 N 
ATOM     14  C   UNL     1       6.317   4.935  16.526  0.00  0.00    +0.000 A 
ATOM     15  C   UNL     1       5.410   5.788  17.133  0.00  0.00    +0.000 A 
ATOM     16  C   UNL     1       5.676   7.235  17.353  0.00  0.00    +0.000 C 
ATOM     17  C   UNL     1       4.249   4.992  17.481  0.00  0.00    +0.000 A 
ATOM     18  H   UNL     1       6.226   2.847  16.164  0.00  0.00    +0.000 HD
ENDBRANCH   4   8
BRANCH   1  22
ATOM     19  N   UNL     1      -0.439  11.702  20.770  0.00  0.00    +0.000 N 
ATOM     20  C   UNL     1      -0.210  10.444  20.253  0.00  0.00    +0.000 C 
ATOM     21  O   UNL     1      -1.090   9.622  20.019  0.00  0.00    +0.000 OA
ATOM     22  N   UNL     1       1.136  10.191  20.055  0.00  0.00    +0.000 N 
ATOM     23  H   UNL     1       0.288  12.390  20.626  0.00  0.00    +0.000 HD
ATOM     24  H   UNL     1       1.778  10.653  20.688  0.00  0.00    +0.000 HD
BRANCH  19  29
ATOM     25  C   UNL     1      -5.407  13.280  23.024  0.00  0.00    +0.000 C 
ATOM     26  C   UNL     1      -4.100  12.898  22.398  0.00  0.00    +0.000 A 
ATOM     27  C   UNL     1      -3.828  13.247  21.083  0.00  0.00    +0.000 A 
ATOM     28  C   UNL     1      -2.614  12.861  20.525  0.00  0.00    +0.000 A 
ATOM     29  C   UNL     1      -1.680  12.149  21.278  0.00  0.00    +0.000 A 
ATOM     30  C   UNL     1      -2.042  11.845  22.584  0.00  0.00    +0.000 A 
ATOM     31  N   UNL     1      -3.223  12.202  23.163  0.00  0.00    +0.000 NA
ENDBRANCH  19  29
ENDBRANCH   1  22
TORSDOF 3
ENDMDL
MODEL 7
REMARK VINA RESULT:      -8.5      3.322      3.929
REMARK  Name = 
REMARK  5 active torsions:
REMARK  status: ('A' for Active; 'I' for Inactive)
REMARK    1  A    between atoms: C_1  and  C_2
REMARK    2  A    between atoms: C_5  and  N_6
REMARK    3  A    between atoms: N_9  and  C_10
REMARK    4  A    between atoms: C_13  and  C_14
REMARK    5  A    between atoms: C_21  and  C_22
REMARK                            x       y       z     vdW  Elec       q    Type
REMARK                         _______ _______ _______ _____ _____    ______ ____
ROOT
ATOM      1  C   UNL     1       1.009   9.208  19.307  0.00  0.00    +0.000 A 
ATOM      2  C   UNL     1       1.496   9.310  18.005  0.00  0.00    +0.000 A 
ATOM      3  C   UNL     1       2.405   8.371  17.517  0.00  0.00    +0.000 A 
ATOM      4  C   UNL     1       2.944   7.375  18.339  0.00  0.00    +0.000 A 
ATOM      5  C   UNL     1       2.414   7.255  19.636  0.00  0.00    +0.000 A 
ATOM      6  C   UNL     1       1.471   8.167  20.110  0.00  0.00    +0.000 A 
ATOM      7  F   UNL     1       0.971   8.012  21.347  0.00  0.00    +0.000 F 
ENDROOT
BRANCH   4   8
ATOM      8  C   UNL     1       4.008   6.484  17.872  0.00  0.00    +0.000 A 
ATOM      9  N   UNL     1       5.177   7.080  17.505  0.00  0.00    +0.000 NA
ATOM     10  C   UNL     1       6.181   6.309  17.058  0.00  0.00    +0.000 A 
ATOM     11  N   UNL     1       6.189   4.978  16.912  0.00  0.00    +0.000 NA
ATOM     12  C   UNL     1       5.015   4.436  17.263  0.00  0.00    +0.000 A 
ATOM     13  N   UNL     1       4.756   3.101  17.187  0.00  0.00    +0.000 N 
ATOM     14  C   UNL     1       3.475   2.846  17.572  0.00  0.00    +0.000 A 
ATOM     15  C   UNL     1       2.873   4.050  17.896  0.00  0.00    +0.000 A 
ATOM     16  C   UNL     1       1.450   4.162  18.315  0.00  0.00    +0.000 C 
ATOM     17  C   UNL     1       3.878   5.083  17.731  0.00  0.00    +0.000 A 
ATOM     18  H   UNL     1       5.434   2.419  16.880  0.00  0.00    +0.000 HD
ENDBRANCH   4   8
BRANCH   1  22
ATOM     19  N   UNL     1      -0.706  11.875  21.074  0.00  0.00    +0.000 N 
ATOM     20  C   UNL     1       0.377  11.104  20.706  0.00  0.00    +0.000 C 
ATOM     21  O   UNL     1       1.526  11.296  21.092  0.00  0.00    +0.000 OA
ATOM     22  N   UNL     1       0.034  10.101  19.817  0.00  0.00    +0.000 N 
ATOM     23  H   UNL     1      -1.618  11.454  20.965  0.00  0.00    +0.000 HD
ATOM     24  H   UNL     1      -0.741  10.298  19.195  0.00  0.00    +0.000 HD
BRANCH  19  29
ATOM     25  C   UNL     1      -0.570  16.661  24.127  0.00  0.00    +0.000 C 
ATOM     26  C   UNL     1      -0.574  15.416  23.293  0.00  0.00    +0.000 A 
ATOM     27  C   UNL     1      -0.154  15.461  21.972  0.00  0.00    +0.000 A 
ATOM     28  C   UNL     1      -0.188  14.292  21.218  0.00  0.00    +0.000 A 
ATOM     29  C   UNL     1      -0.621  13.094  21.786  0.00  0.00    +0.000 A 
ATOM     30  C   UNL     1      -1.021  13.148  23.114  0.00  0.00    +0.000 A 
ATOM     31  N   UNL     1      -1.007  14.274  23.882  0.00  0.00    +0.000 NA
ENDBRANCH  19  29
ENDBRANCH   1  22
TORSDOF 3
ENDMDL
MODEL 8
REMARK VINA RESULT:      -8.5      3.710     10.299
REMARK  Name = 
REMARK  5 active torsions:
REMARK  status: ('A' for Active; 'I' for Inactive)
REMARK    1  A    between atoms: C_1  and  C_2
REMARK    2  A    between atoms: C_5  and  N_6
REMARK    3  A    between atoms: N_9  and  C_10
REMARK    4  A    between atoms: C_13  and  C_14
REMARK    5  A    between atoms: C_21  and  C_22
REMARK                            x       y       z     vdW  Elec       q    Type
REMARK                         _______ _______ _______ _____ _____    ______ ____
ROOT
ATOM      1  C   UNL     1      -0.150  10.550  21.731  0.00  0.00    +0.000 A 
ATOM      2  C   UNL     1      -0.692  11.483  20.848  0.00  0.00    +0.000 A 
ATOM      3  C   UNL     1      -1.749  12.300  21.249  0.00  0.00    +0.000 A 
ATOM      4  C   UNL     1      -2.373  12.137  22.491  0.00  0.00    +0.000 A 
ATOM      5  C   UNL     1      -1.791  11.225  23.389  0.00  0.00    +0.000 A 
ATOM      6  C   UNL     1      -0.705  10.438  23.005  0.00  0.00    +0.000 A 
ATOM      7  F   UNL     1      -0.161   9.591  23.892  0.00  0.00    +0.000 F 
ENDROOT
BRANCH   4   8
ATOM      8  C   UNL     1      -3.576  12.890  22.853  0.00  0.00    +0.000 A 
ATOM      9  N   UNL     1      -4.749  12.441  22.328  0.00  0.00    +0.000 NA
ATOM     10  C   UNL     1      -5.881  13.103  22.618  0.00  0.00    +0.000 A 
ATOM     11  N   UNL     1      -6.018  14.195  23.382  0.00  0.00    +0.000 NA
ATOM     12  C   UNL     1      -4.838  14.614  23.859  0.00  0.00    +0.000 A 
ATOM     13  N   UNL     1      -4.701  15.717  24.646  0.00  0.00    +0.000 N 
ATOM     14  C   UNL     1      -3.388  15.922  24.947  0.00  0.00    +0.000 A 
ATOM     15  C   UNL     1      -2.644  14.931  24.329  0.00  0.00    +0.000 A 
ATOM     16  C   UNL     1      -1.159  14.866  24.399  0.00  0.00    +0.000 C 
ATOM     17  C   UNL     1      -3.582  14.059  23.649  0.00  0.00    +0.000 A 
ATOM     18  H   UNL     1      -5.478  16.289  24.944  0.00  0.00    +0.000 HD
ENDBRANCH   4   8
BRANCH   1  22
ATOM     19  N   UNL     1       2.013   7.822  20.705  0.00  0.00    +0.000 N 
ATOM     20  C   UNL     1       0.813   8.425  21.016  0.00  0.00    +0.000 C 
ATOM     21  O   UNL     1      -0.279   7.870  20.948  0.00  0.00    +0.000 OA
ATOM     22  N   UNL     1       0.967   9.750  21.386  0.00  0.00    +0.000 N 
ATOM     23  H   UNL     1       2.846   8.245  21.091  0.00  0.00    +0.000 HD
ATOM     24  H   UNL     1       1.742  10.246  20.962  0.00  0.00    +0.000 HD
BRANCH  19  29
ATOM     25  C   UNL     1       2.507   2.878  17.954  0.00  0.00    +0.000 C 
ATOM     26  C   UNL     1       2.380   4.160  18.720  0.00  0.00    +0.000 A 
ATOM     27  C   UNL     1       1.950   4.144  20.039  0.00  0.00    +0.000 A 
ATOM     28  C   UNL     1       1.825   5.352  20.717  0.00  0.00    +0.000 A 
ATOM     29  C   UNL     1       2.141   6.556  20.088  0.00  0.00    +0.000 A 
ATOM     30  C   UNL     1       2.562   6.471  18.767  0.00  0.00    +0.000 A 
ATOM     31  N   UNL     1       2.692   5.308  18.069  0.00  0.00    +0.000 NA
ENDBRANCH  19  29
ENDBRANCH   1  22
TORSDOF 3
ENDMDL
MODEL 9
REMARK VINA RESULT:      -8.5      2.011      2.373
REMARK  Name = 
REMARK  5 active torsions:
REMARK  status: ('A' for Active; 'I' for Inactive)
REMARK    1  A    between atoms: C_1  and  C_2
REMARK    2  A    between atoms: C_5  and  N_6
REMARK    3  A    between atoms: N_9  and  C_10
REMARK    4  A    between atoms: C_13  and  C_14
REMARK    5  A    between atoms: C_21  and  C_22
REMARK                            x       y       z     vdW  Elec       q    Type
REMARK                         _______ _______ _______ _____ _____    ______ ____
ROOT
ATOM      1  C   UNL     1       1.479   9.142  19.704  0.00  0.00    +0.000 A 
ATOM      2  C   UNL     1       1.695   8.034  20.522  0.00  0.00    +0.000 A 
ATOM      3  C   UNL     1       2.336   6.902  20.019  0.00  0.00    +0.000 A 
ATOM      4  C   UNL     1       2.677   6.792  18.666  0.00  0.00    +0.000 A 
ATOM      5  C   UNL     1       2.494   7.931  17.861  0.00  0.00    +0.000 A 
ATOM      6  C   UNL     1       1.893   9.080  18.375  0.00  0.00    +0.000 A 
ATOM      7  F   UNL     1       1.750  10.156  17.586  0.00  0.00    +0.000 F 
ENDROOT
BRANCH   4   8
ATOM      8  C   UNL     1       3.213   5.549  18.105  0.00  0.00    +0.000 A 
ATOM      9  N   UNL     1       4.152   5.683  17.129  0.00  0.00    +0.000 NA
ATOM     10  C   UNL     1       4.667   4.575  16.572  0.00  0.00    +0.000 A 
ATOM     11  N   UNL     1       4.367   3.301  16.856  0.00  0.00    +0.000 NA
ATOM     12  C   UNL     1       3.425   3.216  17.805  0.00  0.00    +0.000 A 
ATOM     13  N   UNL     1       2.927   2.033  18.259  0.00  0.00    +0.000 N 
ATOM     14  C   UNL     1       1.959   2.254  19.192  0.00  0.00    +0.000 A 
ATOM     15  C   UNL     1       1.811   3.623  19.343  0.00  0.00    +0.000 A 
ATOM     16  C   UNL     1       0.803   4.236  20.251  0.00  0.00    +0.000 C 
ATOM     17  C   UNL     1       2.783   4.253  18.471  0.00  0.00    +0.000 A 
ATOM     18  H   UNL     1       3.243   1.132  17.928  0.00  0.00    +0.000 HD
ENDBRANCH   4   8
BRANCH   1  22
ATOM     19  N   UNL     1      -0.849  11.762  20.648  0.00  0.00    +0.000 N 
ATOM     20  C   UNL     1      -0.471  10.553  20.103  0.00  0.00    +0.000 C 
ATOM     21  O   UNL     1      -1.251   9.740  19.615  0.00  0.00    +0.000 OA
ATOM     22  N   UNL     1       0.892  10.334  20.196  0.00  0.00    +0.000 N 
ATOM     23  H   UNL     1      -0.131  12.469  20.724  0.00  0.00    +0.000 HD
ATOM     24  H   UNL     1       1.360  10.753  20.991  0.00  0.00    +0.000 HD
BRANCH  19  29
ATOM     25  C   UNL     1      -6.206  13.172  21.903  0.00  0.00    +0.000 C 
ATOM     26  C   UNL     1      -4.796  12.824  21.533  0.00  0.00    +0.000 A 
ATOM     27  C   UNL     1      -4.398  12.850  20.204  0.00  0.00    +0.000 A 
ATOM     28  C   UNL     1      -3.088  12.503  19.890  0.00  0.00    +0.000 A 
ATOM     29  C   UNL     1      -2.187  12.151  20.895  0.00  0.00    +0.000 A 
ATOM     30  C   UNL     1      -2.677  12.152  22.193  0.00  0.00    +0.000 A 
ATOM     31  N   UNL     1      -3.954  12.481  22.539  0.00  0.00    +0.000 NA
ENDBRANCH  19  29
ENDBRANCH   1  22
TORSDOF 3
ENDMDL
