MODEL 1
REMARK VINA RESULT:      -7.0      0.000      0.000
REMARK  Name = 
REMARK  9 active torsions:
REMARK  status: ('A' for Active; 'I' for Inactive)
REMARK    1  A    between atoms: C_1  and  O_2
REMARK    2  A    between atoms: O_2  and  C_3
REMARK    3  A    between atoms: C_6  and  N_7
REMARK    4  A    between atoms: C_8  and  C_10
REMARK    5  A    between atoms: C_10  and  O_11
REMARK    6  A    between atoms: O_11  and  C_12
REMARK    7  A    between atoms: C_12  and  C_14
REMARK    8  A    between atoms: C_20  and  O_21
REMARK    9  A    between atoms: O_21  and  C_22
REMARK                            x       y       z     vdW  Elec       q    Type
REMARK                         _______ _______ _______ _____ _____    ______ ____
ROOT
ATOM      1  N   UNL     1       6.639   7.604  17.108  0.00  0.00    +0.000 N 
ATOM      2  C   UNL     1       7.699   7.778  17.994  0.00  0.00    +0.000 C 
ATOM      3  O   UNL     1       8.158   6.909  18.734  0.00  0.00    +0.000 OA
ATOM      4  H   UNL     1       6.023   8.412  17.110  0.00  0.00    +0.000 HD
ENDROOT
BRANCH   1   8
ATOM      5  C   UNL     1       4.573   3.927  17.112  0.00  0.00    +0.000 A 
ATOM      6  C   UNL     1       4.193   4.968  17.963  0.00  0.00    +0.000 A 
ATOM      7  C   UNL     1       4.876   6.184  17.950  0.00  0.00    +0.000 A 
ATOM      8  C   UNL     1       5.966   6.358  17.097  0.00  0.00    +0.000 A 
ATOM      9  C   UNL     1       6.360   5.323  16.230  0.00  0.00    +0.000 A 
ATOM     10  C   UNL     1       5.655   4.108  16.245  0.00  0.00    +0.000 A 
BRANCH   5  12
ATOM     11  C   UNL     1       2.474   2.963  17.710  0.00  0.00    +0.000 C 
ATOM     12  O   UNL     1       3.795   2.804  17.207  0.00  0.00    +0.000 OA
ENDBRANCH   5  12
BRANCH   9  13
ATOM     13  O   UNL     1       7.373   5.618  15.350  0.00  0.00    +0.000 OA
ATOM     14  C   UNL     1       7.268   5.067  14.045  0.00  0.00    +0.000 C 
ENDBRANCH   9  13
ENDBRANCH   1   8
BRANCH   2  15
ATOM     15  C   UNL     1       8.233   9.214  18.027  0.00  0.00    +0.000 C 
BRANCH  15  16
ATOM     16  O   UNL     1       9.373   9.346  18.882  0.00  0.00    +0.000 OA
BRANCH  16  17
ATOM     17  C   UNL     1       9.429  10.521  19.555  0.00  0.00    +0.000 C 
ATOM     18  O   UNL     1       8.984  10.718  20.673  0.00  0.00    +0.000 OA
BRANCH  17  19
ATOM     19  C   UNL     1      10.069  11.567  18.724  0.00  0.00    +0.000 A 
ATOM     20  C   UNL     1      11.453  11.622  18.561  0.00  0.00    +0.000 A 
ATOM     21  C   UNL     1      11.972  12.652  17.796  0.00  0.00    +0.000 A 
ATOM     22  N   UNL     1      11.213  13.595  17.195  0.00  0.00    +0.000 NA
ATOM     23  C   UNL     1       9.878  13.519  17.371  0.00  0.00    +0.000 A 
ATOM     24  C   UNL     1       9.261  12.534  18.121  0.00  0.00    +0.000 A 
ENDBRANCH  17  19
ENDBRANCH  16  17
ENDBRANCH  15  16
ENDBRANCH   2  15
TORSDOF 7
ENDMDL
MODEL 2
REMARK VINA RESULT:      -6.8      0.490      1.089
REMARK  Name = 
REMARK  9 active torsions:
REMARK  status: ('A' for Active; 'I' for Inactive)
REMARK    1  A    between atoms: C_1  and  O_2
REMARK    2  A    between atoms: O_2  and  C_3
REMARK    3  A    between atoms: C_6  and  N_7
REMARK    4  A    between atoms: C_8  and  C_10
REMARK    5  A    between atoms: C_10  and  O_11
REMARK    6  A    between atoms: O_11  and  C_12
REMARK    7  A    between atoms: C_12  and  C_14
REMARK    8  A    between atoms: C_20  and  O_21
REMARK    9  A    between atoms: O_21  and  C_22
REMARK                            x       y       z     vdW  Elec       q    Type
REMARK                         _______ _______ _______ _____ _____    ______ ____
ROOT
ATOM      1  N   UNL     1       6.423   7.673  17.024  0.00  0.00    +0.000 N 
ATOM      2  C   UNL     1       7.533   7.746  17.864  0.00  0.00    +0.000 C 
ATOM      3  O   UNL     1       7.961   6.826  18.558  0.00  0.00    +0.000 OA
ATOM      4  H   UNL     1       5.869   8.523  17.076  0.00  0.00    +0.000 HD
ENDROOT
BRANCH   1   8
ATOM      5  C   UNL     1       4.101   4.153  17.042  0.00  0.00    +0.000 A 
ATOM      6  C   UNL     1       3.912   5.146  18.007  0.00  0.00    +0.000 A 
ATOM      7  C   UNL     1       4.679   6.311  17.990  0.00  0.00    +0.000 A 
ATOM      8  C   UNL     1       5.662   6.480  17.015  0.00  0.00    +0.000 A 
ATOM      9  C   UNL     1       5.863   5.493  16.032  0.00  0.00    +0.000 A 
ATOM     10  C   UNL     1       5.074   4.331  16.054  0.00  0.00    +0.000 A 
BRANCH   5  12
ATOM     11  C   UNL     1       3.453   2.213  18.270  0.00  0.00    +0.000 C 
ATOM     12  O   UNL     1       3.258   3.081  17.160  0.00  0.00    +0.000 OA
ENDBRANCH   5  12
BRANCH   9  13
ATOM     13  O   UNL     1       6.775   5.790  15.050  0.00  0.00    +0.000 OA
ATOM     14  C   UNL     1       7.123   4.738  14.160  0.00  0.00    +0.000 C 
ENDBRANCH   9  13
ENDBRANCH   1   8
BRANCH   2  15
ATOM     15  C   UNL     1       8.172   9.138  17.906  0.00  0.00    +0.000 C 
BRANCH  15  16
ATOM     16  O   UNL     1       9.243   9.211  18.851  0.00  0.00    +0.000 OA
BRANCH  16  17
ATOM     17  C   UNL     1       9.284  10.368  19.557  0.00  0.00    +0.000 C 
ATOM     18  O   UNL     1       8.917  10.507  20.711  0.00  0.00    +0.000 OA
BRANCH  17  19
ATOM     19  C   UNL     1       9.796  11.474  18.713  0.00  0.00    +0.000 A 
ATOM     20  C   UNL     1       8.976  12.533  18.324  0.00  0.00    +0.000 A 
ATOM     21  C   UNL     1       9.525  13.507  17.508  0.00  0.00    +0.000 A 
ATOM     22  N   UNL     1      10.806  13.490  17.078  0.00  0.00    +0.000 NA
ATOM     23  C   UNL     1      11.575  12.453  17.468  0.00  0.00    +0.000 A 
ATOM     24  C   UNL     1      11.122  11.427  18.276  0.00  0.00    +0.000 A 
ENDBRANCH  17  19
ENDBRANCH  16  17
ENDBRANCH  15  16
ENDBRANCH   2  15
TORSDOF 7
ENDMDL
MODEL 3
REMARK VINA RESULT:      -6.6      4.619      7.560
REMARK  Name = 
REMARK  9 active torsions:
REMARK  status: ('A' for Active; 'I' for Inactive)
REMARK    1  A    between atoms: C_1  and  O_2
REMARK    2  A    between atoms: O_2  and  C_3
REMARK    3  A    between atoms: C_6  and  N_7
REMARK    4  A    between atoms: C_8  and  C_10
REMARK    5  A    between atoms: C_10  and  O_11
REMARK    6  A    between atoms: O_11  and  C_12
REMARK    7  A    between atoms: C_12  and  C_14
REMARK    8  A    between atoms: C_20  and  O_21
REMARK    9  A    between atoms: O_21  and  C_22
REMARK                            x       y       z     vdW  Elec       q    Type
REMARK                         _______ _______ _______ _____ _____    ______ ____
ROOT
ATOM      1  N   UNL     1       4.896   3.689  19.300  0.00  0.00    +0.000 N 
ATOM      2  C   UNL     1       3.975   2.644  19.319  0.00  0.00    +0.000 C 
ATOM      3  O   UNL     1       3.672   1.945  18.354  0.00  0.00    +0.000 OA
ATOM      4  H   UNL     1       4.569   4.477  19.851  0.00  0.00    +0.000 HD
ENDROOT
BRANCH   1   8
ATOM      5  C   UNL     1       6.573   4.749  15.577  0.00  0.00    +0.000 A 
ATOM      6  C   UNL     1       5.356   4.067  15.652  0.00  0.00    +0.000 A 
ATOM      7  C   UNL     1       4.804   3.726  16.886  0.00  0.00    +0.000 A 
ATOM      8  C   UNL     1       5.483   4.048  18.062  0.00  0.00    +0.000 A 
ATOM      9  C   UNL     1       6.707   4.739  18.007  0.00  0.00    +0.000 A 
ATOM     10  C   UNL     1       7.245   5.087  16.757  0.00  0.00    +0.000 A 
BRANCH   5  12
ATOM     11  C   UNL     1       6.671   4.108  13.282  0.00  0.00    +0.000 C 
ATOM     12  O   UNL     1       6.979   5.047  14.304  0.00  0.00    +0.000 OA
ENDBRANCH   5  12
BRANCH   9  13
ATOM     13  O   UNL     1       7.251   5.109  19.213  0.00  0.00    +0.000 OA
ATOM     14  C   UNL     1       8.123   6.232  19.204  0.00  0.00    +0.000 C 
ENDBRANCH   9  13
ENDBRANCH   1   8
BRANCH   2  15
ATOM     15  C   UNL     1       3.292   2.463  20.679  0.00  0.00    +0.000 C 
BRANCH  15  16
ATOM     16  O   UNL     1       2.631   3.655  21.113  0.00  0.00    +0.000 OA
BRANCH  16  17
ATOM     17  C   UNL     1       1.594   4.033  20.326  0.00  0.00    +0.000 C 
ATOM     18  O   UNL     1       0.633   3.339  20.039  0.00  0.00    +0.000 OA
BRANCH  17  19
ATOM     19  C   UNL     1       1.806   5.406  19.811  0.00  0.00    +0.000 A 
ATOM     20  C   UNL     1       2.158   5.639  18.481  0.00  0.00    +0.000 A 
ATOM     21  C   UNL     1       2.371   6.949  18.090  0.00  0.00    +0.000 A 
ATOM     22  N   UNL     1       2.247   8.008  18.920  0.00  0.00    +0.000 NA
ATOM     23  C   UNL     1       1.907   7.754  20.201  0.00  0.00    +0.000 A 
ATOM     24  C   UNL     1       1.680   6.481  20.692  0.00  0.00    +0.000 A 
ENDBRANCH  17  19
ENDBRANCH  16  17
ENDBRANCH  15  16
ENDBRANCH   2  15
TORSDOF 7
ENDMDL
MODEL 4
REMARK VINA RESULT:      -6.6      1.435      1.797
REMARK  Name = 
REMARK  9 active torsions:
REMARK  status: ('A' for Active; 'I' for Inactive)
REMARK    1  A    between atoms: C_1  and  O_2
REMARK    2  A    between atoms: O_2  and  C_3
REMARK    3  A    between atoms: C_6  and  N_7
REMARK    4  A    between atoms: C_8  and  C_10
REMARK    5  A    between atoms: C_10  and  O_11
REMARK    6  A    between atoms: O_11  and  C_12
REMARK    7  A    between atoms: C_12  and  C_14
REMARK    8  A    between atoms: C_20  and  O_21
REMARK    9  A    between atoms: O_21  and  C_22
REMARK                            x       y       z     vdW  Elec       q    Type
REMARK                         _______ _______ _______ _____ _____    ______ ____
ROOT
ATOM      1  N   UNL     1       6.326   6.976  16.702  0.00  0.00    +0.000 N 
ATOM      2  C   UNL     1       7.334   7.201  17.637  0.00  0.00    +0.000 C 
ATOM      3  O   UNL     1       7.512   6.545  18.662  0.00  0.00    +0.000 OA
ATOM      4  H   UNL     1       5.932   7.852  16.371  0.00  0.00    +0.000 HD
ENDROOT
BRANCH   1   8
ATOM      5  C   UNL     1       3.415   4.036  17.520  0.00  0.00    +0.000 A 
ATOM      6  C   UNL     1       3.246   5.356  17.946  0.00  0.00    +0.000 A 
ATOM      7  C   UNL     1       4.209   6.325  17.665  0.00  0.00    +0.000 A 
ATOM      8  C   UNL     1       5.367   5.970  16.972  0.00  0.00    +0.000 A 
ATOM      9  C   UNL     1       5.553   4.648  16.531  0.00  0.00    +0.000 A 
ATOM     10  C   UNL     1       4.568   3.685  16.810  0.00  0.00    +0.000 A 
BRANCH   5  12
ATOM     11  C   UNL     1       2.525   2.382  18.990  0.00  0.00    +0.000 C 
ATOM     12  O   UNL     1       2.378   3.201  17.837  0.00  0.00    +0.000 OA
ENDBRANCH   5  12
BRANCH   9  13
ATOM     13  O   UNL     1       6.668   4.413  15.764  0.00  0.00    +0.000 OA
ATOM     14  C   UNL     1       6.449   4.107  14.393  0.00  0.00    +0.000 C 
ENDBRANCH   9  13
ENDBRANCH   1   8
BRANCH   2  15
ATOM     15  C   UNL     1       8.205   8.418  17.310  0.00  0.00    +0.000 C 
BRANCH  15  16
ATOM     16  O   UNL     1       8.454   9.228  18.463  0.00  0.00    +0.000 OA
BRANCH  16  17
ATOM     17  C   UNL     1       8.586  10.551  18.194  0.00  0.00    +0.000 C 
ATOM     18  O   UNL     1       7.854  11.202  17.469  0.00  0.00    +0.000 OA
BRANCH  17  19
ATOM     19  C   UNL     1       9.784  11.101  18.870  0.00  0.00    +0.000 A 
ATOM     20  C   UNL     1       9.761  11.459  20.218  0.00  0.00    +0.000 A 
ATOM     21  C   UNL     1      10.913  11.998  20.763  0.00  0.00    +0.000 A 
ATOM     22  N   UNL     1      12.054  12.186  20.065  0.00  0.00    +0.000 NA
ATOM     23  C   UNL     1      12.048  11.834  18.762  0.00  0.00    +0.000 A 
ATOM     24  C   UNL     1      10.948  11.294  18.122  0.00  0.00    +0.000 A 
ENDBRANCH  17  19
ENDBRANCH  16  17
ENDBRANCH  15  16
ENDBRANCH   2  15
TORSDOF 7
ENDMDL
MODEL 5
REMARK VINA RESULT:      -6.5      1.657      2.179
REMARK  Name = 
REMARK  9 active torsions:
REMARK  status: ('A' for Active; 'I' for Inactive)
REMARK    1  A    between atoms: C_1  and  O_2
REMARK    2  A    between atoms: O_2  and  C_3
REMARK    3  A    between atoms: C_6  and  N_7
REMARK    4  A    between atoms: C_8  and  C_10
REMARK    5  A    between atoms: C_10  and  O_11
REMARK    6  A    between atoms: O_11  and  C_12
REMARK    7  A    between atoms: C_12  and  C_14
REMARK    8  A    between atoms: C_20  and  O_21
REMARK    9  A    between atoms: O_21  and  C_22
REMARK                            x       y       z     vdW  Elec       q    Type
REMARK                         _______ _______ _______ _____ _____    ______ ____
ROOT
ATOM      1  N   UNL     1       6.525   7.548  16.936  0.00  0.00    +0.000 N 
ATOM      2  C   UNL     1       7.620   7.823  17.752  0.00  0.00    +0.000 C 
ATOM      3  O   UNL     1       8.146   7.029  18.530  0.00  0.00    +0.000 OA
ATOM      4  H   UNL     1       5.882   8.333  16.909  0.00  0.00    +0.000 HD
ENDROOT
BRANCH   1   8
ATOM      5  C   UNL     1       4.601   3.816  17.332  0.00  0.00    +0.000 A 
ATOM      6  C   UNL     1       4.355   4.853  18.235  0.00  0.00    +0.000 A 
ATOM      7  C   UNL     1       4.989   6.087  18.093  0.00  0.00    +0.000 A 
ATOM      8  C   UNL     1       5.897   6.284  17.053  0.00  0.00    +0.000 A 
ATOM      9  C   UNL     1       6.154   5.253  16.131  0.00  0.00    +0.000 A 
ATOM     10  C   UNL     1       5.498   4.020  16.279  0.00  0.00    +0.000 A 
BRANCH   5  12
ATOM     11  C   UNL     1       3.749   2.258  18.926  0.00  0.00    +0.000 C 
ATOM     12  O   UNL     1       3.886   2.673  17.572  0.00  0.00    +0.000 OA
ENDBRANCH   5  12
BRANCH   9  13
ATOM     13  O   UNL     1       6.978   5.570  15.079  0.00  0.00    +0.000 OA
ATOM     14  C   UNL     1       6.983   4.672  13.977  0.00  0.00    +0.000 C 
ENDBRANCH   9  13
ENDBRANCH   1   8
BRANCH   2  15
ATOM     15  C   UNL     1       8.104   9.274  17.649  0.00  0.00    +0.000 C 
BRANCH  15  16
ATOM     16  O   UNL     1       8.885   9.663  18.783  0.00  0.00    +0.000 OA
BRANCH  16  17
ATOM     17  C   UNL     1       9.566  10.823  18.616  0.00  0.00    +0.000 C 
ATOM     18  O   UNL     1      10.330  11.069  17.698  0.00  0.00    +0.000 OA
BRANCH  17  19
ATOM     19  C   UNL     1       9.296  11.751  19.739  0.00  0.00    +0.000 A 
ATOM     20  C   UNL     1       9.102  13.116  19.525  0.00  0.00    +0.000 A 
ATOM     21  C   UNL     1       8.889  13.919  20.632  0.00  0.00    +0.000 A 
ATOM     22  N   UNL     1       8.850  13.452  21.899  0.00  0.00    +0.000 NA
ATOM     23  C   UNL     1       9.043  12.129  22.077  0.00  0.00    +0.000 A 
ATOM     24  C   UNL     1       9.270  11.244  21.039  0.00  0.00    +0.000 A 
ENDBRANCH  17  19
ENDBRANCH  16  17
ENDBRANCH  15  16
ENDBRANCH   2  15
TORSDOF 7
ENDMDL
MODEL 6
REMARK VINA RESULT:      -6.5      5.668      8.252
REMARK  Name = 
REMARK  9 active torsions:
REMARK  status: ('A' for Active; 'I' for Inactive)
REMARK    1  A    between atoms: C_1  and  O_2
REMARK    2  A    between atoms: O_2  and  C_3
REMARK    3  A    between atoms: C_6  and  N_7
REMARK    4  A    between atoms: C_8  and  C_10
REMARK    5  A    between atoms: C_10  and  O_11
REMARK    6  A    between atoms: O_11  and  C_12
REMARK    7  A    between atoms: C_12  and  C_14
REMARK    8  A    between atoms: C_20  and  O_21
REMARK    9  A    between atoms: O_21  and  C_22
REMARK                            x       y       z     vdW  Elec       q    Type
REMARK                         _______ _______ _______ _____ _____    ______ ____
ROOT
ATOM      1  N   UNL     1       2.608   5.871  20.510  0.00  0.00    +0.000 N 
ATOM      2  C   UNL     1       1.761   4.770  20.617  0.00  0.00    +0.000 C 
ATOM      3  O   UNL     1       0.561   4.768  20.349  0.00  0.00    +0.000 OA
ATOM      4  H   UNL     1       3.252   5.916  21.294  0.00  0.00    +0.000 HD
ENDROOT
BRANCH   1   8
ATOM      5  C   UNL     1       0.937   9.608  19.493  0.00  0.00    +0.000 A 
ATOM      6  C   UNL     1       0.796   9.081  20.780  0.00  0.00    +0.000 A 
ATOM      7  C   UNL     1       1.358   7.848  21.111  0.00  0.00    +0.000 A 
ATOM      8  C   UNL     1       2.049   7.120  20.143  0.00  0.00    +0.000 A 
ATOM      9  C   UNL     1       2.206   7.636  18.844  0.00  0.00    +0.000 A 
ATOM     10  C   UNL     1       1.645   8.885  18.528  0.00  0.00    +0.000 A 
BRANCH   5  12
ATOM     11  C   UNL     1      -1.011  10.975  19.656  0.00  0.00    +0.000 C 
ATOM     12  O   UNL     1       0.364  10.839  19.319  0.00  0.00    +0.000 OA
ENDBRANCH   5  12
BRANCH   9  13
ATOM     13  O   UNL     1       2.991   6.903  17.988  0.00  0.00    +0.000 OA
ATOM     14  C   UNL     1       3.956   7.621  17.231  0.00  0.00    +0.000 C 
ENDBRANCH   9  13
ENDBRANCH   1   8
BRANCH   2  15
ATOM     15  C   UNL     1       2.453   3.524  21.179  0.00  0.00    +0.000 C 
BRANCH  15  16
ATOM     16  O   UNL     1       2.853   2.618  20.146  0.00  0.00    +0.000 OA
BRANCH  16  17
ATOM     17  C   UNL     1       4.196   2.516  19.987  0.00  0.00    +0.000 C 
ATOM     18  O   UNL     1       4.950   1.899  20.720  0.00  0.00    +0.000 OA
BRANCH  17  19
ATOM     19  C   UNL     1       4.643   3.304  18.815  0.00  0.00    +0.000 A 
ATOM     20  C   UNL     1       4.017   3.182  17.574  0.00  0.00    +0.000 A 
ATOM     21  C   UNL     1       4.518   3.929  16.523  0.00  0.00    +0.000 A 
ATOM     22  N   UNL     1       5.569   4.770  16.636  0.00  0.00    +0.000 NA
ATOM     23  C   UNL     1       6.157   4.867  17.846  0.00  0.00    +0.000 A 
ATOM     24  C   UNL     1       5.737   4.159  18.958  0.00  0.00    +0.000 A 
ENDBRANCH  17  19
ENDBRANCH  16  17
ENDBRANCH  15  16
ENDBRANCH   2  15
TORSDOF 7
ENDMDL
MODEL 7
REMARK VINA RESULT:      -6.5      5.611      8.162
REMARK  Name = 
REMARK  9 active torsions:
REMARK  status: ('A' for Active; 'I' for Inactive)
REMARK    1  A    between atoms: C_1  and  O_2
REMARK    2  A    between atoms: O_2  and  C_3
REMARK    3  A    between atoms: C_6  and  N_7
REMARK    4  A    between atoms: C_8  and  C_10
REMARK    5  A    between atoms: C_10  and  O_11
REMARK    6  A    between atoms: O_11  and  C_12
REMARK    7  A    between atoms: C_12  and  C_14
REMARK    8  A    between atoms: C_20  and  O_21
REMARK    9  A    between atoms: O_21  and  C_22
REMARK                            x       y       z     vdW  Elec       q    Type
REMARK                         _______ _______ _______ _____ _____    ______ ____
ROOT
ATOM      1  N   UNL     1       2.653   5.633  20.490  0.00  0.00    +0.000 N 
ATOM      2  C   UNL     1       1.810   4.523  20.466  0.00  0.00    +0.000 C 
ATOM      3  O   UNL     1       0.647   4.521  20.067  0.00  0.00    +0.000 OA
ATOM      4  H   UNL     1       3.205   5.656  21.342  0.00  0.00    +0.000 HD
ENDROOT
BRANCH   1   8
ATOM      5  C   UNL     1       1.075   9.395  19.416  0.00  0.00    +0.000 A 
ATOM      6  C   UNL     1       0.934   8.897  20.715  0.00  0.00    +0.000 A 
ATOM      7  C   UNL     1       1.465   7.656  21.064  0.00  0.00    +0.000 A 
ATOM      8  C   UNL     1       2.124   6.889  20.104  0.00  0.00    +0.000 A 
ATOM      9  C   UNL     1       2.281   7.375  18.793  0.00  0.00    +0.000 A 
ATOM     10  C   UNL     1       1.752   8.633  18.459  0.00  0.00    +0.000 A 
BRANCH   5  12
ATOM     11  C   UNL     1      -0.210  11.202  20.296  0.00  0.00    +0.000 C 
ATOM     12  O   UNL     1       0.534  10.637  19.223  0.00  0.00    +0.000 OA
ENDBRANCH   5  12
BRANCH   9  13
ATOM     13  O   UNL     1       3.036   6.603  17.944  0.00  0.00    +0.000 OA
ATOM     14  C   UNL     1       4.108   7.251  17.273  0.00  0.00    +0.000 C 
ENDBRANCH   9  13
ENDBRANCH   1   8
BRANCH   2  15
ATOM     15  C   UNL     1       2.449   3.264  21.060  0.00  0.00    +0.000 C 
BRANCH  15  16
ATOM     16  O   UNL     1       3.622   2.865  20.344  0.00  0.00    +0.000 OA
BRANCH  16  17
ATOM     17  C   UNL     1       3.430   2.704  19.011  0.00  0.00    +0.000 C 
ATOM     18  O   UNL     1       2.533   2.057  18.498  0.00  0.00    +0.000 OA
BRANCH  17  19
ATOM     19  C   UNL     1       4.497   3.390  18.246  0.00  0.00    +0.000 A 
ATOM     20  C   UNL     1       5.533   4.069  18.888  0.00  0.00    +0.000 A 
ATOM     21  C   UNL     1       6.470   4.712  18.099  0.00  0.00    +0.000 A 
ATOM     22  N   UNL     1       6.441   4.708  16.748  0.00  0.00    +0.000 NA
ATOM     23  C   UNL     1       5.428   4.046  16.153  0.00  0.00    +0.000 A 
ATOM     24  C   UNL     1       4.437   3.378  16.851  0.00  0.00    +0.000 A 
ENDBRANCH  17  19
ENDBRANCH  16  17
ENDBRANCH  15  16
ENDBRANCH   2  15
TORSDOF 7
ENDMDL
MODEL 8
REMARK VINA RESULT:      -6.5      6.030      8.624
REMARK  Name = 
REMARK  9 active torsions:
REMARK  status: ('A' for Active; 'I' for Inactive)
REMARK    1  A    between atoms: C_1  and  O_2
REMARK    2  A    between atoms: O_2  and  C_3
REMARK    3  A    between atoms: C_6  and  N_7
REMARK    4  A    between atoms: C_8  and  C_10
REMARK    5  A    between atoms: C_10  and  O_11
REMARK    6  A    between atoms: O_11  and  C_12
REMARK    7  A    between atoms: C_12  and  C_14
REMARK    8  A    between atoms: C_20  and  O_21
REMARK    9  A    between atoms: O_21  and  C_22
REMARK                            x       y       z     vdW  Elec       q    Type
REMARK                         _______ _______ _______ _____ _____    ______ ____
ROOT
ATOM      1  N   UNL     1       2.461   7.060  18.907  0.00  0.00    +0.000 N 
ATOM      2  C   UNL     1       2.042   8.258  18.331  0.00  0.00    +0.000 C 
ATOM      3  O   UNL     1       2.258   8.604  17.171  0.00  0.00    +0.000 OA
ATOM      4  H   UNL     1       2.787   7.205  19.857  0.00  0.00    +0.000 HD
ENDROOT
BRANCH   1   8
ATOM      5  C   UNL     1       4.939   4.514  16.634  0.00  0.00    +0.000 A 
ATOM      6  C   UNL     1       5.345   5.810  16.962  0.00  0.00    +0.000 A 
ATOM      7  C   UNL     1       4.523   6.644  17.720  0.00  0.00    +0.000 A 
ATOM      8  C   UNL     1       3.272   6.190  18.138  0.00  0.00    +0.000 A 
ATOM      9  C   UNL     1       2.848   4.887  17.821  0.00  0.00    +0.000 A 
ATOM     10  C   UNL     1       3.691   4.054  17.067  0.00  0.00    +0.000 A 
BRANCH   5  12
ATOM     11  C   UNL     1       6.410   4.414  14.759  0.00  0.00    +0.000 C 
ATOM     12  O   UNL     1       5.857   3.797  15.914  0.00  0.00    +0.000 OA
ENDBRANCH   5  12
BRANCH   9  13
ATOM     13  O   UNL     1       1.651   4.488  18.363  0.00  0.00    +0.000 OA
ATOM     14  C   UNL     1       1.411   3.088  18.426  0.00  0.00    +0.000 C 
ENDBRANCH   9  13
ENDBRANCH   1   8
BRANCH   2  15
ATOM     15  C   UNL     1       1.315   9.182  19.314  0.00  0.00    +0.000 C 
BRANCH  15  16
ATOM     16  O   UNL     1       0.557  10.193  18.644  0.00  0.00    +0.000 OA
BRANCH  16  17
ATOM     17  C   UNL     1      -0.582  10.551  19.286  0.00  0.00    +0.000 C 
ATOM     18  O   UNL     1      -0.692  10.727  20.488  0.00  0.00    +0.000 OA
BRANCH  17  19
ATOM     19  C   UNL     1      -1.709  10.654  18.329  0.00  0.00    +0.000 A 
ATOM     20  C   UNL     1      -2.808  11.474  18.583  0.00  0.00    +0.000 A 
ATOM     21  C   UNL     1      -3.832  11.487  17.653  0.00  0.00    +0.000 A 
ATOM     22  N   UNL     1      -3.820  10.758  16.516  0.00  0.00    +0.000 NA
ATOM     23  C   UNL     1      -2.747   9.972  16.296  0.00  0.00    +0.000 A 
ATOM     24  C   UNL     1      -1.675   9.883  17.165  0.00  0.00    +0.000 A 
ENDBRANCH  17  19
ENDBRANCH  16  17
ENDBRANCH  15  16
ENDBRANCH   2  15
TORSDOF 7
ENDMDL
MODEL 9
REMARK VINA RESULT:      -6.4      4.645      7.295
REMARK  Name = 
REMARK  9 active torsions:
REMARK  status: ('A' for Active; 'I' for Inactive)
REMARK    1  A    between atoms: C_1  and  O_2
REMARK    2  A    between atoms: O_2  and  C_3
REMARK    3  A    between atoms: C_6  and  N_7
REMARK    4  A    between atoms: C_8  and  C_10
REMARK    5  A    between atoms: C_10  and  O_11
REMARK    6  A    between atoms: O_11  and  C_12
REMARK    7  A    between atoms: C_12  and  C_14
REMARK    8  A    between atoms: C_20  and  O_21
REMARK    9  A    between atoms: O_21  and  C_22
REMARK                            x       y       z     vdW  Elec       q    Type
REMARK                         _______ _______ _______ _____ _____    ______ ____
ROOT
ATOM      1  N   UNL     1       6.453   5.702  15.703  0.00  0.00    +0.000 N 
ATOM      2  C   UNL     1       7.201   5.204  16.768  0.00  0.00    +0.000 C 
ATOM      3  O   UNL     1       7.826   4.145  16.764  0.00  0.00    +0.000 OA
ATOM      4  H   UNL     1       5.584   6.116  16.028  0.00  0.00    +0.000 HD
ENDROOT
BRANCH   1   8
ATOM      5  C   UNL     1       5.982   3.324  12.252  0.00  0.00    +0.000 A 
ATOM      6  C   UNL     1       4.999   3.358  13.244  0.00  0.00    +0.000 A 
ATOM      7  C   UNL     1       5.158   4.153  14.379  0.00  0.00    +0.000 A 
ATOM      8  C   UNL     1       6.321   4.905  14.540  0.00  0.00    +0.000 A 
ATOM      9  C   UNL     1       7.320   4.888  13.550  0.00  0.00    +0.000 A 
ATOM     10  C   UNL     1       7.140   4.092  12.406  0.00  0.00    +0.000 A 
BRANCH   5  12
ATOM     11  C   UNL     1       6.094   1.168  11.237  0.00  0.00    +0.000 C 
ATOM     12  O   UNL     1       5.679   2.528  11.180  0.00  0.00    +0.000 OA
ENDBRANCH   5  12
BRANCH   9  13
ATOM     13  O   UNL     1       8.380   5.740  13.740  0.00  0.00    +0.000 OA
ATOM     14  C   UNL     1       9.046   6.204  12.573  0.00  0.00    +0.000 C 
ENDBRANCH   9  13
ENDBRANCH   1   8
BRANCH   2  15
ATOM     15  C   UNL     1       7.131   6.081  18.022  0.00  0.00    +0.000 C 
BRANCH  15  16
ATOM     16  O   UNL     1       6.089   5.668  18.912  0.00  0.00    +0.000 OA
BRANCH  16  17
ATOM     17  C   UNL     1       4.849   5.693  18.364  0.00  0.00    +0.000 C 
ATOM     18  O   UNL     1       4.298   6.679  17.904  0.00  0.00    +0.000 OA
BRANCH  17  19
ATOM     19  C   UNL     1       4.220   4.354  18.441  0.00  0.00    +0.000 A 
ATOM     20  C   UNL     1       4.617   3.416  19.395  0.00  0.00    +0.000 A 
ATOM     21  C   UNL     1       4.001   2.177  19.376  0.00  0.00    +0.000 A 
ATOM     22  N   UNL     1       3.037   1.833  18.494  0.00  0.00    +0.000 NA
ATOM     23  C   UNL     1       2.674   2.757  17.581  0.00  0.00    +0.000 A 
ATOM     24  C   UNL     1       3.232   4.021  17.512  0.00  0.00    +0.000 A 
ENDBRANCH  17  19
ENDBRANCH  16  17
ENDBRANCH  15  16
ENDBRANCH   2  15
TORSDOF 7
ENDMDL
