MODEL 1
REMARK VINA RESULT:      -7.8      0.000      0.000
REMARK  Name = 
REMARK  5 active torsions:
REMARK  status: ('A' for Active; 'I' for Inactive)
REMARK    1  A    between atoms: C_4  and  C_5
REMARK    2  A    between atoms: C_5  and  S_6
REMARK    3  A    between atoms: S_6  and  C_7
REMARK    4  A    between atoms: C_10  and  C_11
REMARK    5  A    between atoms: N_16  and  C_17
REMARK                            x       y       z     vdW  Elec       q    Type
REMARK                         _______ _______ _______ _____ _____    ______ ____
ROOT
ATOM      1  C   UNL     1       4.146   5.603  17.320  0.00  0.00    +0.000 A 
ATOM      2  N   UNL     1       4.456   6.776  16.816  0.00  0.00    +0.000 NA
ATOM      3  N   UNL     1       3.712   7.728  17.466  0.00  0.00    +0.000 NA
ATOM      4  C   UNL     1       2.972   7.129  18.381  0.00  0.00    +0.000 A 
ATOM      5  N   UNL     1       3.188   5.747  18.321  0.00  0.00    +0.000 N 
ENDROOT
BRANCH   5   6
ATOM      6  C   UNL     1       2.588   4.750  19.151  0.00  0.00    +0.000 A 
ATOM      7  C   UNL     1       1.387   4.132  18.770  0.00  0.00    +0.000 A 
ATOM      8  C   UNL     1       0.674   3.342  19.672  0.00  0.00    +0.000 A 
ATOM      9  C   UNL     1       1.200   3.085  20.935  0.00  0.00    +0.000 A 
ATOM     10  C   UNL     1       2.436   3.619  21.288  0.00  0.00    +0.000 A 
ATOM     11  C   UNL     1       3.124   4.461  20.413  0.00  0.00    +0.000 A 
ENDBRANCH   5   6
BRANCH   4  12
ATOM     12  C   UNL     1       2.127   7.834  19.318  0.00  0.00    +0.000 A 
ATOM     13  C   UNL     1       1.792   7.471  20.615  0.00  0.00    +0.000 A 
ATOM     14  C   UNL     1       0.691   8.220  21.127  0.00  0.00    +0.000 A 
ATOM     15  C   UNL     1       0.351   9.258  20.289  0.00  0.00    +0.000 A 
ATOM     16  S   UNL     1       1.323   9.288  18.879  0.00  0.00    +0.000 S 
ENDBRANCH   4  12
BRANCH   1  17
ATOM     17  S   UNL     1       4.678   4.079  16.667  0.00  0.00    +0.000 S 
BRANCH  17  18
ATOM     18  C   UNL     1       6.411   4.409  16.214  0.00  0.00    +0.000 C 
BRANCH  18  22
ATOM     19  C   UNL     1       6.983   4.259  11.913  0.00  0.00    +0.000 A 
ATOM     20  C   UNL     1       6.028   3.449  12.521  0.00  0.00    +0.000 A 
ATOM     21  C   UNL     1       5.842   3.504  13.911  0.00  0.00    +0.000 A 
ATOM     22  C   UNL     1       6.620   4.358  14.710  0.00  0.00    +0.000 A 
ATOM     23  C   UNL     1       7.576   5.172  14.077  0.00  0.00    +0.000 A 
ATOM     24  C   UNL     1       7.752   5.119  12.687  0.00  0.00    +0.000 A 
ENDBRANCH  18  22
ENDBRANCH  17  18
ENDBRANCH   1  17
TORSDOF 5
ENDMDL
MODEL 2
REMARK VINA RESULT:      -7.8      0.225      1.004
REMARK  Name = 
REMARK  5 active torsions:
REMARK  status: ('A' for Active; 'I' for Inactive)
REMARK    1  A    between atoms: C_4  and  C_5
REMARK    2  A    between atoms: C_5  and  S_6
REMARK    3  A    between atoms: S_6  and  C_7
REMARK    4  A    between atoms: C_10  and  C_11
REMARK    5  A    between atoms: N_16  and  C_17
REMARK                            x       y       z     vdW  Elec       q    Type
REMARK                         _______ _______ _______ _____ _____    ______ ____
ROOT
ATOM      1  C   UNL     1       4.098   5.624  17.323  0.00  0.00    +0.000 A 
ATOM      2  N   UNL     1       4.487   6.770  16.813  0.00  0.00    +0.000 NA
ATOM      3  N   UNL     1       3.764   7.770  17.414  0.00  0.00    +0.000 NA
ATOM      4  C   UNL     1       2.957   7.226  18.306  0.00  0.00    +0.000 A 
ATOM      5  N   UNL     1       3.107   5.834  18.279  0.00  0.00    +0.000 N 
ENDROOT
BRANCH   5   6
ATOM      6  C   UNL     1       2.423   4.884  19.099  0.00  0.00    +0.000 A 
ATOM      7  C   UNL     1       2.862   4.622  20.407  0.00  0.00    +0.000 A 
ATOM      8  C   UNL     1       2.357   3.538  21.125  0.00  0.00    +0.000 A 
ATOM      9  C   UNL     1       1.340   2.759  20.581  0.00  0.00    +0.000 A 
ATOM     10  C   UNL     1       0.834   3.068  19.321  0.00  0.00    +0.000 A 
ATOM     11  C   UNL     1       1.378   4.113  18.572  0.00  0.00    +0.000 A 
ENDBRANCH   5   6
BRANCH   4  12
ATOM     12  C   UNL     1       2.109   7.988  19.193  0.00  0.00    +0.000 A 
ATOM     13  C   UNL     1       1.790   7.723  20.517  0.00  0.00    +0.000 A 
ATOM     14  C   UNL     1       0.682   8.493  20.979  0.00  0.00    +0.000 A 
ATOM     15  C   UNL     1       0.319   9.457  20.066  0.00  0.00    +0.000 A 
ATOM     16  S   UNL     1       1.280   9.392  18.650  0.00  0.00    +0.000 S 
ENDBRANCH   4  12
BRANCH   1  17
ATOM     17  S   UNL     1       4.581   4.063  16.720  0.00  0.00    +0.000 S 
BRANCH  17  18
ATOM     18  C   UNL     1       6.336   4.311  16.301  0.00  0.00    +0.000 C 
BRANCH  18  22
ATOM     19  C   UNL     1       6.960   4.293  12.005  0.00  0.00    +0.000 A 
ATOM     20  C   UNL     1       5.984   3.481  12.574  0.00  0.00    +0.000 A 
ATOM     21  C   UNL     1       5.781   3.493  13.963  0.00  0.00    +0.000 A 
ATOM     22  C   UNL     1       6.563   4.306  14.799  0.00  0.00    +0.000 A 
ATOM     23  C   UNL     1       7.541   5.124  14.205  0.00  0.00    +0.000 A 
ATOM     24  C   UNL     1       7.734   5.114  12.816  0.00  0.00    +0.000 A 
ENDBRANCH  18  22
ENDBRANCH  17  18
ENDBRANCH   1  17
TORSDOF 5
ENDMDL
MODEL 3
REMARK VINA RESULT:      -7.8      2.788      6.181
REMARK  Name = 
REMARK  5 active torsions:
REMARK  status: ('A' for Active; 'I' for Inactive)
REMARK    1  A    between atoms: C_4  and  C_5
REMARK    2  A    between atoms: C_5  and  S_6
REMARK    3  A    between atoms: S_6  and  C_7
REMARK    4  A    between atoms: C_10  and  C_11
REMARK    5  A    between atoms: N_16  and  C_17
REMARK                            x       y       z     vdW  Elec       q    Type
REMARK                         _______ _______ _______ _____ _____    ______ ____
ROOT
ATOM      1  C   UNL     1       4.637   4.118  16.775  0.00  0.00    +0.000 A 
ATOM      2  N   UNL     1       5.737   3.726  16.173  0.00  0.00    +0.000 NA
ATOM      3  N   UNL     1       6.700   4.681  16.382  0.00  0.00    +0.000 NA
ATOM      4  C   UNL     1       6.185   5.637  17.134  0.00  0.00    +0.000 A 
ATOM      5  N   UNL     1       4.842   5.344  17.402  0.00  0.00    +0.000 N 
ENDROOT
BRANCH   5   6
ATOM      6  C   UNL     1       3.938   6.122  18.191  0.00  0.00    +0.000 A 
ATOM      7  C   UNL     1       3.603   5.722  19.494  0.00  0.00    +0.000 A 
ATOM      8  C   UNL     1       2.552   6.333  20.179  0.00  0.00    +0.000 A 
ATOM      9  C   UNL     1       1.885   7.412  19.606  0.00  0.00    +0.000 A 
ATOM     10  C   UNL     1       2.272   7.873  18.351  0.00  0.00    +0.000 A 
ATOM     11  C   UNL     1       3.282   7.228  17.635  0.00  0.00    +0.000 A 
ENDBRANCH   5   6
BRANCH   4  12
ATOM     12  C   UNL     1       6.942   6.764  17.630  0.00  0.00    +0.000 A 
ATOM     13  C   UNL     1       6.970   8.062  17.142  0.00  0.00    +0.000 A 
ATOM     14  C   UNL     1       8.060   8.820  17.662  0.00  0.00    +0.000 A 
ATOM     15  C   UNL     1       8.708   8.147  18.674  0.00  0.00    +0.000 A 
ATOM     16  S   UNL     1       8.030   6.599  18.949  0.00  0.00    +0.000 S 
ENDBRANCH   4  12
BRANCH   1  17
ATOM     17  S   UNL     1       3.090   3.335  16.608  0.00  0.00    +0.000 S 
BRANCH  17  18
ATOM     18  C   UNL     1       3.189   1.971  17.811  0.00  0.00    +0.000 C 
BRANCH  18  22
ATOM     19  C   UNL     1       1.412   3.053  21.621  0.00  0.00    +0.000 A 
ATOM     20  C   UNL     1       2.729   2.605  21.564  0.00  0.00    +0.000 A 
ATOM     21  C   UNL     1       3.302   2.262  20.330  0.00  0.00    +0.000 A 
ATOM     22  C   UNL     1       2.559   2.346  19.142  0.00  0.00    +0.000 A 
ATOM     23  C   UNL     1       1.232   2.806  19.218  0.00  0.00    +0.000 A 
ATOM     24  C   UNL     1       0.667   3.156  20.453  0.00  0.00    +0.000 A 
ENDBRANCH  18  22
ENDBRANCH  17  18
ENDBRANCH   1  17
TORSDOF 5
ENDMDL
MODEL 4
REMARK VINA RESULT:      -7.7      0.827      1.739
REMARK  Name = 
REMARK  5 active torsions:
REMARK  status: ('A' for Active; 'I' for Inactive)
REMARK    1  A    between atoms: C_4  and  C_5
REMARK    2  A    between atoms: C_5  and  S_6
REMARK    3  A    between atoms: S_6  and  C_7
REMARK    4  A    between atoms: C_10  and  C_11
REMARK    5  A    between atoms: N_16  and  C_17
REMARK                            x       y       z     vdW  Elec       q    Type
REMARK                         _______ _______ _______ _____ _____    ______ ____
ROOT
ATOM      1  C   UNL     1       4.449   5.718  17.311  0.00  0.00    +0.000 A 
ATOM      2  N   UNL     1       4.935   6.851  16.858  0.00  0.00    +0.000 NA
ATOM      3  N   UNL     1       4.081   7.858  17.229  0.00  0.00    +0.000 NA
ATOM      4  C   UNL     1       3.092   7.333  17.928  0.00  0.00    +0.000 A 
ATOM      5  N   UNL     1       3.259   5.944  17.997  0.00  0.00    +0.000 N 
ENDROOT
BRANCH   5   6
ATOM      6  C   UNL     1       2.411   5.013  18.674  0.00  0.00    +0.000 A 
ATOM      7  C   UNL     1       2.555   4.788  20.052  0.00  0.00    +0.000 A 
ATOM      8  C   UNL     1       1.904   3.721  20.672  0.00  0.00    +0.000 A 
ATOM      9  C   UNL     1       1.029   2.924  19.940  0.00  0.00    +0.000 A 
ATOM     10  C   UNL     1       0.810   3.197  18.593  0.00  0.00    +0.000 A 
ATOM     11  C   UNL     1       1.505   4.224  17.953  0.00  0.00    +0.000 A 
ENDBRANCH   5   6
BRANCH   4  12
ATOM     12  C   UNL     1       2.051   8.112  18.559  0.00  0.00    +0.000 A 
ATOM     13  C   UNL     1       1.180   9.018  17.972  0.00  0.00    +0.000 A 
ATOM     14  C   UNL     1       0.512   9.837  18.930  0.00  0.00    +0.000 A 
ATOM     15  C   UNL     1       0.740   9.400  20.216  0.00  0.00    +0.000 A 
ATOM     16  S   UNL     1       1.791   8.048  20.256  0.00  0.00    +0.000 S 
ENDBRANCH   4  12
BRANCH   1  17
ATOM     17  S   UNL     1       5.078   4.145  16.906  0.00  0.00    +0.000 S 
BRANCH  17  18
ATOM     18  C   UNL     1       6.739   4.520  16.261  0.00  0.00    +0.000 C 
BRANCH  18  22
ATOM     19  C   UNL     1       6.907   4.272  11.931  0.00  0.00    +0.000 A 
ATOM     20  C   UNL     1       7.754   5.138  12.616  0.00  0.00    +0.000 A 
ATOM     21  C   UNL     1       7.701   5.211  14.016  0.00  0.00    +0.000 A 
ATOM     22  C   UNL     1       6.789   4.432  14.745  0.00  0.00    +0.000 A 
ATOM     23  C   UNL     1       5.945   3.559  14.036  0.00  0.00    +0.000 A 
ATOM     24  C   UNL     1       6.008   3.483  12.638  0.00  0.00    +0.000 A 
ENDBRANCH  18  22
ENDBRANCH  17  18
ENDBRANCH   1  17
TORSDOF 5
ENDMDL
MODEL 5
REMARK VINA RESULT:      -7.6      2.826      6.119
REMARK  Name = 
REMARK  5 active torsions:
REMARK  status: ('A' for Active; 'I' for Inactive)
REMARK    1  A    between atoms: C_4  and  C_5
REMARK    2  A    between atoms: C_5  and  S_6
REMARK    3  A    between atoms: S_6  and  C_7
REMARK    4  A    between atoms: C_10  and  C_11
REMARK    5  A    between atoms: N_16  and  C_17
REMARK                            x       y       z     vdW  Elec       q    Type
REMARK                         _______ _______ _______ _____ _____    ______ ____
ROOT
ATOM      1  C   UNL     1       4.419   3.926  16.750  0.00  0.00    +0.000 A 
ATOM      2  N   UNL     1       5.550   3.454  16.278  0.00  0.00    +0.000 NA
ATOM      3  N   UNL     1       6.532   4.381  16.519  0.00  0.00    +0.000 NA
ATOM      4  C   UNL     1       5.996   5.402  17.162  0.00  0.00    +0.000 A 
ATOM      5  N   UNL     1       4.622   5.180  17.321  0.00  0.00    +0.000 N 
ENDROOT
BRANCH   5   6
ATOM      6  C   UNL     1       3.687   6.041  17.974  0.00  0.00    +0.000 A 
ATOM      7  C   UNL     1       3.237   7.214  17.348  0.00  0.00    +0.000 A 
ATOM      8  C   UNL     1       2.519   8.174  18.062  0.00  0.00    +0.000 A 
ATOM      9  C   UNL     1       2.161   7.930  19.385  0.00  0.00    +0.000 A 
ATOM     10  C   UNL     1       2.524   6.729  19.986  0.00  0.00    +0.000 A 
ATOM     11  C   UNL     1       3.296   5.791  19.297  0.00  0.00    +0.000 A 
ENDBRANCH   5   6
BRANCH   4  12
ATOM     12  C   UNL     1       6.754   6.527  17.658  0.00  0.00    +0.000 A 
ATOM     13  C   UNL     1       6.764   7.832  17.188  0.00  0.00    +0.000 A 
ATOM     14  C   UNL     1       7.860   8.590  17.697  0.00  0.00    +0.000 A 
ATOM     15  C   UNL     1       8.532   7.907  18.686  0.00  0.00    +0.000 A 
ATOM     16  S   UNL     1       7.870   6.351  18.953  0.00  0.00    +0.000 S 
ENDBRANCH   4  12
BRANCH   1  17
ATOM     17  S   UNL     1       2.859   3.196  16.487  0.00  0.00    +0.000 S 
BRANCH  17  18
ATOM     18  C   UNL     1       2.825   1.849  17.712  0.00  0.00    +0.000 C 
BRANCH  18  22
ATOM     19  C   UNL     1       1.553   3.249  21.618  0.00  0.00    +0.000 A 
ATOM     20  C   UNL     1       0.693   3.339  20.528  0.00  0.00    +0.000 A 
ATOM     21  C   UNL     1       1.105   2.880  19.268  0.00  0.00    +0.000 A 
ATOM     22  C   UNL     1       2.388   2.341  19.081  0.00  0.00    +0.000 A 
ATOM     23  C   UNL     1       3.241   2.253  20.195  0.00  0.00    +0.000 A 
ATOM     24  C   UNL     1       2.821   2.705  21.454  0.00  0.00    +0.000 A 
ENDBRANCH  18  22
ENDBRANCH  17  18
ENDBRANCH   1  17
TORSDOF 5
ENDMDL
MODEL 6
REMARK VINA RESULT:      -7.5      1.759      2.932
REMARK  Name = 
REMARK  5 active torsions:
REMARK  status: ('A' for Active; 'I' for Inactive)
REMARK    1  A    between atoms: C_4  and  C_5
REMARK    2  A    between atoms: C_5  and  S_6
REMARK    3  A    between atoms: S_6  and  C_7
REMARK    4  A    between atoms: C_10  and  C_11
REMARK    5  A    between atoms: N_16  and  C_17
REMARK                            x       y       z     vdW  Elec       q    Type
REMARK                         _______ _______ _______ _____ _____    ______ ____
ROOT
ATOM      1  C   UNL     1       3.722   5.629  17.580  0.00  0.00    +0.000 A 
ATOM      2  N   UNL     1       4.043   6.768  17.008  0.00  0.00    +0.000 NA
ATOM      3  N   UNL     1       3.338   7.768  17.629  0.00  0.00    +0.000 NA
ATOM      4  C   UNL     1       2.612   7.233  18.593  0.00  0.00    +0.000 A 
ATOM      5  N   UNL     1       2.797   5.845  18.598  0.00  0.00    +0.000 N 
ENDROOT
BRANCH   5   6
ATOM      6  C   UNL     1       2.199   4.906  19.494  0.00  0.00    +0.000 A 
ATOM      7  C   UNL     1       2.719   4.719  20.784  0.00  0.00    +0.000 A 
ATOM      8  C   UNL     1       2.300   3.648  21.575  0.00  0.00    +0.000 A 
ATOM      9  C   UNL     1       1.288   2.807  21.121  0.00  0.00    +0.000 A 
ATOM     10  C   UNL     1       0.702   3.040  19.880  0.00  0.00    +0.000 A 
ATOM     11  C   UNL     1       1.160   4.072  19.059  0.00  0.00    +0.000 A 
ENDBRANCH   5   6
BRANCH   4  12
ATOM     12  C   UNL     1       1.810   8.003  19.516  0.00  0.00    +0.000 A 
ATOM     13  C   UNL     1       1.460   7.688  20.821  0.00  0.00    +0.000 A 
ATOM     14  C   UNL     1       0.402   8.507  21.318  0.00  0.00    +0.000 A 
ATOM     15  C   UNL     1       0.116   9.543  20.457  0.00  0.00    +0.000 A 
ATOM     16  S   UNL     1       1.084   9.488  19.046  0.00  0.00    +0.000 S 
ENDBRANCH   4  12
BRANCH   1  17
ATOM     17  S   UNL     1       4.203   4.062  16.991  0.00  0.00    +0.000 S 
BRANCH  17  18
ATOM     18  C   UNL     1       5.853   4.376  16.287  0.00  0.00    +0.000 C 
BRANCH  18  22
ATOM     19  C   UNL     1       8.209   7.014  18.803  0.00  0.00    +0.000 A 
ATOM     20  C   UNL     1       7.831   5.757  19.267  0.00  0.00    +0.000 A 
ATOM     21  C   UNL     1       7.074   4.905  18.448  0.00  0.00    +0.000 A 
ATOM     22  C   UNL     1       6.673   5.306  17.164  0.00  0.00    +0.000 A 
ATOM     23  C   UNL     1       7.068   6.578  16.711  0.00  0.00    +0.000 A 
ATOM     24  C   UNL     1       7.832   7.422  17.530  0.00  0.00    +0.000 A 
ENDBRANCH  18  22
ENDBRANCH  17  18
ENDBRANCH   1  17
TORSDOF 5
ENDMDL
MODEL 7
REMARK VINA RESULT:      -7.5      2.785      6.073
REMARK  Name = 
REMARK  5 active torsions:
REMARK  status: ('A' for Active; 'I' for Inactive)
REMARK    1  A    between atoms: C_4  and  C_5
REMARK    2  A    between atoms: C_5  and  S_6
REMARK    3  A    between atoms: S_6  and  C_7
REMARK    4  A    between atoms: C_10  and  C_11
REMARK    5  A    between atoms: N_16  and  C_17
REMARK                            x       y       z     vdW  Elec       q    Type
REMARK                         _______ _______ _______ _____ _____    ______ ____
ROOT
ATOM      1  C   UNL     1       5.233   4.252  16.783  0.00  0.00    +0.000 A 
ATOM      2  N   UNL     1       6.380   3.985  16.200  0.00  0.00    +0.000 NA
ATOM      3  N   UNL     1       7.230   5.037  16.433  0.00  0.00    +0.000 NA
ATOM      4  C   UNL     1       6.601   5.926  17.179  0.00  0.00    +0.000 A 
ATOM      5  N   UNL     1       5.293   5.488  17.420  0.00  0.00    +0.000 N 
ENDROOT
BRANCH   5   6
ATOM      6  C   UNL     1       4.296   6.158  18.196  0.00  0.00    +0.000 A 
ATOM      7  C   UNL     1       3.953   5.691  19.474  0.00  0.00    +0.000 A 
ATOM      8  C   UNL     1       2.828   6.184  20.136  0.00  0.00    +0.000 A 
ATOM      9  C   UNL     1       2.088   7.217  19.567  0.00  0.00    +0.000 A 
ATOM     10  C   UNL     1       2.475   7.750  18.342  0.00  0.00    +0.000 A 
ATOM     11  C   UNL     1       3.563   7.218  17.647  0.00  0.00    +0.000 A 
ENDBRANCH   5   6
BRANCH   4  12
ATOM     12  C   UNL     1       7.222   7.125  17.695  0.00  0.00    +0.000 A 
ATOM     13  C   UNL     1       7.134   8.419  17.204  0.00  0.00    +0.000 A 
ATOM     14  C   UNL     1       8.124   9.284  17.756  0.00  0.00    +0.000 A 
ATOM     15  C   UNL     1       8.803   8.681  18.790  0.00  0.00    +0.000 A 
ATOM     16  S   UNL     1       8.279   7.072  19.049  0.00  0.00    +0.000 S 
ENDBRANCH   4  12
BRANCH   1  17
ATOM     17  S   UNL     1       3.783   3.307  16.583  0.00  0.00    +0.000 S 
BRANCH  17  18
ATOM     18  C   UNL     1       3.902   2.084  17.926  0.00  0.00    +0.000 C 
BRANCH  18  22
ATOM     19  C   UNL     1       1.261   3.061  21.229  0.00  0.00    +0.000 A 
ATOM     20  C   UNL     1       0.808   3.163  19.917  0.00  0.00    +0.000 A 
ATOM     21  C   UNL     1       1.663   2.841  18.852  0.00  0.00    +0.000 A 
ATOM     22  C   UNL     1       2.985   2.429  19.087  0.00  0.00    +0.000 A 
ATOM     23  C   UNL     1       3.422   2.327  20.420  0.00  0.00    +0.000 A 
ATOM     24  C   UNL     1       2.561   2.642  21.480  0.00  0.00    +0.000 A 
ENDBRANCH  18  22
ENDBRANCH  17  18
ENDBRANCH   1  17
TORSDOF 5
ENDMDL
MODEL 8
REMARK VINA RESULT:      -7.5      2.835      6.138
REMARK  Name = 
REMARK  5 active torsions:
REMARK  status: ('A' for Active; 'I' for Inactive)
REMARK    1  A    between atoms: C_4  and  C_5
REMARK    2  A    between atoms: C_5  and  S_6
REMARK    3  A    between atoms: S_6  and  C_7
REMARK    4  A    between atoms: C_10  and  C_11
REMARK    5  A    between atoms: N_16  and  C_17
REMARK                            x       y       z     vdW  Elec       q    Type
REMARK                         _______ _______ _______ _____ _____    ______ ____
ROOT
ATOM      1  C   UNL     1       4.815   3.910  16.788  0.00  0.00    +0.000 A 
ATOM      2  N   UNL     1       5.982   3.515  16.333  0.00  0.00    +0.000 NA
ATOM      3  N   UNL     1       6.892   4.514  16.572  0.00  0.00    +0.000 NA
ATOM      4  C   UNL     1       6.276   5.502  17.195  0.00  0.00    +0.000 A 
ATOM      5  N   UNL     1       4.920   5.183  17.344  0.00  0.00    +0.000 N 
ENDROOT
BRANCH   5   6
ATOM      6  C   UNL     1       3.918   5.982  17.977  0.00  0.00    +0.000 A 
ATOM      7  C   UNL     1       3.369   7.093  17.318  0.00  0.00    +0.000 A 
ATOM      8  C   UNL     1       2.575   8.010  18.007  0.00  0.00    +0.000 A 
ATOM      9  C   UNL     1       2.244   7.777  19.339  0.00  0.00    +0.000 A 
ATOM     10  C   UNL     1       2.709   6.629  19.974  0.00  0.00    +0.000 A 
ATOM     11  C   UNL     1       3.554   5.740  19.308  0.00  0.00    +0.000 A 
ENDBRANCH   5   6
BRANCH   4  12
ATOM     12  C   UNL     1       6.945   6.685  17.684  0.00  0.00    +0.000 A 
ATOM     13  C   UNL     1       6.861   7.983  17.200  0.00  0.00    +0.000 A 
ATOM     14  C   UNL     1       7.894   8.825  17.708  0.00  0.00    +0.000 A 
ATOM     15  C   UNL     1       8.609   8.205  18.707  0.00  0.00    +0.000 A 
ATOM     16  S   UNL     1       8.063   6.606  18.986  0.00  0.00    +0.000 S 
ENDBRANCH   4  12
BRANCH   1  17
ATOM     17  S   UNL     1       3.315   3.065  16.520  0.00  0.00    +0.000 S 
BRANCH  17  18
ATOM     18  C   UNL     1       3.317   1.800  17.830  0.00  0.00    +0.000 C 
BRANCH  18  22
ATOM     19  C   UNL     1       1.341   3.209  21.429  0.00  0.00    +0.000 A 
ATOM     20  C   UNL     1       2.652   2.746  21.486  0.00  0.00    +0.000 A 
ATOM     21  C   UNL     1       3.290   2.297  20.320  0.00  0.00    +0.000 A 
ATOM     22  C   UNL     1       2.618   2.290  19.087  0.00  0.00    +0.000 A 
ATOM     23  C   UNL     1       1.295   2.767  19.048  0.00  0.00    +0.000 A 
ATOM     24  C   UNL     1       0.666   3.222  20.216  0.00  0.00    +0.000 A 
ENDBRANCH  18  22
ENDBRANCH  17  18
ENDBRANCH   1  17
TORSDOF 5
ENDMDL
MODEL 9
REMARK VINA RESULT:      -7.3      1.625      2.841
REMARK  Name = 
REMARK  5 active torsions:
REMARK  status: ('A' for Active; 'I' for Inactive)
REMARK    1  A    between atoms: C_4  and  C_5
REMARK    2  A    between atoms: C_5  and  S_6
REMARK    3  A    between atoms: S_6  and  C_7
REMARK    4  A    between atoms: C_10  and  C_11
REMARK    5  A    between atoms: N_16  and  C_17
REMARK                            x       y       z     vdW  Elec       q    Type
REMARK                         _______ _______ _______ _____ _____    ______ ____
ROOT
ATOM      1  C   UNL     1       3.922   5.589  17.388  0.00  0.00    +0.000 A 
ATOM      2  N   UNL     1       4.174   6.768  16.867  0.00  0.00    +0.000 NA
ATOM      3  N   UNL     1       3.453   7.704  17.564  0.00  0.00    +0.000 NA
ATOM      4  C   UNL     1       2.786   7.090  18.523  0.00  0.00    +0.000 A 
ATOM      5  N   UNL     1       3.027   5.713  18.448  0.00  0.00    +0.000 N 
ENDROOT
BRANCH   5   6
ATOM      6  C   UNL     1       2.502   4.704  19.314  0.00  0.00    +0.000 A 
ATOM      7  C   UNL     1       1.300   4.050  19.002  0.00  0.00    +0.000 A 
ATOM      8  C   UNL     1       0.660   3.245  19.945  0.00  0.00    +0.000 A 
ATOM      9  C   UNL     1       1.263   3.008  21.177  0.00  0.00    +0.000 A 
ATOM     10  C   UNL     1       2.500   3.579  21.460  0.00  0.00    +0.000 A 
ATOM     11  C   UNL     1       3.115   4.435  20.545  0.00  0.00    +0.000 A 
ENDBRANCH   5   6
BRANCH   4  12
ATOM     12  C   UNL     1       1.988   7.776  19.513  0.00  0.00    +0.000 A 
ATOM     13  C   UNL     1       1.653   7.354  20.791  0.00  0.00    +0.000 A 
ATOM     14  C   UNL     1       0.596   8.122  21.363  0.00  0.00    +0.000 A 
ATOM     15  C   UNL     1       0.294   9.222  20.593  0.00  0.00    +0.000 A 
ATOM     16  S   UNL     1       1.249   9.290  19.172  0.00  0.00    +0.000 S 
ENDBRANCH   4  12
BRANCH   1  17
ATOM     17  S   UNL     1       4.444   4.076  16.701  0.00  0.00    +0.000 S 
BRANCH  17  18
ATOM     18  C   UNL     1       6.129   4.448  16.120  0.00  0.00    +0.000 C 
BRANCH  18  22
ATOM     19  C   UNL     1       8.238   7.053  18.879  0.00  0.00    +0.000 A 
ATOM     20  C   UNL     1       7.869   7.519  17.620  0.00  0.00    +0.000 A 
ATOM     21  C   UNL     1       7.182   6.676  16.734  0.00  0.00    +0.000 A 
ATOM     22  C   UNL     1       6.872   5.353  17.089  0.00  0.00    +0.000 A 
ATOM     23  C   UNL     1       7.248   4.903  18.367  0.00  0.00    +0.000 A 
ATOM     24  C   UNL     1       7.927   5.752  19.253  0.00  0.00    +0.000 A 
ENDBRANCH  18  22
ENDBRANCH  17  18
ENDBRANCH   1  17
TORSDOF 5
ENDMDL
