MODEL 1
REMARK VINA RESULT:      -7.9      0.000      0.000
REMARK  Name = 
REMARK  10 active torsions:
REMARK  status: ('A' for Active; 'I' for Inactive)
REMARK    1  A    between atoms: C_1  and  C_2
REMARK    2  A    between atoms: C_2  and  N_3
REMARK    3  A    between atoms: N_3  and  C_4
REMARK    4  A    between atoms: C_4  and  C_5
REMARK    5  A    between atoms: N_9  and  C_10
REMARK    6  A    between atoms: C_13  and  C_14
REMARK    7  A    between atoms: N_19  and  C_20
REMARK    8  A    between atoms: N_19  and  C_22
REMARK    9  A    between atoms: C_20  and  C_21
REMARK   10  A    between atoms: C_22  and  C_23
REMARK                            x       y       z     vdW  Elec       q    Type
REMARK                         _______ _______ _______ _____ _____    ______ ____
ROOT
ATOM      1  N   UNL     1       2.532   3.653  19.302  0.00  0.00    +0.000 N 
ATOM      2  C   UNL     1       3.145   4.737  18.717  0.00  0.00    +0.000 A 
ATOM      3  N   UNL     1       2.529   5.905  18.772  0.00  0.00    +0.000 NA
ATOM      4  C   UNL     1       3.151   6.938  18.229  0.00  0.00    +0.000 A 
ATOM      5  N   UNL     1       2.526   8.183  18.274  0.00  0.00    +0.000 N 
ATOM      6  N   UNL     1       4.319   6.857  17.602  0.00  0.00    +0.000 NA
ATOM      7  C   UNL     1       4.876   5.652  17.577  0.00  0.00    +0.000 A 
ATOM      8  N   UNL     1       6.092   5.493  16.943  0.00  0.00    +0.000 N 
ATOM      9  N   UNL     1       4.320   4.576  18.133  0.00  0.00    +0.000 NA
ATOM     10  H   UNL     1       2.795   8.786  17.517  0.00  0.00    +0.000 HD
ENDROOT
BRANCH   5  11
ATOM     11  C   UNL     1       1.647   8.671  19.250  0.00  0.00    +0.000 A 
ATOM     12  C   UNL     1       0.802   9.763  19.004  0.00  0.00    +0.000 A 
ATOM     13  C   UNL     1       0.002  10.306  20.012  0.00  0.00    +0.000 A 
ATOM     14  C   UNL     1       0.047   9.778  21.302  0.00  0.00    +0.000 A 
ATOM     15  C   UNL     1      -0.751  10.398  22.410  0.00  0.00    +0.000 C 
ATOM     16  C   UNL     1       0.882   8.685  21.559  0.00  0.00    +0.000 A 
ATOM     17  C   UNL     1       1.667   8.131  20.540  0.00  0.00    +0.000 A 
ENDBRANCH   5  11
BRANCH   1  19
ATOM     18  C   UNL     1       0.587   2.180  18.771  0.00  0.00    +0.000 C 
ATOM     19  C   UNL     1       1.082   3.543  19.221  0.00  0.00    +0.000 C 
ENDBRANCH   1  19
BRANCH   1  20
ATOM     20  C   UNL     1       3.303   2.843  20.230  0.00  0.00    +0.000 C 
ATOM     21  C   UNL     1       2.627   2.713  21.592  0.00  0.00    +0.000 C 
ENDBRANCH   1  20
BRANCH   8  22
ATOM     22  C   UNL     1       7.055   6.579  16.935  0.00  0.00    +0.000 C 
ATOM     23  C   UNL     1       7.765   6.739  18.270  0.00  0.00    +0.000 C 
ENDBRANCH   8  22
BRANCH   8  24
ATOM     24  C   UNL     1       6.328   4.268  16.197  0.00  0.00    +0.000 C 
ATOM     25  C   UNL     1       5.761   4.334  14.788  0.00  0.00    +0.000 C 
ENDBRANCH   8  24
TORSDOF 5
ENDMDL
MODEL 2
REMARK VINA RESULT:      -7.5      0.312      1.030
REMARK  Name = 
REMARK  10 active torsions:
REMARK  status: ('A' for Active; 'I' for Inactive)
REMARK    1  A    between atoms: C_1  and  C_2
REMARK    2  A    between atoms: C_2  and  N_3
REMARK    3  A    between atoms: N_3  and  C_4
REMARK    4  A    between atoms: C_4  and  C_5
REMARK    5  A    between atoms: N_9  and  C_10
REMARK    6  A    between atoms: C_13  and  C_14
REMARK    7  A    between atoms: N_19  and  C_20
REMARK    8  A    between atoms: N_19  and  C_22
REMARK    9  A    between atoms: C_20  and  C_21
REMARK   10  A    between atoms: C_22  and  C_23
REMARK                            x       y       z     vdW  Elec       q    Type
REMARK                         _______ _______ _______ _____ _____    ______ ____
ROOT
ATOM      1  N   UNL     1       2.517   3.606  19.453  0.00  0.00    +0.000 N 
ATOM      2  C   UNL     1       3.095   4.637  18.748  0.00  0.00    +0.000 A 
ATOM      3  N   UNL     1       2.526   5.828  18.809  0.00  0.00    +0.000 NA
ATOM      4  C   UNL     1       3.115   6.810  18.148  0.00  0.00    +0.000 A 
ATOM      5  N   UNL     1       2.539   8.078  18.197  0.00  0.00    +0.000 N 
ATOM      6  N   UNL     1       4.203   6.655  17.401  0.00  0.00    +0.000 NA
ATOM      7  C   UNL     1       4.714   5.430  17.377  0.00  0.00    +0.000 A 
ATOM      8  N   UNL     1       5.846   5.196  16.621  0.00  0.00    +0.000 N 
ATOM      9  N   UNL     1       4.190   4.404  18.046  0.00  0.00    +0.000 NA
ATOM     10  H   UNL     1       2.741   8.633  17.384  0.00  0.00    +0.000 HD
ENDROOT
BRANCH   5  11
ATOM     11  C   UNL     1       1.791   8.645  19.238  0.00  0.00    +0.000 A 
ATOM     12  C   UNL     1       1.761   8.078  20.520  0.00  0.00    +0.000 A 
ATOM     13  C   UNL     1       0.936   8.589  21.524  0.00  0.00    +0.000 A 
ATOM     14  C   UNL     1       0.099   9.673  21.257  0.00  0.00    +0.000 A 
ATOM     15  C   UNL     1      -0.846  10.185  22.303  0.00  0.00    +0.000 C 
ATOM     16  C   UNL     1       0.124  10.251  19.983  0.00  0.00    +0.000 A 
ATOM     17  C   UNL     1       0.969   9.747  18.986  0.00  0.00    +0.000 A 
ENDBRANCH   5  11
BRANCH   1  19
ATOM     18  C   UNL     1       0.443   2.398  18.764  0.00  0.00    +0.000 C 
ATOM     19  C   UNL     1       1.064   3.547  19.538  0.00  0.00    +0.000 C 
ENDBRANCH   1  19
BRANCH   1  20
ATOM     20  C   UNL     1       3.361   2.814  20.330  0.00  0.00    +0.000 C 
ATOM     21  C   UNL     1       2.684   2.497  21.662  0.00  0.00    +0.000 C 
ENDBRANCH   1  20
BRANCH   8  22
ATOM     22  C   UNL     1       6.836   6.243  16.450  0.00  0.00    +0.000 C 
ATOM     23  C   UNL     1       7.552   6.587  17.747  0.00  0.00    +0.000 C 
ENDBRANCH   8  22
BRANCH   8  24
ATOM     24  C   UNL     1       5.957   3.928  15.918  0.00  0.00    +0.000 C 
ATOM     25  C   UNL     1       5.992   4.108  14.410  0.00  0.00    +0.000 C 
ENDBRANCH   8  24
TORSDOF 5
ENDMDL
MODEL 3
REMARK VINA RESULT:      -7.1      4.034      6.105
REMARK  Name = 
REMARK  10 active torsions:
REMARK  status: ('A' for Active; 'I' for Inactive)
REMARK    1  A    between atoms: C_1  and  C_2
REMARK    2  A    between atoms: C_2  and  N_3
REMARK    3  A    between atoms: N_3  and  C_4
REMARK    4  A    between atoms: C_4  and  C_5
REMARK    5  A    between atoms: N_9  and  C_10
REMARK    6  A    between atoms: C_13  and  C_14
REMARK    7  A    between atoms: N_19  and  C_20
REMARK    8  A    between atoms: N_19  and  C_22
REMARK    9  A    between atoms: C_20  and  C_21
REMARK   10  A    between atoms: C_22  and  C_23
REMARK                            x       y       z     vdW  Elec       q    Type
REMARK                         _______ _______ _______ _____ _____    ______ ____
ROOT
ATOM      1  N   UNL     1       7.443   6.420  17.547  0.00  0.00    +0.000 N 
ATOM      2  C   UNL     1       6.852   5.467  16.749  0.00  0.00    +0.000 A 
ATOM      3  N   UNL     1       6.069   4.572  17.324  0.00  0.00    +0.000 NA
ATOM      4  C   UNL     1       5.490   3.684  16.534  0.00  0.00    +0.000 A 
ATOM      5  N   UNL     1       4.655   2.730  17.113  0.00  0.00    +0.000 N 
ATOM      6  N   UNL     1       5.687   3.617  15.222  0.00  0.00    +0.000 NA
ATOM      7  C   UNL     1       6.493   4.540  14.714  0.00  0.00    +0.000 A 
ATOM      8  N   UNL     1       6.743   4.531  13.356  0.00  0.00    +0.000 N 
ATOM      9  N   UNL     1       7.082   5.483  15.448  0.00  0.00    +0.000 NA
ATOM     10  H   UNL     1       4.610   1.875  16.586  0.00  0.00    +0.000 HD
ENDROOT
BRANCH   5  11
ATOM     11  C   UNL     1       3.873   2.857  18.269  0.00  0.00    +0.000 A 
ATOM     12  C   UNL     1       4.359   2.495  19.533  0.00  0.00    +0.000 A 
ATOM     13  C   UNL     1       3.542   2.529  20.665  0.00  0.00    +0.000 A 
ATOM     14  C   UNL     1       2.204   2.908  20.550  0.00  0.00    +0.000 A 
ATOM     15  C   UNL     1       1.296   2.879  21.744  0.00  0.00    +0.000 C 
ATOM     16  C   UNL     1       1.709   3.276  19.295  0.00  0.00    +0.000 A 
ATOM     17  C   UNL     1       2.538   3.260  18.167  0.00  0.00    +0.000 A 
ENDBRANCH   5  11
BRANCH   1  19
ATOM     18  C   UNL     1       6.794   5.456  19.757  0.00  0.00    +0.000 C 
ATOM     19  C   UNL     1       7.889   6.036  18.880  0.00  0.00    +0.000 C 
ENDBRANCH   1  19
BRANCH   1  20
ATOM     20  C   UNL     1       7.315   7.815  17.162  0.00  0.00    +0.000 C 
ATOM     21  C   UNL     1       8.193   8.736  18.006  0.00  0.00    +0.000 C 
ENDBRANCH   1  20
BRANCH   8  22
ATOM     22  C   UNL     1       5.720   4.080  12.430  0.00  0.00    +0.000 C 
ATOM     23  C   UNL     1       6.025   2.710  11.845  0.00  0.00    +0.000 C 
ENDBRANCH   8  22
BRANCH   8  24
ATOM     24  C   UNL     1       8.079   4.872  12.896  0.00  0.00    +0.000 C 
ATOM     25  C   UNL     1       8.080   6.080  11.974  0.00  0.00    +0.000 C 
ENDBRANCH   8  24
TORSDOF 5
ENDMDL
MODEL 4
REMARK VINA RESULT:      -6.9      1.314      4.598
REMARK  Name = 
REMARK  10 active torsions:
REMARK  status: ('A' for Active; 'I' for Inactive)
REMARK    1  A    between atoms: C_1  and  C_2
REMARK    2  A    between atoms: C_2  and  N_3
REMARK    3  A    between atoms: N_3  and  C_4
REMARK    4  A    between atoms: C_4  and  C_5
REMARK    5  A    between atoms: N_9  and  C_10
REMARK    6  A    between atoms: C_13  and  C_14
REMARK    7  A    between atoms: N_19  and  C_20
REMARK    8  A    between atoms: N_19  and  C_22
REMARK    9  A    between atoms: C_20  and  C_21
REMARK   10  A    between atoms: C_22  and  C_23
REMARK                            x       y       z     vdW  Elec       q    Type
REMARK                         _______ _______ _______ _____ _____    ______ ____
ROOT
ATOM      1  N   UNL     1       5.226   5.943  16.972  0.00  0.00    +0.000 N 
ATOM      2  C   UNL     1       4.317   5.562  17.933  0.00  0.00    +0.000 A 
ATOM      3  N   UNL     1       3.662   6.510  18.580  0.00  0.00    +0.000 NA
ATOM      4  C   UNL     1       2.774   6.121  19.479  0.00  0.00    +0.000 A 
ATOM      5  N   UNL     1       2.066   7.099  20.174  0.00  0.00    +0.000 N 
ATOM      6  N   UNL     1       2.543   4.851  19.793  0.00  0.00    +0.000 NA
ATOM      7  C   UNL     1       3.244   3.953  19.112  0.00  0.00    +0.000 A 
ATOM      8  N   UNL     1       3.054   2.613  19.385  0.00  0.00    +0.000 N 
ATOM      9  N   UNL     1       4.129   4.276  18.170  0.00  0.00    +0.000 NA
ATOM     10  H   UNL     1       1.767   6.796  21.084  0.00  0.00    +0.000 HD
ENDROOT
BRANCH   5  11
ATOM     11  C   UNL     1       1.702   8.377  19.731  0.00  0.00    +0.000 A 
ATOM     12  C   UNL     1       2.008   8.827  18.439  0.00  0.00    +0.000 A 
ATOM     13  C   UNL     1       1.732  10.135  18.038  0.00  0.00    +0.000 A 
ATOM     14  C   UNL     1       1.160  11.036  18.936  0.00  0.00    +0.000 A 
ATOM     15  C   UNL     1       0.926  12.464  18.542  0.00  0.00    +0.000 C 
ATOM     16  C   UNL     1       0.845  10.599  20.227  0.00  0.00    +0.000 A 
ATOM     17  C   UNL     1       1.105   9.279  20.618  0.00  0.00    +0.000 A 
ENDBRANCH   5  11
BRANCH   1  19
ATOM     18  C   UNL     1       7.393   6.872  17.791  0.00  0.00    +0.000 C 
ATOM     19  C   UNL     1       6.022   7.141  17.198  0.00  0.00    +0.000 C 
ENDBRANCH   1  19
BRANCH   1  20
ATOM     20  C   UNL     1       5.133   5.330  15.657  0.00  0.00    +0.000 C 
ATOM     21  C   UNL     1       6.333   4.439  15.344  0.00  0.00    +0.000 C 
ENDBRANCH   1  20
BRANCH   8  22
ATOM     22  C   UNL     1       1.751   2.134  19.809  0.00  0.00    +0.000 C 
ATOM     23  C   UNL     1       0.703   2.249  18.714  0.00  0.00    +0.000 C 
ENDBRANCH   8  22
BRANCH   8  24
ATOM     24  C   UNL     1       4.209   1.730  19.349  0.00  0.00    +0.000 C 
ATOM     25  C   UNL     1       4.918   1.655  20.691  0.00  0.00    +0.000 C 
ENDBRANCH   8  24
TORSDOF 5
ENDMDL
MODEL 5
REMARK VINA RESULT:      -6.9      1.277      4.602
REMARK  Name = 
REMARK  10 active torsions:
REMARK  status: ('A' for Active; 'I' for Inactive)
REMARK    1  A    between atoms: C_1  and  C_2
REMARK    2  A    between atoms: C_2  and  N_3
REMARK    3  A    between atoms: N_3  and  C_4
REMARK    4  A    between atoms: C_4  and  C_5
REMARK    5  A    between atoms: N_9  and  C_10
REMARK    6  A    between atoms: C_13  and  C_14
REMARK    7  A    between atoms: N_19  and  C_20
REMARK    8  A    between atoms: N_19  and  C_22
REMARK    9  A    between atoms: C_20  and  C_21
REMARK   10  A    between atoms: C_22  and  C_23
REMARK                            x       y       z     vdW  Elec       q    Type
REMARK                         _______ _______ _______ _____ _____    ______ ____
ROOT
ATOM      1  N   UNL     1       5.213   5.999  17.054  0.00  0.00    +0.000 N 
ATOM      2  C   UNL     1       4.306   5.594  18.006  0.00  0.00    +0.000 A 
ATOM      3  N   UNL     1       3.664   6.525  18.690  0.00  0.00    +0.000 NA
ATOM      4  C   UNL     1       2.777   6.113  19.580  0.00  0.00    +0.000 A 
ATOM      5  N   UNL     1       2.083   7.074  20.313  0.00  0.00    +0.000 N 
ATOM      6  N   UNL     1       2.533   4.836  19.849  0.00  0.00    +0.000 NA
ATOM      7  C   UNL     1       3.220   3.955  19.132  0.00  0.00    +0.000 A 
ATOM      8  N   UNL     1       3.017   2.608  19.358  0.00  0.00    +0.000 N 
ATOM      9  N   UNL     1       4.105   4.302  18.198  0.00  0.00    +0.000 NA
ATOM     10  H   UNL     1       1.786   6.741  21.214  0.00  0.00    +0.000 HD
ENDROOT
BRANCH   5  11
ATOM     11  C   UNL     1       1.731   8.371  19.919  0.00  0.00    +0.000 A 
ATOM     12  C   UNL     1       1.175   9.292  20.819  0.00  0.00    +0.000 A 
ATOM     13  C   UNL     1       0.735  10.548  20.397  0.00  0.00    +0.000 A 
ATOM     14  C   UNL     1       0.820  10.903  19.050  0.00  0.00    +0.000 A 
ATOM     15  C   UNL     1       0.284  12.220  18.572  0.00  0.00    +0.000 C 
ATOM     16  C   UNL     1       1.377   9.996  18.144  0.00  0.00    +0.000 A 
ATOM     17  C   UNL     1       1.837   8.745  18.575  0.00  0.00    +0.000 A 
ENDBRANCH   5  11
BRANCH   1  19
ATOM     18  C   UNL     1       7.431   6.871  17.797  0.00  0.00    +0.000 C 
ATOM     19  C   UNL     1       6.024   7.180  17.319  0.00  0.00    +0.000 C 
ENDBRANCH   1  19
BRANCH   1  20
ATOM     20  C   UNL     1       5.107   5.435  15.719  0.00  0.00    +0.000 C 
ATOM     21  C   UNL     1       6.230   4.448  15.412  0.00  0.00    +0.000 C 
ENDBRANCH   1  20
BRANCH   8  22
ATOM     22  C   UNL     1       1.711   2.129  19.771  0.00  0.00    +0.000 C 
ATOM     23  C   UNL     1       0.666   2.263  18.676  0.00  0.00    +0.000 C 
ENDBRANCH   8  22
BRANCH   8  24
ATOM     24  C   UNL     1       4.161   1.714  19.284  0.00  0.00    +0.000 C 
ATOM     25  C   UNL     1       4.917   1.637  20.600  0.00  0.00    +0.000 C 
ENDBRANCH   8  24
TORSDOF 5
ENDMDL
MODEL 6
REMARK VINA RESULT:      -6.8      1.473      6.823
REMARK  Name = 
REMARK  10 active torsions:
REMARK  status: ('A' for Active; 'I' for Inactive)
REMARK    1  A    between atoms: C_1  and  C_2
REMARK    2  A    between atoms: C_2  and  N_3
REMARK    3  A    between atoms: N_3  and  C_4
REMARK    4  A    between atoms: C_4  and  C_5
REMARK    5  A    between atoms: N_9  and  C_10
REMARK    6  A    between atoms: C_13  and  C_14
REMARK    7  A    between atoms: N_19  and  C_20
REMARK    8  A    between atoms: N_19  and  C_22
REMARK    9  A    between atoms: C_20  and  C_21
REMARK   10  A    between atoms: C_22  and  C_23
REMARK                            x       y       z     vdW  Elec       q    Type
REMARK                         _______ _______ _______ _____ _____    ______ ____
ROOT
ATOM      1  N   UNL     1       2.669   3.303  18.681  0.00  0.00    +0.000 N 
ATOM      2  C   UNL     1       3.046   4.589  18.366  0.00  0.00    +0.000 A 
ATOM      3  N   UNL     1       4.038   4.754  17.509  0.00  0.00    +0.000 NA
ATOM      4  C   UNL     1       4.363   5.998  17.201  0.00  0.00    +0.000 A 
ATOM      5  N   UNL     1       5.404   6.203  16.296  0.00  0.00    +0.000 N 
ATOM      6  N   UNL     1       3.787   7.071  17.731  0.00  0.00    +0.000 NA
ATOM      7  C   UNL     1       2.806   6.830  18.592  0.00  0.00    +0.000 A 
ATOM      8  N   UNL     1       2.161   7.898  19.183  0.00  0.00    +0.000 N 
ATOM      9  N   UNL     1       2.406   5.603  18.922  0.00  0.00    +0.000 NA
ATOM     10  H   UNL     1       5.876   7.079  16.433  0.00  0.00    +0.000 HD
ENDROOT
BRANCH   5  11
ATOM     11  C   UNL     1       5.801   5.375  15.237  0.00  0.00    +0.000 A 
ATOM     12  C   UNL     1       7.099   5.423  14.709  0.00  0.00    +0.000 A 
ATOM     13  C   UNL     1       7.458   4.668  13.590  0.00  0.00    +0.000 A 
ATOM     14  C   UNL     1       6.512   3.861  12.958  0.00  0.00    +0.000 A 
ATOM     15  C   UNL     1       6.864   3.103  11.713  0.00  0.00    +0.000 C 
ATOM     16  C   UNL     1       5.215   3.801  13.479  0.00  0.00    +0.000 A 
ATOM     17  C   UNL     1       4.866   4.544  14.613  0.00  0.00    +0.000 A 
ENDBRANCH   5  11
BRANCH   1  19
ATOM     18  C   UNL     1       4.403   2.246  20.133  0.00  0.00    +0.000 C 
ATOM     19  C   UNL     1       3.699   2.280  18.788  0.00  0.00    +0.000 C 
ENDBRANCH   1  19
BRANCH   1  20
ATOM     20  C   UNL     1       1.261   2.955  18.583  0.00  0.00    +0.000 C 
ATOM     21  C   UNL     1       0.589   2.856  19.950  0.00  0.00    +0.000 C 
ENDBRANCH   1  20
BRANCH   8  22
ATOM     22  C   UNL     1       2.004   9.145  18.457  0.00  0.00    +0.000 C 
ATOM     23  C   UNL     1       0.740   9.176  17.614  0.00  0.00    +0.000 C 
ENDBRANCH   8  22
BRANCH   8  24
ATOM     24  C   UNL     1       1.752   7.777  20.573  0.00  0.00    +0.000 C 
ATOM     25  C   UNL     1       0.998   9.003  21.059  0.00  0.00    +0.000 C 
ENDBRANCH   8  24
TORSDOF 5
ENDMDL
MODEL 7
REMARK VINA RESULT:      -6.5      0.951      1.160
REMARK  Name = 
REMARK  10 active torsions:
REMARK  status: ('A' for Active; 'I' for Inactive)
REMARK    1  A    between atoms: C_1  and  C_2
REMARK    2  A    between atoms: C_2  and  N_3
REMARK    3  A    between atoms: N_3  and  C_4
REMARK    4  A    between atoms: C_4  and  C_5
REMARK    5  A    between atoms: N_9  and  C_10
REMARK    6  A    between atoms: C_13  and  C_14
REMARK    7  A    between atoms: N_19  and  C_20
REMARK    8  A    between atoms: N_19  and  C_22
REMARK    9  A    between atoms: C_20  and  C_21
REMARK   10  A    between atoms: C_22  and  C_23
REMARK                            x       y       z     vdW  Elec       q    Type
REMARK                         _______ _______ _______ _____ _____    ______ ____
ROOT
ATOM      1  N   UNL     1       2.520   4.380  19.544  0.00  0.00    +0.000 N 
ATOM      2  C   UNL     1       3.100   5.401  18.826  0.00  0.00    +0.000 A 
ATOM      3  N   UNL     1       2.396   6.501  18.627  0.00  0.00    +0.000 NA
ATOM      4  C   UNL     1       2.984   7.479  17.960  0.00  0.00    +0.000 A 
ATOM      5  N   UNL     1       2.267   8.653  17.739  0.00  0.00    +0.000 N 
ATOM      6  N   UNL     1       4.208   7.398  17.448  0.00  0.00    +0.000 NA
ATOM      7  C   UNL     1       4.853   6.262  17.677  0.00  0.00    +0.000 A 
ATOM      8  N   UNL     1       6.130   6.108  17.175  0.00  0.00    +0.000 N 
ATOM      9  N   UNL     1       4.331   5.250  18.369  0.00  0.00    +0.000 NA
ATOM     10  H   UNL     1       2.557   9.141  16.909  0.00  0.00    +0.000 HD
ENDROOT
BRANCH   5  11
ATOM     11  C   UNL     1       1.269   9.218  18.544  0.00  0.00    +0.000 A 
ATOM     12  C   UNL     1       0.175   9.902  17.995  0.00  0.00    +0.000 A 
ATOM     13  C   UNL     1      -0.762  10.547  18.804  0.00  0.00    +0.000 A 
ATOM     14  C   UNL     1      -0.610  10.541  20.191  0.00  0.00    +0.000 A 
ATOM     15  C   UNL     1      -1.567  11.292  21.068  0.00  0.00    +0.000 C 
ATOM     16  C   UNL     1       0.474   9.858  20.752  0.00  0.00    +0.000 A 
ATOM     17  C   UNL     1       1.399   9.194  19.936  0.00  0.00    +0.000 A 
ENDBRANCH   5  11
BRANCH   1  19
ATOM     18  C   UNL     1       0.777   2.848  18.625  0.00  0.00    +0.000 C 
ATOM     19  C   UNL     1       1.095   4.129  19.373  0.00  0.00    +0.000 C 
ENDBRANCH   1  19
BRANCH   1  20
ATOM     20  C   UNL     1       3.263   3.811  20.655  0.00  0.00    +0.000 C 
ATOM     21  C   UNL     1       2.358   3.100  21.658  0.00  0.00    +0.000 C 
ENDBRANCH   1  20
BRANCH   8  22
ATOM     22  C   UNL     1       7.006   7.258  17.049  0.00  0.00    +0.000 C 
ATOM     23  C   UNL     1       7.901   7.445  18.264  0.00  0.00    +0.000 C 
ENDBRANCH   8  22
BRANCH   8  24
ATOM     24  C   UNL     1       6.524   4.800  16.676  0.00  0.00    +0.000 C 
ATOM     25  C   UNL     1       7.757   4.263  17.382  0.00  0.00    +0.000 C 
ENDBRANCH   8  24
TORSDOF 5
ENDMDL
MODEL 8
REMARK VINA RESULT:      -6.0      1.259      6.479
REMARK  Name = 
REMARK  10 active torsions:
REMARK  status: ('A' for Active; 'I' for Inactive)
REMARK    1  A    between atoms: C_1  and  C_2
REMARK    2  A    between atoms: C_2  and  N_3
REMARK    3  A    between atoms: N_3  and  C_4
REMARK    4  A    between atoms: C_4  and  C_5
REMARK    5  A    between atoms: N_9  and  C_10
REMARK    6  A    between atoms: C_13  and  C_14
REMARK    7  A    between atoms: N_19  and  C_20
REMARK    8  A    between atoms: N_19  and  C_22
REMARK    9  A    between atoms: C_20  and  C_21
REMARK   10  A    between atoms: C_22  and  C_23
REMARK                            x       y       z     vdW  Elec       q    Type
REMARK                         _______ _______ _______ _____ _____    ______ ____
ROOT
ATOM      1  N   UNL     1       2.189   3.947  19.946  0.00  0.00    +0.000 N 
ATOM      2  C   UNL     1       2.497   5.232  19.562  0.00  0.00    +0.000 A 
ATOM      3  N   UNL     1       3.485   5.405  18.702  0.00  0.00    +0.000 NA
ATOM      4  C   UNL     1       3.744   6.646  18.326  0.00  0.00    +0.000 A 
ATOM      5  N   UNL     1       4.779   6.858  17.416  0.00  0.00    +0.000 N 
ATOM      6  N   UNL     1       3.106   7.712  18.793  0.00  0.00    +0.000 NA
ATOM      7  C   UNL     1       2.133   7.466  19.661  0.00  0.00    +0.000 A 
ATOM      8  N   UNL     1       1.425   8.528  20.188  0.00  0.00    +0.000 N 
ATOM      9  N   UNL     1       1.798   6.238  20.057  0.00  0.00    +0.000 NA
ATOM     10  H   UNL     1       5.202   7.765  17.507  0.00  0.00    +0.000 HD
ENDROOT
BRANCH   5  11
ATOM     11  C   UNL     1       5.229   5.996  16.407  0.00  0.00    +0.000 A 
ATOM     12  C   UNL     1       5.271   6.391  15.063  0.00  0.00    +0.000 A 
ATOM     13  C   UNL     1       5.625   5.496  14.051  0.00  0.00    +0.000 A 
ATOM     14  C   UNL     1       5.925   4.170  14.364  0.00  0.00    +0.000 A 
ATOM     15  C   UNL     1       6.235   3.180  13.280  0.00  0.00    +0.000 C 
ATOM     16  C   UNL     1       5.892   3.765  15.702  0.00  0.00    +0.000 A 
ATOM     17  C   UNL     1       5.557   4.672  16.715  0.00  0.00    +0.000 A 
ENDBRANCH   5  11
BRANCH   1  19
ATOM     18  C   UNL     1       3.220   2.216  21.420  0.00  0.00    +0.000 C 
ATOM     19  C   UNL     1       3.274   2.990  20.115  0.00  0.00    +0.000 C 
ENDBRANCH   1  19
BRANCH   1  20
ATOM     20  C   UNL     1       0.804   3.517  19.861  0.00  0.00    +0.000 C 
ATOM     21  C   UNL     1       0.588   2.453  18.788  0.00  0.00    +0.000 C 
ENDBRANCH   1  20
BRANCH   8  22
ATOM     22  C   UNL     1       1.206   9.722  19.394  0.00  0.00    +0.000 C 
ATOM     23  C   UNL     1       0.316   9.466  18.188  0.00  0.00    +0.000 C 
ENDBRANCH   8  22
BRANCH   8  24
ATOM     24  C   UNL     1       1.013   8.461  21.581  0.00  0.00    +0.000 C 
ATOM     25  C   UNL     1      -0.452   8.822  21.765  0.00  0.00    +0.000 C 
ENDBRANCH   8  24
TORSDOF 5
ENDMDL
MODEL 9
REMARK VINA RESULT:      -5.9      5.910      8.496
REMARK  Name = 
REMARK  10 active torsions:
REMARK  status: ('A' for Active; 'I' for Inactive)
REMARK    1  A    between atoms: C_1  and  C_2
REMARK    2  A    between atoms: C_2  and  N_3
REMARK    3  A    between atoms: N_3  and  C_4
REMARK    4  A    between atoms: C_4  and  C_5
REMARK    5  A    between atoms: N_9  and  C_10
REMARK    6  A    between atoms: C_13  and  C_14
REMARK    7  A    between atoms: N_19  and  C_20
REMARK    8  A    between atoms: N_19  and  C_22
REMARK    9  A    between atoms: C_20  and  C_21
REMARK   10  A    between atoms: C_22  and  C_23
REMARK                            x       y       z     vdW  Elec       q    Type
REMARK                         _______ _______ _______ _____ _____    ______ ____
ROOT
ATOM      1  N   UNL     1      -0.507  10.318  21.127  0.00  0.00    +0.000 N 
ATOM      2  C   UNL     1      -0.790  11.035  19.987  0.00  0.00    +0.000 A 
ATOM      3  N   UNL     1      -0.155  12.178  19.797  0.00  0.00    +0.000 NA
ATOM      4  C   UNL     1      -0.422  12.835  18.681  0.00  0.00    +0.000 A 
ATOM      5  N   UNL     1       0.235  14.043  18.452  0.00  0.00    +0.000 N 
ATOM      6  N   UNL     1      -1.312  12.437  17.779  0.00  0.00    +0.000 NA
ATOM      7  C   UNL     1      -1.919  11.286  18.039  0.00  0.00    +0.000 A 
ATOM      8  N   UNL     1      -2.856  10.810  17.144  0.00  0.00    +0.000 N 
ATOM      9  N   UNL     1      -1.673  10.557  19.127  0.00  0.00    +0.000 NA
ATOM     10  H   UNL     1      -0.291  14.673  17.873  0.00  0.00    +0.000 HD
ENDROOT
BRANCH   5  11
ATOM     11  C   UNL     1       1.512  14.424  18.885  0.00  0.00    +0.000 A 
ATOM     12  C   UNL     1       1.696  15.316  19.951  0.00  0.00    +0.000 A 
ATOM     13  C   UNL     1       2.966  15.769  20.312  0.00  0.00    +0.000 A 
ATOM     14  C   UNL     1       4.087  15.353  19.593  0.00  0.00    +0.000 A 
ATOM     15  C   UNL     1       5.449  15.889  19.923  0.00  0.00    +0.000 C 
ATOM     16  C   UNL     1       3.918  14.459  18.531  0.00  0.00    +0.000 A 
ATOM     17  C   UNL     1       2.644  13.992  18.186  0.00  0.00    +0.000 A 
ENDBRANCH   5  11
BRANCH   1  19
ATOM     18  C   UNL     1      -1.500  11.462  23.111  0.00  0.00    +0.000 C 
ATOM     19  C   UNL     1      -0.247  11.044  22.362  0.00  0.00    +0.000 C 
ENDBRANCH   1  19
BRANCH   1  20
ATOM     20  C   UNL     1      -0.172   8.911  20.990  0.00  0.00    +0.000 C 
ATOM     21  C   UNL     1       1.204   8.580  21.563  0.00  0.00    +0.000 C 
ENDBRANCH   1  20
BRANCH   8  22
ATOM     22  C   UNL     1      -2.713  11.084  15.726  0.00  0.00    +0.000 C 
ATOM     23  C   UNL     1      -3.109   9.899  14.859  0.00  0.00    +0.000 C 
ENDBRANCH   8  22
BRANCH   8  24
ATOM     24  C   UNL     1      -4.033  10.136  17.668  0.00  0.00    +0.000 C 
ATOM     25  C   UNL     1      -5.190  11.094  17.899  0.00  0.00    +0.000 C 
ENDBRANCH   8  24
TORSDOF 5
ENDMDL
