MODEL 1
REMARK VINA RESULT:      -7.5      0.000      0.000
REMARK  Name = 
REMARK  3 active torsions:
REMARK  status: ('A' for Active; 'I' for Inactive)
REMARK    1  A    between atoms: N_1  and  C_2
REMARK    2  A    between atoms: C_4  and  C_5
REMARK    3  A    between atoms: N_16  and  C_17
REMARK                            x       y       z     vdW  Elec       q    Type
REMARK                         _______ _______ _______ _____ _____    ______ ____
ROOT
ATOM      1  C   UNL     1       1.470   4.822  20.034  0.00  0.00    +0.000 C 
ATOM      2  O   UNL     1       0.973   3.999  20.812  0.00  0.00    +0.000 OA
ATOM      3  N   UNL     1       2.003   4.401  18.802  0.00  0.00    +0.000 N 
ATOM      4  C   UNL     1       1.812   3.009  18.423  0.00  0.00    +0.000 C 
ATOM      5  C   UNL     1       3.151   2.340  18.186  0.00  0.00    +0.000 C 
ATOM      6  C   UNL     1       3.908   3.100  17.117  0.00  0.00    +0.000 C 
ATOM      7  C   UNL     1       4.108   4.602  17.436  0.00  0.00    +0.000 C 
ATOM      8  C   UNL     1       5.106   4.877  18.583  0.00  0.00    +0.000 C 
ATOM      9  C   UNL     1       6.503   4.363  18.289  0.00  0.00    +0.000 C 
ATOM     10  C   UNL     1       7.023   4.639  16.890  0.00  0.00    +0.000 C 
ATOM     11  O   UNL     1       8.230   4.584  16.653  0.00  0.00    +0.000 OA
ATOM     12  N   UNL     1       6.055   4.709  15.891  0.00  0.00    +0.000 N 
ATOM     13  C   UNL     1       4.730   5.274  16.188  0.00  0.00    +0.000 C 
ATOM     14  C   UNL     1       2.744   5.232  17.818  0.00  0.00    +0.000 C 
ENDROOT
BRANCH   1  17
ATOM     15  C   UNL     1       0.942   8.197  21.322  0.00  0.00    +0.000 A 
ATOM     16  C   UNL     1       0.530   6.894  21.224  0.00  0.00    +0.000 A 
ATOM     17  C   UNL     1       1.520   6.240  20.422  0.00  0.00    +0.000 A 
ATOM     18  N   UNL     1       2.457   7.119  20.020  0.00  0.00    +0.000 NA
ATOM     19  N   UNL     1       2.116   8.264  20.629  0.00  0.00    +0.000 N 
ATOM     20  H   UNL     1       2.725   9.071  20.525  0.00  0.00    +0.000 HD
BRANCH  15  21
ATOM     21  N   UNL     1       0.406   9.266  21.933  0.00  0.00    +0.000 N 
ATOM     22  H   UNL     1       0.508   9.361  22.943  0.00  0.00    +0.000 HD
ATOM     23  H   UNL     1      -0.435   9.718  21.587  0.00  0.00    +0.000 HD
ENDBRANCH  15  21
ENDBRANCH   1  17
BRANCH  12  24
ATOM     24  C   UNL     1       6.359   4.050  14.616  0.00  0.00    +0.000 C 
ATOM     25  C   UNL     1       5.134   3.749  13.750  0.00  0.00    +0.000 C 
ATOM     26  C   UNL     1       5.720   3.355  12.407  0.00  0.00    +0.000 C 
ATOM     27  C   UNL     1       7.041   4.119  12.303  0.00  0.00    +0.000 C 
ATOM     28  C   UNL     1       7.276   4.799  13.659  0.00  0.00    +0.000 C 
ENDBRANCH  12  24
TORSDOF 3
ENDMDL
MODEL 2
REMARK VINA RESULT:      -7.1      2.335      7.610
REMARK  Name = 
REMARK  3 active torsions:
REMARK  status: ('A' for Active; 'I' for Inactive)
REMARK    1  A    between atoms: N_1  and  C_2
REMARK    2  A    between atoms: C_4  and  C_5
REMARK    3  A    between atoms: N_16  and  C_17
REMARK                            x       y       z     vdW  Elec       q    Type
REMARK                         _______ _______ _______ _____ _____    ______ ____
ROOT
ATOM      1  C   UNL     1       4.379   3.519  18.183  0.00  0.00    +0.000 C 
ATOM      2  O   UNL     1       3.988   2.388  17.873  0.00  0.00    +0.000 OA
ATOM      3  N   UNL     1       3.668   4.280  19.129  0.00  0.00    +0.000 N 
ATOM      4  C   UNL     1       2.564   3.634  19.825  0.00  0.00    +0.000 C 
ATOM      5  C   UNL     1       1.279   4.405  19.600  0.00  0.00    +0.000 C 
ATOM      6  C   UNL     1       1.462   5.833  20.070  0.00  0.00    +0.000 C 
ATOM      7  C   UNL     1       2.650   6.567  19.401  0.00  0.00    +0.000 C 
ATOM      8  C   UNL     1       2.427   6.902  17.909  0.00  0.00    +0.000 C 
ATOM      9  C   UNL     1       1.239   7.818  17.680  0.00  0.00    +0.000 C 
ATOM     10  C   UNL     1       1.116   8.988  18.639  0.00  0.00    +0.000 C 
ATOM     11  O   UNL     1       0.422   9.961  18.346  0.00  0.00    +0.000 OA
ATOM     12  N   UNL     1       1.625   8.774  19.917  0.00  0.00    +0.000 N 
ATOM     13  C   UNL     1       2.819   7.935  20.104  0.00  0.00    +0.000 C 
ATOM     14  C   UNL     1       3.924   5.692  19.516  0.00  0.00    +0.000 C 
ENDROOT
BRANCH   1  17
ATOM     15  C   UNL     1       6.946   4.851  15.955  0.00  0.00    +0.000 A 
ATOM     16  C   UNL     1       5.665   4.403  16.144  0.00  0.00    +0.000 A 
ATOM     17  C   UNL     1       5.579   4.070  17.534  0.00  0.00    +0.000 A 
ATOM     18  N   UNL     1       6.765   4.266  18.140  0.00  0.00    +0.000 NA
ATOM     19  N   UNL     1       7.540   4.794  17.182  0.00  0.00    +0.000 N 
ATOM     20  H   UNL     1       8.481   5.091  17.426  0.00  0.00    +0.000 HD
BRANCH  15  21
ATOM     21  N   UNL     1       7.596   5.282  14.861  0.00  0.00    +0.000 N 
ATOM     22  H   UNL     1       8.614   5.228  14.837  0.00  0.00    +0.000 HD
ATOM     23  H   UNL     1       7.236   6.037  14.285  0.00  0.00    +0.000 HD
ENDBRANCH  15  21
ENDBRANCH   1  17
BRANCH  12  24
ATOM     24  C   UNL     1       0.830   9.270  21.047  0.00  0.00    +0.000 C 
ATOM     25  C   UNL     1      -0.425   8.449  21.347  0.00  0.00    +0.000 C 
ATOM     26  C   UNL     1      -0.893   8.971  22.692  0.00  0.00    +0.000 C 
ATOM     27  C   UNL     1       0.376   9.433  23.410  0.00  0.00    +0.000 C 
ATOM     28  C   UNL     1       1.526   9.333  22.399  0.00  0.00    +0.000 C 
ENDBRANCH  12  24
TORSDOF 3
ENDMDL
MODEL 3
REMARK VINA RESULT:      -6.8      1.286      1.431
REMARK  Name = 
REMARK  3 active torsions:
REMARK  status: ('A' for Active; 'I' for Inactive)
REMARK    1  A    between atoms: N_1  and  C_2
REMARK    2  A    between atoms: C_4  and  C_5
REMARK    3  A    between atoms: N_16  and  C_17
REMARK                            x       y       z     vdW  Elec       q    Type
REMARK                         _______ _______ _______ _____ _____    ______ ____
ROOT
ATOM      1  C   UNL     1       2.205   5.464  20.262  0.00  0.00    +0.000 C 
ATOM      2  O   UNL     1       2.138   4.852  21.334  0.00  0.00    +0.000 OA
ATOM      3  N   UNL     1       2.697   4.823  19.110  0.00  0.00    +0.000 N 
ATOM      4  C   UNL     1       2.974   3.396  19.195  0.00  0.00    +0.000 C 
ATOM      5  C   UNL     1       4.423   3.121  18.850  0.00  0.00    +0.000 C 
ATOM      6  C   UNL     1       4.718   3.654  17.463  0.00  0.00    +0.000 C 
ATOM      7  C   UNL     1       4.403   5.160  17.288  0.00  0.00    +0.000 C 
ATOM      8  C   UNL     1       5.369   6.100  18.044  0.00  0.00    +0.000 C 
ATOM      9  C   UNL     1       6.809   5.959  17.588  0.00  0.00    +0.000 C 
ATOM     10  C   UNL     1       7.018   5.877  16.086  0.00  0.00    +0.000 C 
ATOM     11  O   UNL     1       8.124   6.108  15.599  0.00  0.00    +0.000 OA
ATOM     12  N   UNL     1       5.974   5.303  15.365  0.00  0.00    +0.000 N 
ATOM     13  C   UNL     1       4.581   5.512  15.792  0.00  0.00    +0.000 C 
ATOM     14  C   UNL     1       2.962   5.444  17.786  0.00  0.00    +0.000 C 
ENDROOT
BRANCH   1  17
ATOM     15  C   UNL     1       1.527   8.964  19.478  0.00  0.00    +0.000 A 
ATOM     16  C   UNL     1       2.055   7.754  19.111  0.00  0.00    +0.000 A 
ATOM     17  C   UNL     1       1.790   6.874  20.209  0.00  0.00    +0.000 A 
ATOM     18  N   UNL     1       1.174   7.536  21.207  0.00  0.00    +0.000 NA
ATOM     19  N   UNL     1       0.975   8.766  20.710  0.00  0.00    +0.000 N 
ATOM     20  H   UNL     1       0.458   9.439  21.269  0.00  0.00    +0.000 HD
BRANCH  15  21
ATOM     21  N   UNL     1       1.491  10.155  18.857  0.00  0.00    +0.000 N 
ATOM     22  H   UNL     1       1.594  10.188  17.844  0.00  0.00    +0.000 HD
ATOM     23  H   UNL     1       1.822  11.005  19.306  0.00  0.00    +0.000 HD
ENDBRANCH  15  21
ENDBRANCH   1  17
BRANCH  12  24
ATOM     24  C   UNL     1       6.334   4.368  14.293  0.00  0.00    +0.000 C 
ATOM     25  C   UNL     1       5.144   3.828  13.497  0.00  0.00    +0.000 C 
ATOM     26  C   UNL     1       5.781   3.142  12.304  0.00  0.00    +0.000 C 
ATOM     27  C   UNL     1       7.084   3.901  12.049  0.00  0.00    +0.000 C 
ATOM     28  C   UNL     1       7.259   4.894  13.206  0.00  0.00    +0.000 C 
ENDBRANCH  12  24
TORSDOF 3
ENDMDL
MODEL 4
REMARK VINA RESULT:      -6.6      8.545     12.472
REMARK  Name = 
REMARK  3 active torsions:
REMARK  status: ('A' for Active; 'I' for Inactive)
REMARK    1  A    between atoms: N_1  and  C_2
REMARK    2  A    between atoms: C_4  and  C_5
REMARK    3  A    between atoms: N_16  and  C_17
REMARK                            x       y       z     vdW  Elec       q    Type
REMARK                         _______ _______ _______ _____ _____    ______ ____
ROOT
ATOM      1  C   UNL     1      -6.664  14.620  20.822  0.00  0.00    +0.000 C 
ATOM      2  O   UNL     1      -7.512  15.001  21.636  0.00  0.00    +0.000 OA
ATOM      3  N   UNL     1      -5.759  13.599  21.166  0.00  0.00    +0.000 N 
ATOM      4  C   UNL     1      -5.958  12.919  22.437  0.00  0.00    +0.000 C 
ATOM      5  C   UNL     1      -4.719  13.047  23.300  0.00  0.00    +0.000 C 
ATOM      6  C   UNL     1      -3.529  12.479  22.556  0.00  0.00    +0.000 C 
ATOM      7  C   UNL     1      -3.286  13.127  21.171  0.00  0.00    +0.000 C 
ATOM      8  C   UNL     1      -2.771  14.583  21.236  0.00  0.00    +0.000 C 
ATOM      9  C   UNL     1      -1.438  14.707  21.951  0.00  0.00    +0.000 C 
ATOM     10  C   UNL     1      -0.399  13.661  21.592  0.00  0.00    +0.000 C 
ATOM     11  O   UNL     1       0.792  13.860  21.832  0.00  0.00    +0.000 OA
ATOM     12  N   UNL     1      -0.902  12.418  21.216  0.00  0.00    +0.000 N 
ATOM     13  C   UNL     1      -2.163  12.331  20.464  0.00  0.00    +0.000 C 
ATOM     14  C   UNL     1      -4.607  13.117  20.360  0.00  0.00    +0.000 C 
ENDROOT
BRANCH   1  17
ATOM     15  C   UNL     1      -6.824  15.593  17.307  0.00  0.00    +0.000 A 
ATOM     16  C   UNL     1      -7.121  14.693  18.296  0.00  0.00    +0.000 A 
ATOM     17  C   UNL     1      -6.594  15.263  19.500  0.00  0.00    +0.000 A 
ATOM     18  N   UNL     1      -5.971  16.427  19.238  0.00  0.00    +0.000 NA
ATOM     19  N   UNL     1      -6.184  16.625  17.929  0.00  0.00    +0.000 N 
ATOM     20  H   UNL     1      -5.856  17.490  17.508  0.00  0.00    +0.000 HD
BRANCH  15  21
ATOM     21  N   UNL     1      -7.056  15.584  15.984  0.00  0.00    +0.000 N 
ATOM     22  H   UNL     1      -7.343  16.449  15.526  0.00  0.00    +0.000 HD
ATOM     23  H   UNL     1      -7.408  14.760  15.505  0.00  0.00    +0.000 HD
ENDBRANCH  15  21
ENDBRANCH   1  17
BRANCH  12  24
ATOM     24  C   UNL     1      -0.219  11.231  21.744  0.00  0.00    +0.000 C 
ATOM     25  C   UNL     1      -0.780  10.716  23.071  0.00  0.00    +0.000 C 
ATOM     26  C   UNL     1      -0.123   9.360  23.246  0.00  0.00    +0.000 C 
ATOM     27  C   UNL     1       0.127   8.846  21.827  0.00  0.00    +0.000 C 
ATOM     28  C   UNL     1      -0.228   9.988  20.866  0.00  0.00    +0.000 C 
ENDBRANCH  12  24
TORSDOF 3
ENDMDL
MODEL 5
REMARK VINA RESULT:      -6.6      7.967     10.112
REMARK  Name = 
REMARK  3 active torsions:
REMARK  status: ('A' for Active; 'I' for Inactive)
REMARK    1  A    between atoms: N_1  and  C_2
REMARK    2  A    between atoms: C_4  and  C_5
REMARK    3  A    between atoms: N_16  and  C_17
REMARK                            x       y       z     vdW  Elec       q    Type
REMARK                         _______ _______ _______ _____ _____    ______ ____
ROOT
ATOM      1  C   UNL     1      -3.180  10.486  17.813  0.00  0.00    +0.000 C 
ATOM      2  O   UNL     1      -3.415   9.272  17.846  0.00  0.00    +0.000 OA
ATOM      3  N   UNL     1      -1.852  10.949  17.767  0.00  0.00    +0.000 N 
ATOM      4  C   UNL     1      -0.795   9.960  17.610  0.00  0.00    +0.000 C 
ATOM      5  C   UNL     1       0.183  10.049  18.764  0.00  0.00    +0.000 C 
ATOM      6  C   UNL     1       0.751  11.452  18.832  0.00  0.00    +0.000 C 
ATOM      7  C   UNL     1      -0.324  12.560  18.954  0.00  0.00    +0.000 C 
ATOM      8  C   UNL     1      -1.041  12.598  20.322  0.00  0.00    +0.000 C 
ATOM      9  C   UNL     1      -0.095  12.859  21.479  0.00  0.00    +0.000 C 
ATOM     10  C   UNL     1       0.937  13.949  21.251  0.00  0.00    +0.000 C 
ATOM     11  O   UNL     1       1.507  14.474  22.207  0.00  0.00    +0.000 OA
ATOM     12  N   UNL     1       1.346  14.123  19.932  0.00  0.00    +0.000 N 
ATOM     13  C   UNL     1       0.389  13.928  18.832  0.00  0.00    +0.000 C 
ATOM     14  C   UNL     1      -1.394  12.360  17.850  0.00  0.00    +0.000 C 
ENDROOT
BRANCH   1  17
ATOM     15  C   UNL     1      -5.920  12.754  18.631  0.00  0.00    +0.000 A 
ATOM     16  C   UNL     1      -4.915  11.920  19.046  0.00  0.00    +0.000 A 
ATOM     17  C   UNL     1      -4.300  11.438  17.846  0.00  0.00    +0.000 A 
ATOM     18  N   UNL     1      -4.935  11.924  16.762  0.00  0.00    +0.000 NA
ATOM     19  N   UNL     1      -5.856  12.757  17.268  0.00  0.00    +0.000 N 
ATOM     20  H   UNL     1      -6.426  13.300  16.625  0.00  0.00    +0.000 HD
BRANCH  15  21
ATOM     21  N   UNL     1      -6.832  13.470  19.309  0.00  0.00    +0.000 N 
ATOM     22  H   UNL     1      -7.149  14.359  18.923  0.00  0.00    +0.000 HD
ATOM     23  H   UNL     1      -6.887  13.449  20.323  0.00  0.00    +0.000 HD
ENDBRANCH  15  21
ENDBRANCH   1  17
BRANCH  12  24
ATOM     24  C   UNL     1       2.779  14.334  19.697  0.00  0.00    +0.000 C 
ATOM     25  C   UNL     1       3.269  13.880  18.320  0.00  0.00    +0.000 C 
ATOM     26  C   UNL     1       4.668  14.459  18.219  0.00  0.00    +0.000 C 
ATOM     27  C   UNL     1       4.642  15.730  19.068  0.00  0.00    +0.000 C 
ATOM     28  C   UNL     1       3.284  15.767  19.782  0.00  0.00    +0.000 C 
ENDBRANCH  12  24
TORSDOF 3
ENDMDL
MODEL 6
REMARK VINA RESULT:      -6.5      8.405     12.849
REMARK  Name = 
REMARK  3 active torsions:
REMARK  status: ('A' for Active; 'I' for Inactive)
REMARK    1  A    between atoms: N_1  and  C_2
REMARK    2  A    between atoms: C_4  and  C_5
REMARK    3  A    between atoms: N_16  and  C_17
REMARK                            x       y       z     vdW  Elec       q    Type
REMARK                         _______ _______ _______ _____ _____    ______ ____
ROOT
ATOM      1  C   UNL     1      -0.913  10.496  19.573  0.00  0.00    +0.000 C 
ATOM      2  O   UNL     1      -0.570   9.329  19.793  0.00  0.00    +0.000 OA
ATOM      3  N   UNL     1      -0.756  11.480  20.568  0.00  0.00    +0.000 N 
ATOM      4  C   UNL     1      -0.049  11.105  21.784  0.00  0.00    +0.000 C 
ATOM      5  C   UNL     1      -0.931  11.330  22.995  0.00  0.00    +0.000 C 
ATOM      6  C   UNL     1      -1.363  12.781  23.037  0.00  0.00    +0.000 C 
ATOM      7  C   UNL     1      -2.084  13.260  21.753  0.00  0.00    +0.000 C 
ATOM      8  C   UNL     1      -3.497  12.664  21.561  0.00  0.00    +0.000 C 
ATOM      9  C   UNL     1      -4.449  13.025  22.687  0.00  0.00    +0.000 C 
ATOM     10  C   UNL     1      -4.405  14.471  23.145  0.00  0.00    +0.000 C 
ATOM     11  O   UNL     1      -5.343  14.949  23.784  0.00  0.00    +0.000 OA
ATOM     12  N   UNL     1      -3.175  15.109  23.010  0.00  0.00    +0.000 N 
ATOM     13  C   UNL     1      -2.300  14.788  21.871  0.00  0.00    +0.000 C 
ATOM     14  C   UNL     1      -1.228  12.887  20.515  0.00  0.00    +0.000 C 
ENDROOT
BRANCH   1  17
ATOM     15  C   UNL     1      -2.546  10.624  16.311  0.00  0.00    +0.000 A 
ATOM     16  C   UNL     1      -2.173   9.905  17.416  0.00  0.00    +0.000 A 
ATOM     17  C   UNL     1      -1.508  10.840  18.273  0.00  0.00    +0.000 A 
ATOM     18  N   UNL     1      -1.445  12.052  17.690  0.00  0.00    +0.000 NA
ATOM     19  N   UNL     1      -2.132  11.903  16.548  0.00  0.00    +0.000 N 
ATOM     20  H   UNL     1      -2.278  12.717  15.958  0.00  0.00    +0.000 HD
BRANCH  15  21
ATOM     21  N   UNL     1      -3.184  10.273  15.182  0.00  0.00    +0.000 N 
ATOM     22  H   UNL     1      -2.737  10.456  14.285  0.00  0.00    +0.000 HD
ATOM     23  H   UNL     1      -4.198  10.272  15.116  0.00  0.00    +0.000 HD
ENDBRANCH  15  21
ENDBRANCH   1  17
BRANCH  12  24
ATOM     24  C   UNL     1      -2.735  15.961  24.121  0.00  0.00    +0.000 C 
ATOM     25  C   UNL     1      -2.225  15.195  25.343  0.00  0.00    +0.000 C 
ATOM     26  C   UNL     1      -1.576  16.264  26.202  0.00  0.00    +0.000 C 
ATOM     27  C   UNL     1      -1.077  17.324  25.220  0.00  0.00    +0.000 C 
ATOM     28  C   UNL     1      -1.601  16.933  23.831  0.00  0.00    +0.000 C 
ENDBRANCH  12  24
TORSDOF 3
ENDMDL
MODEL 7
REMARK VINA RESULT:      -6.5     10.241     13.322
REMARK  Name = 
REMARK  3 active torsions:
REMARK  status: ('A' for Active; 'I' for Inactive)
REMARK    1  A    between atoms: N_1  and  C_2
REMARK    2  A    between atoms: C_4  and  C_5
REMARK    3  A    between atoms: N_16  and  C_17
REMARK                            x       y       z     vdW  Elec       q    Type
REMARK                         _______ _______ _______ _____ _____    ______ ____
ROOT
ATOM      1  C   UNL     1       9.756  11.282  19.747  0.00  0.00    +0.000 C 
ATOM      2  O   UNL     1       9.145  10.230  19.525  0.00  0.00    +0.000 OA
ATOM      3  N   UNL     1       9.632  11.924  20.992  0.00  0.00    +0.000 N 
ATOM      4  C   UNL     1       8.891  11.234  22.038  0.00  0.00    +0.000 C 
ATOM      5  C   UNL     1       7.736  12.090  22.515  0.00  0.00    +0.000 C 
ATOM      6  C   UNL     1       8.267  13.420  23.007  0.00  0.00    +0.000 C 
ATOM      7  C   UNL     1       9.104  14.190  21.956  0.00  0.00    +0.000 C 
ATOM      8  C   UNL     1       8.278  14.757  20.780  0.00  0.00    +0.000 C 
ATOM      9  C   UNL     1       7.222  15.752  21.225  0.00  0.00    +0.000 C 
ATOM     10  C   UNL     1       7.672  16.769  22.259  0.00  0.00    +0.000 C 
ATOM     11  O   UNL     1       7.032  17.807  22.428  0.00  0.00    +0.000 OA
ATOM     12  N   UNL     1       8.670  16.340  23.129  0.00  0.00    +0.000 N 
ATOM     13  C   UNL     1       9.721  15.427  22.653  0.00  0.00    +0.000 C 
ATOM     14  C   UNL     1      10.190  13.247  21.375  0.00  0.00    +0.000 C 
ENDROOT
BRANCH   1  17
ATOM     15  C   UNL     1      11.208  13.085  16.924  0.00  0.00    +0.000 A 
ATOM     16  C   UNL     1      10.133  12.832  17.735  0.00  0.00    +0.000 A 
ATOM     17  C   UNL     1      10.593  11.866  18.688  0.00  0.00    +0.000 A 
ATOM     18  N   UNL     1      11.869  11.522  18.432  0.00  0.00    +0.000 NA
ATOM     19  N   UNL     1      12.225  12.317  17.412  0.00  0.00    +0.000 N 
ATOM     20  H   UNL     1      13.185  12.283  17.081  0.00  0.00    +0.000 HD
BRANCH  15  21
ATOM     21  N   UNL     1      11.361  13.887  15.857  0.00  0.00    +0.000 N 
ATOM     22  H   UNL     1      11.049  14.855  15.918  0.00  0.00    +0.000 HD
ATOM     23  H   UNL     1      11.327  13.529  14.907  0.00  0.00    +0.000 HD
ENDBRANCH  15  21
ENDBRANCH   1  17
BRANCH  12  24
ATOM     24  C   UNL     1       8.524  16.697  24.545  0.00  0.00    +0.000 C 
ATOM     25  C   UNL     1       7.516  15.840  25.314  0.00  0.00    +0.000 C 
ATOM     26  C   UNL     1       7.761  16.200  26.767  0.00  0.00    +0.000 C 
ATOM     27  C   UNL     1       9.240  16.581  26.845  0.00  0.00    +0.000 C 
ATOM     28  C   UNL     1       9.775  16.605  25.407  0.00  0.00    +0.000 C 
ENDBRANCH  12  24
TORSDOF 3
ENDMDL
MODEL 8
REMARK VINA RESULT:      -6.5      8.165     10.848
REMARK  Name = 
REMARK  3 active torsions:
REMARK  status: ('A' for Active; 'I' for Inactive)
REMARK    1  A    between atoms: N_1  and  C_2
REMARK    2  A    between atoms: C_4  and  C_5
REMARK    3  A    between atoms: N_16  and  C_17
REMARK                            x       y       z     vdW  Elec       q    Type
REMARK                         _______ _______ _______ _____ _____    ______ ____
ROOT
ATOM      1  C   UNL     1       3.129  16.286  18.972  0.00  0.00    +0.000 C 
ATOM      2  O   UNL     1       2.981  17.456  19.345  0.00  0.00    +0.000 OA
ATOM      3  N   UNL     1       2.013  15.518  18.591  0.00  0.00    +0.000 N 
ATOM      4  C   UNL     1       0.724  16.191  18.510  0.00  0.00    +0.000 C 
ATOM      5  C   UNL     1      -0.278  15.517  19.425  0.00  0.00    +0.000 C 
ATOM      6  C   UNL     1      -0.398  14.055  19.046  0.00  0.00    +0.000 C 
ATOM      7  C   UNL     1       0.947  13.288  19.067  0.00  0.00    +0.000 C 
ATOM      8  C   UNL     1       1.519  13.053  20.483  0.00  0.00    +0.000 C 
ATOM      9  C   UNL     1       0.599  12.228  21.364  0.00  0.00    +0.000 C 
ATOM     10  C   UNL     1      -0.030  11.015  20.703  0.00  0.00    +0.000 C 
ATOM     11  O   UNL     1      -0.496  10.106  21.389  0.00  0.00    +0.000 OA
ATOM     12  N   UNL     1      -0.250  11.123  19.333  0.00  0.00    +0.000 N 
ATOM     13  C   UNL     1       0.695  11.873  18.492  0.00  0.00    +0.000 C 
ATOM     14  C   UNL     1       1.999  14.074  18.243  0.00  0.00    +0.000 C 
ENDROOT
BRANCH   1  17
ATOM     15  C   UNL     1       6.362  14.781  18.195  0.00  0.00    +0.000 A 
ATOM     16  C   UNL     1       5.164  15.289  17.766  0.00  0.00    +0.000 A 
ATOM     17  C   UNL     1       4.477  15.700  18.954  0.00  0.00    +0.000 A 
ATOM     18  N   UNL     1       5.209  15.410  20.046  0.00  0.00    +0.000 NA
ATOM     19  N   UNL     1       6.356  14.921  19.553  0.00  0.00    +0.000 N 
ATOM     20  H   UNL     1       7.104  14.688  20.200  0.00  0.00    +0.000 HD
BRANCH  15  21
ATOM     21  N   UNL     1       7.398  14.239  17.533  0.00  0.00    +0.000 N 
ATOM     22  H   UNL     1       7.886  13.443  17.944  0.00  0.00    +0.000 HD
ATOM     23  H   UNL     1       8.002  14.793  16.933  0.00  0.00    +0.000 HD
ENDBRANCH  15  21
ENDBRANCH   1  17
BRANCH  12  24
ATOM     24  C   UNL     1      -1.526  10.614  18.816  0.00  0.00    +0.000 C 
ATOM     25  C   UNL     1      -2.634  11.664  18.717  0.00  0.00    +0.000 C 
ATOM     26  C   UNL     1      -3.718  10.980  17.907  0.00  0.00    +0.000 C 
ATOM     27  C   UNL     1      -2.981   9.997  16.995  0.00  0.00    +0.000 C 
ATOM     28  C   UNL     1      -1.507  10.007  17.421  0.00  0.00    +0.000 C 
ENDBRANCH  12  24
TORSDOF 3
ENDMDL
MODEL 9
REMARK VINA RESULT:      -6.5      2.850      7.741
REMARK  Name = 
REMARK  3 active torsions:
REMARK  status: ('A' for Active; 'I' for Inactive)
REMARK    1  A    between atoms: N_1  and  C_2
REMARK    2  A    between atoms: C_4  and  C_5
REMARK    3  A    between atoms: N_16  and  C_17
REMARK                            x       y       z     vdW  Elec       q    Type
REMARK                         _______ _______ _______ _____ _____    ______ ____
ROOT
ATOM      1  C   UNL     1       4.481   4.082  18.704  0.00  0.00    +0.000 C 
ATOM      2  O   UNL     1       4.231   2.934  18.319  0.00  0.00    +0.000 OA
ATOM      3  N   UNL     1       3.567   4.770  19.523  0.00  0.00    +0.000 N 
ATOM      4  C   UNL     1       2.410   4.033  20.011  0.00  0.00    +0.000 C 
ATOM      5  C   UNL     1       1.130   4.719  19.578  0.00  0.00    +0.000 C 
ATOM      6  C   UNL     1       1.128   6.144  20.089  0.00  0.00    +0.000 C 
ATOM      7  C   UNL     1       2.356   6.974  19.643  0.00  0.00    +0.000 C 
ATOM      8  C   UNL     1       2.368   7.329  18.139  0.00  0.00    +0.000 C 
ATOM      9  C   UNL     1       1.174   8.166  17.719  0.00  0.00    +0.000 C 
ATOM     10  C   UNL     1       0.806   9.302  18.656  0.00  0.00    +0.000 C 
ATOM     11  O   UNL     1       0.103  10.231  18.260  0.00  0.00    +0.000 OA
ATOM     12  N   UNL     1       1.103   9.093  20.001  0.00  0.00    +0.000 N 
ATOM     13  C   UNL     1       2.305   8.334  20.380  0.00  0.00    +0.000 C 
ATOM     14  C   UNL     1       3.652   6.186  19.965  0.00  0.00    +0.000 C 
ENDROOT
BRANCH   1  17
ATOM     15  C   UNL     1       7.131   6.178  17.321  0.00  0.00    +0.000 A 
ATOM     16  C   UNL     1       5.796   5.945  17.525  0.00  0.00    +0.000 A 
ATOM     17  C   UNL     1       5.731   4.728  18.278  0.00  0.00    +0.000 A 
ATOM     18  N   UNL     1       6.966   4.231  18.476  0.00  0.00    +0.000 NA
ATOM     19  N   UNL     1       7.782   5.155  17.947  0.00  0.00    +0.000 N 
ATOM     20  H   UNL     1       8.786   5.027  18.037  0.00  0.00    +0.000 HD
BRANCH  15  21
ATOM     21  N   UNL     1       7.784   7.155  16.670  0.00  0.00    +0.000 N 
ATOM     22  H   UNL     1       8.804   7.144  16.659  0.00  0.00    +0.000 HD
ATOM     23  H   UNL     1       7.407   8.095  16.594  0.00  0.00    +0.000 HD
ENDBRANCH  15  21
ENDBRANCH   1  17
BRANCH  12  24
ATOM     24  C   UNL     1       0.094   9.506  20.982  0.00  0.00    +0.000 C 
ATOM     25  C   UNL     1       0.298   8.926  22.383  0.00  0.00    +0.000 C 
ATOM     26  C   UNL     1      -0.667   9.713  23.251  0.00  0.00    +0.000 C 
ATOM     27  C   UNL     1      -0.789  11.082  22.581  0.00  0.00    +0.000 C 
ATOM     28  C   UNL     1      -0.033  10.999  21.248  0.00  0.00    +0.000 C 
ENDBRANCH  12  24
TORSDOF 3
ENDMDL
