MODEL 1
REMARK VINA RESULT:      -9.0      0.000      0.000
REMARK  Name = 
REMARK  15 active torsions:
REMARK  status: ('A' for Active; 'I' for Inactive)
REMARK    1  A    between atoms: C_2  and  C_3
REMARK    2  A    between atoms: C_3  and  N_4
REMARK    3  A    between atoms: N_4  and  C_5
REMARK    4  A    between atoms: N_4  and  C_18
REMARK    5  A    between atoms: C_5  and  C_6
REMARK    6  A    between atoms: C_11  and  C_12
REMARK    7  A    between atoms: C_14  and  O_15
REMARK    8  A    between atoms: C_21  and  C_22
REMARK    9  A    between atoms: N_24  and  CA_25
REMARK   10  A    between atoms: CA_25  and  C_26
REMARK   11  A    between atoms: CA_25  and  C_29
REMARK   12  A    between atoms: C_26  and  OXT_28
REMARK   13  A    between atoms: C_29  and  C_30
REMARK   14  A    between atoms: C_29  and  C_31
REMARK   15  A    between atoms: C_29  and  C_32
REMARK                            x       y       z     vdW  Elec       q    Type
REMARK                         _______ _______ _______ _____ _____    ______ ____
ROOT
ATOM      1  C   UNL     1       2.395   5.154  18.772  0.00  0.00    +0.000 A 
ATOM      2  C   UNL     1       2.310   5.553  20.122  0.00  0.00    +0.000 A 
ATOM      3  C   UNL     1       2.017   6.864  20.508  0.00  0.00    +0.000 A 
ATOM      4  C   UNL     1       1.815   7.848  19.553  0.00  0.00    +0.000 A 
ATOM      5  C   UNL     1       2.013   7.524  18.211  0.00  0.00    +0.000 A 
ATOM      6  C   UNL     1       2.306   6.198  17.835  0.00  0.00    +0.000 A 
ENDROOT
BRANCH   4   7
ATOM      7  C   UNL     1       1.415   9.211  19.999  0.00  0.00    +0.000 C 
ATOM      8  O   UNL     1       1.075   9.412  21.160  0.00  0.00    +0.000 OA
ATOM      9  N   UNL     1       1.431  10.202  19.033  0.00  0.00    +0.000 N 
ATOM     10  H   UNL     1       1.484   9.917  18.062  0.00  0.00    +0.000 HD
BRANCH   9  11
ATOM     11  CA  UNL     1       0.977  11.594  19.323  0.00  0.00    +0.000 C 
BRANCH  11  12
ATOM     12  C   UNL     1      -0.524  11.820  18.937  0.00  0.00    +0.000 C 
ATOM     13  C   UNL     1      -1.389  11.925  20.214  0.00  0.00    +0.000 C 
ATOM     14  C   UNL     1      -0.719  13.147  18.164  0.00  0.00    +0.000 C 
ATOM     15  C   UNL     1      -1.077  10.681  18.060  0.00  0.00    +0.000 C 
ENDBRANCH  11  12
BRANCH  11  16
ATOM     16  C   UNL     1       1.963  12.583  18.641  0.00  0.00    +0.000 C 
ATOM     17  O   UNL     1       2.345  13.644  19.107  0.00  0.00    +0.000 OA
BRANCH  16  18
ATOM     18  OXT UNL     1       2.403  12.144  17.434  0.00  0.00    +0.000 OA
ATOM     19  HXT UNL     1       3.239  11.656  17.571  0.00  0.00    +0.000 HD
ENDBRANCH  16  18
ENDBRANCH  11  16
ENDBRANCH   9  11
ENDBRANCH   4   7
BRANCH   1  20
ATOM     20  N   UNL     1       2.492   3.803  18.401  0.00  0.00    +0.000 N 
BRANCH  20  21
ATOM     21  C   UNL     1       1.429   2.867  18.865  0.00  0.00    +0.000 C 
BRANCH  21  23
ATOM     22  C   UNL     1       1.466   2.441  21.656  0.00  0.00    +0.000 C 
ATOM     23  C   UNL     1       1.449   2.638  20.367  0.00  0.00    +0.000 C 
ENDBRANCH  21  23
ENDBRANCH  20  21
BRANCH  20  24
ATOM     24  C   UNL     1       3.764   3.210  17.887  0.00  0.00    +0.000 C 
BRANCH  24  25
ATOM     25  C   UNL     1       4.886   4.155  17.398  0.00  0.00    +0.000 A 
ATOM     26  C   UNL     1       4.783   4.974  16.278  0.00  0.00    +0.000 A 
ATOM     27  C   UNL     1       5.655   6.064  16.067  0.00  0.00    +0.000 A 
ATOM     28  C   UNL     1       6.632   6.416  16.989  0.00  0.00    +0.000 A 
ATOM     29  N   UNL     1       7.285   7.591  16.866  0.00  0.00    +0.000 NA
ATOM     30  C   UNL     1       8.063   7.985  17.883  0.00  0.00    +0.000 A 
ATOM     31  C   UNL     1       8.584   9.398  17.870  0.00  0.00    +0.000 C 
ATOM     32  N   UNL     1       8.292   7.265  18.993  0.00  0.00    +0.000 NA
ATOM     33  C   UNL     1       7.664   6.075  19.032  0.00  0.00    +0.000 A 
ATOM     34  C   UNL     1       6.797   5.569  18.078  0.00  0.00    +0.000 A 
ATOM     35  C   UNL     1       5.990   4.397  18.236  0.00  0.00    +0.000 A 
BRANCH  33  36
ATOM     36  O   UNL     1       7.755   5.486  20.259  0.00  0.00    +0.000 OA
ATOM     37  H   UNL     1       7.074   4.797  20.162  0.00  0.00    +0.000 HD
ENDBRANCH  33  36
ENDBRANCH  24  25
ENDBRANCH  20  24
ENDBRANCH   1  20
TORSDOF 11
ENDMDL
MODEL 2
REMARK VINA RESULT:      -8.5      2.098      3.027
REMARK  Name = 
REMARK  15 active torsions:
REMARK  status: ('A' for Active; 'I' for Inactive)
REMARK    1  A    between atoms: C_2  and  C_3
REMARK    2  A    between atoms: C_3  and  N_4
REMARK    3  A    between atoms: N_4  and  C_5
REMARK    4  A    between atoms: N_4  and  C_18
REMARK    5  A    between atoms: C_5  and  C_6
REMARK    6  A    between atoms: C_11  and  C_12
REMARK    7  A    between atoms: C_14  and  O_15
REMARK    8  A    between atoms: C_21  and  C_22
REMARK    9  A    between atoms: N_24  and  CA_25
REMARK   10  A    between atoms: CA_25  and  C_26
REMARK   11  A    between atoms: CA_25  and  C_29
REMARK   12  A    between atoms: C_26  and  OXT_28
REMARK   13  A    between atoms: C_29  and  C_30
REMARK   14  A    between atoms: C_29  and  C_31
REMARK   15  A    between atoms: C_29  and  C_32
REMARK                            x       y       z     vdW  Elec       q    Type
REMARK                         _______ _______ _______ _____ _____    ______ ____
ROOT
ATOM      1  C   UNL     1       2.276   6.425  19.806  0.00  0.00    +0.000 A 
ATOM      2  C   UNL     1       1.694   7.283  20.762  0.00  0.00    +0.000 A 
ATOM      3  C   UNL     1       1.335   8.603  20.475  0.00  0.00    +0.000 A 
ATOM      4  C   UNL     1       1.562   9.135  19.216  0.00  0.00    +0.000 A 
ATOM      5  C   UNL     1       2.248   8.361  18.281  0.00  0.00    +0.000 A 
ATOM      6  C   UNL     1       2.603   7.031  18.581  0.00  0.00    +0.000 A 
ENDROOT
BRANCH   4   7
ATOM      7  C   UNL     1       1.082  10.513  18.920  0.00  0.00    +0.000 C 
ATOM      8  O   UNL     1       1.809  11.314  18.342  0.00  0.00    +0.000 OA
ATOM      9  N   UNL     1      -0.196  10.825  19.349  0.00  0.00    +0.000 N 
ATOM     10  H   UNL     1      -0.634  10.206  20.022  0.00  0.00    +0.000 HD
BRANCH   9  11
ATOM     11  CA  UNL     1      -0.771  12.193  19.189  0.00  0.00    +0.000 C 
BRANCH  11  12
ATOM     12  C   UNL     1      -0.964  12.918  20.563  0.00  0.00    +0.000 C 
ATOM     13  C   UNL     1      -1.535  11.931  21.607  0.00  0.00    +0.000 C 
ATOM     14  C   UNL     1       0.381  13.428  21.133  0.00  0.00    +0.000 C 
ATOM     15  C   UNL     1      -1.915  14.125  20.456  0.00  0.00    +0.000 C 
ENDBRANCH  11  12
BRANCH  11  16
ATOM     16  C   UNL     1      -2.069  12.082  18.342  0.00  0.00    +0.000 C 
ATOM     17  O   UNL     1      -3.188  11.864  18.779  0.00  0.00    +0.000 OA
BRANCH  16  18
ATOM     18  OXT UNL     1      -1.855  12.275  17.016  0.00  0.00    +0.000 OA
ATOM     19  HXT UNL     1      -1.381  11.494  16.665  0.00  0.00    +0.000 HD
ENDBRANCH  16  18
ENDBRANCH  11  16
ENDBRANCH   9  11
ENDBRANCH   4   7
BRANCH   1  20
ATOM     20  N   UNL     1       2.447   5.052  20.047  0.00  0.00    +0.000 N 
BRANCH  20  21
ATOM     21  C   UNL     1       1.280   4.274  20.548  0.00  0.00    +0.000 C 
BRANCH  21  23
ATOM     22  C   UNL     1       0.565   2.131  18.853  0.00  0.00    +0.000 C 
ATOM     23  C   UNL     1       0.896   3.121  19.636  0.00  0.00    +0.000 C 
ENDBRANCH  21  23
ENDBRANCH  20  21
BRANCH  20  24
ATOM     24  C   UNL     1       3.801   4.430  20.169  0.00  0.00    +0.000 C 
BRANCH  24  25
ATOM     25  C   UNL     1       4.534   3.977  18.884  0.00  0.00    +0.000 A 
ATOM     26  C   UNL     1       3.962   3.176  17.901  0.00  0.00    +0.000 A 
ATOM     27  C   UNL     1       4.511   3.079  16.605  0.00  0.00    +0.000 A 
ATOM     28  C   UNL     1       5.622   3.816  16.216  0.00  0.00    +0.000 A 
ATOM     29  N   UNL     1       5.973   3.875  14.914  0.00  0.00    +0.000 NA
ATOM     30  C   UNL     1       6.915   4.758  14.558  0.00  0.00    +0.000 A 
ATOM     31  C   UNL     1       7.128   5.014  13.089  0.00  0.00    +0.000 C 
ATOM     32  N   UNL     1       7.584   5.548  15.413  0.00  0.00    +0.000 NA
ATOM     33  C   UNL     1       7.235   5.402  16.705  0.00  0.00    +0.000 A 
ATOM     34  C   UNL     1       6.249   4.567  17.203  0.00  0.00    +0.000 A 
ATOM     35  C   UNL     1       5.762   4.577  18.550  0.00  0.00    +0.000 A 
BRANCH  33  36
ATOM     36  O   UNL     1       7.782   6.368  17.498  0.00  0.00    +0.000 OA
ATOM     37  H   UNL     1       7.084   6.444  18.172  0.00  0.00    +0.000 HD
ENDBRANCH  33  36
ENDBRANCH  24  25
ENDBRANCH  20  24
ENDBRANCH   1  20
TORSDOF 11
ENDMDL
MODEL 3
REMARK VINA RESULT:      -8.5      0.600      1.098
REMARK  Name = 
REMARK  15 active torsions:
REMARK  status: ('A' for Active; 'I' for Inactive)
REMARK    1  A    between atoms: C_2  and  C_3
REMARK    2  A    between atoms: C_3  and  N_4
REMARK    3  A    between atoms: N_4  and  C_5
REMARK    4  A    between atoms: N_4  and  C_18
REMARK    5  A    between atoms: C_5  and  C_6
REMARK    6  A    between atoms: C_11  and  C_12
REMARK    7  A    between atoms: C_14  and  O_15
REMARK    8  A    between atoms: C_21  and  C_22
REMARK    9  A    between atoms: N_24  and  CA_25
REMARK   10  A    between atoms: CA_25  and  C_26
REMARK   11  A    between atoms: CA_25  and  C_29
REMARK   12  A    between atoms: C_26  and  OXT_28
REMARK   13  A    between atoms: C_29  and  C_30
REMARK   14  A    between atoms: C_29  and  C_31
REMARK   15  A    between atoms: C_29  and  C_32
REMARK                            x       y       z     vdW  Elec       q    Type
REMARK                         _______ _______ _______ _____ _____    ______ ____
ROOT
ATOM      1  C   UNL     1       2.523   5.007  18.648  0.00  0.00    +0.000 A 
ATOM      2  C   UNL     1       2.816   5.395  19.972  0.00  0.00    +0.000 A 
ATOM      3  C   UNL     1       2.474   6.649  20.486  0.00  0.00    +0.000 A 
ATOM      4  C   UNL     1       1.837   7.585  19.689  0.00  0.00    +0.000 A 
ATOM      5  C   UNL     1       1.641   7.288  18.340  0.00  0.00    +0.000 A 
ATOM      6  C   UNL     1       1.988   6.020  17.834  0.00  0.00    +0.000 A 
ENDROOT
BRANCH   4   7
ATOM      7  C   UNL     1       1.405   8.874  20.297  0.00  0.00    +0.000 C 
ATOM      8  O   UNL     1       1.444   9.033  21.512  0.00  0.00    +0.000 OA
ATOM      9  N   UNL     1       0.950   9.845  19.421  0.00  0.00    +0.000 N 
ATOM     10  H   UNL     1       0.720   9.560  18.477  0.00  0.00    +0.000 HD
BRANCH   9  11
ATOM     11  CA  UNL     1       0.413  11.152  19.902  0.00  0.00    +0.000 C 
BRANCH  11  12
ATOM     12  C   UNL     1      -0.860  11.597  19.106  0.00  0.00    +0.000 C 
ATOM     13  C   UNL     1      -0.538  12.842  18.247  0.00  0.00    +0.000 C 
ATOM     14  C   UNL     1      -1.331  10.498  18.124  0.00  0.00    +0.000 C 
ATOM     15  C   UNL     1      -2.041  11.932  20.036  0.00  0.00    +0.000 C 
ENDBRANCH  11  12
BRANCH  11  16
ATOM     16  C   UNL     1       1.568  12.191  19.884  0.00  0.00    +0.000 C 
ATOM     17  O   UNL     1       2.330  12.394  18.952  0.00  0.00    +0.000 OA
BRANCH  16  18
ATOM     18  OXT UNL     1       1.656  12.905  21.035  0.00  0.00    +0.000 OA
ATOM     19  HXT UNL     1       0.891  12.673  21.599  0.00  0.00    +0.000 HD
ENDBRANCH  16  18
ENDBRANCH  11  16
ENDBRANCH   9  11
ENDBRANCH   4   7
BRANCH   1  20
ATOM     20  N   UNL     1       2.692   3.684  18.207  0.00  0.00    +0.000 N 
BRANCH  20  21
ATOM     21  C   UNL     1       1.670   2.675  18.600  0.00  0.00    +0.000 C 
BRANCH  21  23
ATOM     22  C   UNL     1       1.270   2.529  21.392  0.00  0.00    +0.000 C 
ATOM     23  C   UNL     1       1.454   2.597  20.102  0.00  0.00    +0.000 C 
ENDBRANCH  21  23
ENDBRANCH  20  21
BRANCH  20  24
ATOM     24  C   UNL     1       4.000   3.182  17.685  0.00  0.00    +0.000 C 
BRANCH  24  25
ATOM     25  C   UNL     1       5.075   4.206  17.252  0.00  0.00    +0.000 A 
ATOM     26  C   UNL     1       4.922   5.098  16.195  0.00  0.00    +0.000 A 
ATOM     27  C   UNL     1       5.746   6.235  16.053  0.00  0.00    +0.000 A 
ATOM     28  C   UNL     1       6.722   6.560  16.985  0.00  0.00    +0.000 A 
ATOM     29  N   UNL     1       7.325   7.767  16.940  0.00  0.00    +0.000 NA
ATOM     30  C   UNL     1       8.101   8.120  17.973  0.00  0.00    +0.000 A 
ATOM     31  C   UNL     1       8.564   9.551  18.056  0.00  0.00    +0.000 C 
ATOM     32  N   UNL     1       8.376   7.332  19.025  0.00  0.00    +0.000 NA
ATOM     33  C   UNL     1       7.797   6.118  18.986  0.00  0.00    +0.000 A 
ATOM     34  C   UNL     1       6.938   5.646  18.009  0.00  0.00    +0.000 A 
ATOM     35  C   UNL     1       6.181   4.432  18.091  0.00  0.00    +0.000 A 
BRANCH  33  36
ATOM     36  O   UNL     1       7.931   5.446  20.166  0.00  0.00    +0.000 OA
ATOM     37  H   UNL     1       8.897   5.328  20.180  0.00  0.00    +0.000 HD
ENDBRANCH  33  36
ENDBRANCH  24  25
ENDBRANCH  20  24
ENDBRANCH   1  20
TORSDOF 11
ENDMDL
MODEL 4
REMARK VINA RESULT:      -8.5      2.266      3.394
REMARK  Name = 
REMARK  15 active torsions:
REMARK  status: ('A' for Active; 'I' for Inactive)
REMARK    1  A    between atoms: C_2  and  C_3
REMARK    2  A    between atoms: C_3  and  N_4
REMARK    3  A    between atoms: N_4  and  C_5
REMARK    4  A    between atoms: N_4  and  C_18
REMARK    5  A    between atoms: C_5  and  C_6
REMARK    6  A    between atoms: C_11  and  C_12
REMARK    7  A    between atoms: C_14  and  O_15
REMARK    8  A    between atoms: C_21  and  C_22
REMARK    9  A    between atoms: N_24  and  CA_25
REMARK   10  A    between atoms: CA_25  and  C_26
REMARK   11  A    between atoms: CA_25  and  C_29
REMARK   12  A    between atoms: C_26  and  OXT_28
REMARK   13  A    between atoms: C_29  and  C_30
REMARK   14  A    between atoms: C_29  and  C_31
REMARK   15  A    between atoms: C_29  and  C_32
REMARK                            x       y       z     vdW  Elec       q    Type
REMARK                         _______ _______ _______ _____ _____    ______ ____
ROOT
ATOM      1  C   UNL     1       2.129   7.194  19.509  0.00  0.00    +0.000 A 
ATOM      2  C   UNL     1       1.542   7.966  20.533  0.00  0.00    +0.000 A 
ATOM      3  C   UNL     1       1.060   9.262  20.323  0.00  0.00    +0.000 A 
ATOM      4  C   UNL     1       1.162   9.855  19.076  0.00  0.00    +0.000 A 
ATOM      5  C   UNL     1       1.847   9.175  18.069  0.00  0.00    +0.000 A 
ATOM      6  C   UNL     1       2.326   7.868  18.292  0.00  0.00    +0.000 A 
ENDROOT
BRANCH   4   7
ATOM      7  C   UNL     1       0.556  11.198  18.867  0.00  0.00    +0.000 C 
ATOM      8  O   UNL     1      -0.548  11.309  18.343  0.00  0.00    +0.000 OA
ATOM      9  N   UNL     1       1.313  12.284  19.273  0.00  0.00    +0.000 N 
ATOM     10  H   UNL     1       2.295  12.131  19.465  0.00  0.00    +0.000 HD
BRANCH   9  11
ATOM     11  CA  UNL     1       0.860  13.689  19.049  0.00  0.00    +0.000 C 
BRANCH  11  12
ATOM     12  C   UNL     1       2.042  14.713  19.141  0.00  0.00    +0.000 C 
ATOM     13  C   UNL     1       1.491  16.158  19.143  0.00  0.00    +0.000 C 
ATOM     14  C   UNL     1       2.838  14.546  20.458  0.00  0.00    +0.000 C 
ATOM     15  C   UNL     1       3.033  14.565  17.972  0.00  0.00    +0.000 C 
ENDBRANCH  11  12
BRANCH  11  16
ATOM     16  C   UNL     1      -0.313  13.986  20.023  0.00  0.00    +0.000 C 
ATOM     17  O   UNL     1      -0.225  14.083  21.237  0.00  0.00    +0.000 OA
BRANCH  16  18
ATOM     18  OXT UNL     1      -1.500  14.157  19.387  0.00  0.00    +0.000 OA
ATOM     19  HXT UNL     1      -2.154  13.552  19.790  0.00  0.00    +0.000 HD
ENDBRANCH  16  18
ENDBRANCH  11  16
ENDBRANCH   9  11
ENDBRANCH   4   7
BRANCH   1  20
ATOM     20  N   UNL     1       2.424   5.832  19.683  0.00  0.00    +0.000 N 
BRANCH  20  21
ATOM     21  C   UNL     1       1.312   4.910  20.047  0.00  0.00    +0.000 C 
BRANCH  21  23
ATOM     22  C   UNL     1       2.127   2.813  21.754  0.00  0.00    +0.000 C 
ATOM     23  C   UNL     1       1.750   3.781  20.966  0.00  0.00    +0.000 C 
ENDBRANCH  21  23
ENDBRANCH  20  21
BRANCH  20  24
ATOM     24  C   UNL     1       3.824   5.341  19.871  0.00  0.00    +0.000 C 
BRANCH  24  25
ATOM     25  C   UNL     1       4.533   4.636  18.691  0.00  0.00    +0.000 A 
ATOM     26  C   UNL     1       3.957   3.628  17.925  0.00  0.00    +0.000 A 
ATOM     27  C   UNL     1       4.473   3.262  16.663  0.00  0.00    +0.000 A 
ATOM     28  C   UNL     1       5.551   3.921  16.087  0.00  0.00    +0.000 A 
ATOM     29  N   UNL     1       5.864   3.702  14.793  0.00  0.00    +0.000 NA
ATOM     30  C   UNL     1       6.771   4.507  14.223  0.00  0.00    +0.000 A 
ATOM     31  C   UNL     1       6.936   4.441  12.727  0.00  0.00    +0.000 C 
ATOM     32  N   UNL     1       7.440   5.479  14.863  0.00  0.00    +0.000 NA
ATOM     33  C   UNL     1       7.132   5.609  16.167  0.00  0.00    +0.000 A 
ATOM     34  C   UNL     1       6.183   4.883  16.866  0.00  0.00    +0.000 A 
ATOM     35  C   UNL     1       5.734   5.175  18.194  0.00  0.00    +0.000 A 
BRANCH  33  36
ATOM     36  O   UNL     1       7.673   6.737  16.712  0.00  0.00    +0.000 OA
ATOM     37  H   UNL     1       8.506   6.779  16.210  0.00  0.00    +0.000 HD
ENDBRANCH  33  36
ENDBRANCH  24  25
ENDBRANCH  20  24
ENDBRANCH   1  20
TORSDOF 11
ENDMDL
MODEL 5
REMARK VINA RESULT:      -8.2      0.938      1.278
REMARK  Name = 
REMARK  15 active torsions:
REMARK  status: ('A' for Active; 'I' for Inactive)
REMARK    1  A    between atoms: C_2  and  C_3
REMARK    2  A    between atoms: C_3  and  N_4
REMARK    3  A    between atoms: N_4  and  C_5
REMARK    4  A    between atoms: N_4  and  C_18
REMARK    5  A    between atoms: C_5  and  C_6
REMARK    6  A    between atoms: C_11  and  C_12
REMARK    7  A    between atoms: C_14  and  O_15
REMARK    8  A    between atoms: C_21  and  C_22
REMARK    9  A    between atoms: N_24  and  CA_25
REMARK   10  A    between atoms: CA_25  and  C_26
REMARK   11  A    between atoms: CA_25  and  C_29
REMARK   12  A    between atoms: C_26  and  OXT_28
REMARK   13  A    between atoms: C_29  and  C_30
REMARK   14  A    between atoms: C_29  and  C_31
REMARK   15  A    between atoms: C_29  and  C_32
REMARK                            x       y       z     vdW  Elec       q    Type
REMARK                         _______ _______ _______ _____ _____    ______ ____
ROOT
ATOM      1  C   UNL     1       2.278   4.661  18.860  0.00  0.00    +0.000 A 
ATOM      2  C   UNL     1       2.410   5.779  18.012  0.00  0.00    +0.000 A 
ATOM      3  C   UNL     1       2.164   7.087  18.438  0.00  0.00    +0.000 A 
ATOM      4  C   UNL     1       1.752   7.335  19.737  0.00  0.00    +0.000 A 
ATOM      5  C   UNL     1       1.489   6.249  20.572  0.00  0.00    +0.000 A 
ATOM      6  C   UNL     1       1.745   4.935  20.131  0.00  0.00    +0.000 A 
ENDROOT
BRANCH   4   7
ATOM      7  C   UNL     1       1.589   8.746  20.183  0.00  0.00    +0.000 C 
ATOM      8  O   UNL     1       1.806   9.060  21.349  0.00  0.00    +0.000 OA
ATOM      9  N   UNL     1       1.166   9.649  19.223  0.00  0.00    +0.000 N 
ATOM     10  H   UNL     1       0.778   9.279  18.363  0.00  0.00    +0.000 HD
BRANCH   9  11
ATOM     11  CA  UNL     1       0.885  11.078  19.552  0.00  0.00    +0.000 C 
BRANCH  11  12
ATOM     12  C   UNL     1      -0.602  11.471  19.257  0.00  0.00    +0.000 C 
ATOM     13  C   UNL     1      -1.329  11.817  20.577  0.00  0.00    +0.000 C 
ATOM     14  C   UNL     1      -0.691  12.733  18.364  0.00  0.00    +0.000 C 
ATOM     15  C   UNL     1      -1.375  10.342  18.551  0.00  0.00    +0.000 C 
ENDBRANCH  11  12
BRANCH  11  16
ATOM     16  C   UNL     1       1.932  11.963  18.820  0.00  0.00    +0.000 C 
ATOM     17  O   UNL     1       2.403  13.007  19.244  0.00  0.00    +0.000 OA
BRANCH  16  18
ATOM     18  OXT UNL     1       2.313  11.452  17.622  0.00  0.00    +0.000 OA
ATOM     19  HXT UNL     1       3.124  10.922  17.759  0.00  0.00    +0.000 HD
ENDBRANCH  16  18
ENDBRANCH  11  16
ENDBRANCH   9  11
ENDBRANCH   4   7
BRANCH   1  20
ATOM     20  N   UNL     1       2.718   3.383  18.479  0.00  0.00    +0.000 N 
BRANCH  20  21
ATOM     21  C   UNL     1       2.713   2.301  19.502  0.00  0.00    +0.000 C 
BRANCH  21  23
ATOM     22  C   UNL     1       5.224   1.934  20.742  0.00  0.00    +0.000 C 
ATOM     23  C   UNL     1       4.065   2.104  20.170  0.00  0.00    +0.000 C 
ENDBRANCH  21  23
ENDBRANCH  20  21
BRANCH  20  24
ATOM     24  C   UNL     1       3.510   3.155  17.231  0.00  0.00    +0.000 C 
BRANCH  24  25
ATOM     25  C   UNL     1       4.684   4.108  16.906  0.00  0.00    +0.000 A 
ATOM     26  C   UNL     1       4.680   5.020  15.857  0.00  0.00    +0.000 A 
ATOM     27  C   UNL     1       5.588   6.100  15.803  0.00  0.00    +0.000 A 
ATOM     28  C   UNL     1       6.502   6.347  16.819  0.00  0.00    +0.000 A 
ATOM     29  N   UNL     1       7.186   7.510  16.844  0.00  0.00    +0.000 NA
ATOM     30  C   UNL     1       7.896   7.796  17.944  0.00  0.00    +0.000 A 
ATOM     31  C   UNL     1       8.445   9.191  18.091  0.00  0.00    +0.000 C 
ATOM     32  N   UNL     1       8.028   6.979  19.002  0.00  0.00    +0.000 NA
ATOM     33  C   UNL     1       7.374   5.807  18.893  0.00  0.00    +0.000 A 
ATOM     34  C   UNL     1       6.569   5.407  17.840  0.00  0.00    +0.000 A 
ATOM     35  C   UNL     1       5.729   4.248  17.838  0.00  0.00    +0.000 A 
BRANCH  33  36
ATOM     36  O   UNL     1       7.363   5.115  20.068  0.00  0.00    +0.000 OA
ATOM     37  H   UNL     1       7.532   4.217  19.732  0.00  0.00    +0.000 HD
ENDBRANCH  33  36
ENDBRANCH  24  25
ENDBRANCH  20  24
ENDBRANCH   1  20
TORSDOF 11
ENDMDL
MODEL 6
REMARK VINA RESULT:      -8.2      0.885      1.060
REMARK  Name = 
REMARK  15 active torsions:
REMARK  status: ('A' for Active; 'I' for Inactive)
REMARK    1  A    between atoms: C_2  and  C_3
REMARK    2  A    between atoms: C_3  and  N_4
REMARK    3  A    between atoms: N_4  and  C_5
REMARK    4  A    between atoms: N_4  and  C_18
REMARK    5  A    between atoms: C_5  and  C_6
REMARK    6  A    between atoms: C_11  and  C_12
REMARK    7  A    between atoms: C_14  and  O_15
REMARK    8  A    between atoms: C_21  and  C_22
REMARK    9  A    between atoms: N_24  and  CA_25
REMARK   10  A    between atoms: CA_25  and  C_26
REMARK   11  A    between atoms: CA_25  and  C_29
REMARK   12  A    between atoms: C_26  and  OXT_28
REMARK   13  A    between atoms: C_29  and  C_30
REMARK   14  A    between atoms: C_29  and  C_31
REMARK   15  A    between atoms: C_29  and  C_32
REMARK                            x       y       z     vdW  Elec       q    Type
REMARK                         _______ _______ _______ _____ _____    ______ ____
ROOT
ATOM      1  C   UNL     1       2.615   5.133  18.988  0.00  0.00    +0.000 A 
ATOM      2  C   UNL     1       2.290   5.427  20.328  0.00  0.00    +0.000 A 
ATOM      3  C   UNL     1       1.852   6.688  20.742  0.00  0.00    +0.000 A 
ATOM      4  C   UNL     1       1.737   7.725  19.831  0.00  0.00    +0.000 A 
ATOM      5  C   UNL     1       2.166   7.511  18.521  0.00  0.00    +0.000 A 
ATOM      6  C   UNL     1       2.603   6.234  18.115  0.00  0.00    +0.000 A 
ENDROOT
BRANCH   4   7
ATOM      7  C   UNL     1       1.180   9.027  20.289  0.00  0.00    +0.000 C 
ATOM      8  O   UNL     1       0.686   9.134  21.407  0.00  0.00    +0.000 OA
ATOM      9  N   UNL     1       1.239  10.073  19.385  0.00  0.00    +0.000 N 
ATOM     10  H   UNL     1       1.432   9.851  18.416  0.00  0.00    +0.000 HD
BRANCH   9  11
ATOM     11  CA  UNL     1       0.645  11.410  19.685  0.00  0.00    +0.000 C 
BRANCH  11  12
ATOM     12  C   UNL     1      -0.734  11.618  18.973  0.00  0.00    +0.000 C 
ATOM     13  C   UNL     1      -1.852  11.792  20.026  0.00  0.00    +0.000 C 
ATOM     14  C   UNL     1      -0.741  12.903  18.110  0.00  0.00    +0.000 C 
ATOM     15  C   UNL     1      -1.101  10.436  18.056  0.00  0.00    +0.000 C 
ENDBRANCH  11  12
BRANCH  11  16
ATOM     16  C   UNL     1       1.702  12.500  19.351  0.00  0.00    +0.000 C 
ATOM     17  O   UNL     1       2.426  12.512  18.369  0.00  0.00    +0.000 OA
BRANCH  16  18
ATOM     18  OXT UNL     1       1.745  13.495  20.273  0.00  0.00    +0.000 OA
ATOM     19  HXT UNL     1       0.970  13.402  20.862  0.00  0.00    +0.000 HD
ENDBRANCH  16  18
ENDBRANCH  11  16
ENDBRANCH   9  11
ENDBRANCH   4   7
BRANCH   1  20
ATOM     20  N   UNL     1       2.860   3.819  18.554  0.00  0.00    +0.000 N 
BRANCH  20  21
ATOM     21  C   UNL     1       2.597   2.702  19.504  0.00  0.00    +0.000 C 
BRANCH  21  23
ATOM     22  C   UNL     1       4.950   1.652  20.660  0.00  0.00    +0.000 C 
ATOM     23  C   UNL     1       3.863   2.137  20.126  0.00  0.00    +0.000 C 
ENDBRANCH  21  23
ENDBRANCH  20  21
BRANCH  20  24
ATOM     24  C   UNL     1       3.692   3.524  17.347  0.00  0.00    +0.000 C 
BRANCH  24  25
ATOM     25  C   UNL     1       4.883   4.452  17.015  0.00  0.00    +0.000 A 
ATOM     26  C   UNL     1       4.893   5.365  15.966  0.00  0.00    +0.000 A 
ATOM     27  C   UNL     1       5.823   6.425  15.907  0.00  0.00    +0.000 A 
ATOM     28  C   UNL     1       6.748   6.652  16.917  0.00  0.00    +0.000 A 
ATOM     29  N   UNL     1       7.457   7.800  16.939  0.00  0.00    +0.000 NA
ATOM     30  C   UNL     1       8.178   8.071  18.034  0.00  0.00    +0.000 A 
ATOM     31  C   UNL     1       8.758   9.454  18.177  0.00  0.00    +0.000 C 
ATOM     32  N   UNL     1       8.299   7.252  19.091  0.00  0.00    +0.000 NA
ATOM     33  C   UNL     1       7.621   6.094  18.986  0.00  0.00    +0.000 A 
ATOM     34  C   UNL     1       6.801   5.711  17.938  0.00  0.00    +0.000 A 
ATOM     35  C   UNL     1       5.937   4.570  17.941  0.00  0.00    +0.000 A 
BRANCH  33  36
ATOM     36  O   UNL     1       7.602   5.402  20.161  0.00  0.00    +0.000 OA
ATOM     37  H   UNL     1       8.358   4.806  20.013  0.00  0.00    +0.000 HD
ENDBRANCH  33  36
ENDBRANCH  24  25
ENDBRANCH  20  24
ENDBRANCH   1  20
TORSDOF 11
ENDMDL
MODEL 7
REMARK VINA RESULT:      -8.2      2.502      3.573
REMARK  Name = 
REMARK  15 active torsions:
REMARK  status: ('A' for Active; 'I' for Inactive)
REMARK    1  A    between atoms: C_2  and  C_3
REMARK    2  A    between atoms: C_3  and  N_4
REMARK    3  A    between atoms: N_4  and  C_5
REMARK    4  A    between atoms: N_4  and  C_18
REMARK    5  A    between atoms: C_5  and  C_6
REMARK    6  A    between atoms: C_11  and  C_12
REMARK    7  A    between atoms: C_14  and  O_15
REMARK    8  A    between atoms: C_21  and  C_22
REMARK    9  A    between atoms: N_24  and  CA_25
REMARK   10  A    between atoms: CA_25  and  C_26
REMARK   11  A    between atoms: CA_25  and  C_29
REMARK   12  A    between atoms: C_26  and  OXT_28
REMARK   13  A    between atoms: C_29  and  C_30
REMARK   14  A    between atoms: C_29  and  C_31
REMARK   15  A    between atoms: C_29  and  C_32
REMARK                            x       y       z     vdW  Elec       q    Type
REMARK                         _______ _______ _______ _____ _____    ______ ____
ROOT
ATOM      1  C   UNL     1       2.059   7.238  19.605  0.00  0.00    +0.000 A 
ATOM      2  C   UNL     1       1.496   7.907  20.711  0.00  0.00    +0.000 A 
ATOM      3  C   UNL     1       0.924   9.179  20.616  0.00  0.00    +0.000 A 
ATOM      4  C   UNL     1       0.908   9.853  19.405  0.00  0.00    +0.000 A 
ATOM      5  C   UNL     1       1.565   9.281  18.316  0.00  0.00    +0.000 A 
ATOM      6  C   UNL     1       2.135   7.996  18.424  0.00  0.00    +0.000 A 
ENDROOT
BRANCH   4   7
ATOM      7  C   UNL     1       0.209  11.164  19.322  0.00  0.00    +0.000 C 
ATOM      8  O   UNL     1       0.692  12.087  18.673  0.00  0.00    +0.000 OA
ATOM      9  N   UNL     1      -0.978  11.275  20.024  0.00  0.00    +0.000 N 
ATOM     10  H   UNL     1      -1.183  10.568  20.721  0.00  0.00    +0.000 HD
BRANCH   9  11
ATOM     11  CA  UNL     1      -1.739  12.557  20.092  0.00  0.00    +0.000 C 
BRANCH  11  12
ATOM     12  C   UNL     1      -1.713  13.186  21.525  0.00  0.00    +0.000 C 
ATOM     13  C   UNL     1      -2.505  12.294  22.509  0.00  0.00    +0.000 C 
ATOM     14  C   UNL     1      -0.271  13.278  22.081  0.00  0.00    +0.000 C 
ATOM     15  C   UNL     1      -2.316  14.603  21.551  0.00  0.00    +0.000 C 
ENDBRANCH  11  12
BRANCH  11  16
ATOM     16  C   UNL     1      -3.169  12.307  19.535  0.00  0.00    +0.000 C 
ATOM     17  O   UNL     1      -4.180  12.899  19.878  0.00  0.00    +0.000 OA
BRANCH  16  18
ATOM     18  OXT UNL     1      -3.204  11.345  18.579  0.00  0.00    +0.000 OA
ATOM     19  HXT UNL     1      -3.117  11.777  17.706  0.00  0.00    +0.000 HD
ENDBRANCH  16  18
ENDBRANCH  11  16
ENDBRANCH   9  11
ENDBRANCH   4   7
BRANCH   1  20
ATOM     20  N   UNL     1       2.448   5.890  19.670  0.00  0.00    +0.000 N 
BRANCH  20  21
ATOM     21  C   UNL     1       1.402   4.869  19.959  0.00  0.00    +0.000 C 
BRANCH  21  23
ATOM     22  C   UNL     1       2.266   2.878  21.766  0.00  0.00    +0.000 C 
ATOM     23  C   UNL     1       1.867   3.797  20.931  0.00  0.00    +0.000 C 
ENDBRANCH  21  23
ENDBRANCH  20  21
BRANCH  20  24
ATOM     24  C   UNL     1       3.878   5.482  19.822  0.00  0.00    +0.000 C 
BRANCH  24  25
ATOM     25  C   UNL     1       4.570   4.734  18.658  0.00  0.00    +0.000 A 
ATOM     26  C   UNL     1       3.979   3.705  17.933  0.00  0.00    +0.000 A 
ATOM     27  C   UNL     1       4.477   3.296  16.677  0.00  0.00    +0.000 A 
ATOM     28  C   UNL     1       5.552   3.929  16.068  0.00  0.00    +0.000 A 
ATOM     29  N   UNL     1       5.849   3.666  14.777  0.00  0.00    +0.000 NA
ATOM     30  C   UNL     1       6.753   4.446  14.170  0.00  0.00    +0.000 A 
ATOM     31  C   UNL     1       6.899   4.331  12.675  0.00  0.00    +0.000 C 
ATOM     32  N   UNL     1       7.435   5.435  14.771  0.00  0.00    +0.000 NA
ATOM     33  C   UNL     1       7.142   5.610  16.073  0.00  0.00    +0.000 A 
ATOM     34  C   UNL     1       6.199   4.912  16.807  0.00  0.00    +0.000 A 
ATOM     35  C   UNL     1       5.767   5.250  18.130  0.00  0.00    +0.000 A 
BRANCH  33  36
ATOM     36  O   UNL     1       7.696   6.752  16.574  0.00  0.00    +0.000 OA
ATOM     37  H   UNL     1       6.887   7.228  16.831  0.00  0.00    +0.000 HD
ENDBRANCH  33  36
ENDBRANCH  24  25
ENDBRANCH  20  24
ENDBRANCH   1  20
TORSDOF 11
ENDMDL
MODEL 8
REMARK VINA RESULT:      -8.1      3.322     10.130
REMARK  Name = 
REMARK  15 active torsions:
REMARK  status: ('A' for Active; 'I' for Inactive)
REMARK    1  A    between atoms: C_2  and  C_3
REMARK    2  A    between atoms: C_3  and  N_4
REMARK    3  A    between atoms: N_4  and  C_5
REMARK    4  A    between atoms: N_4  and  C_18
REMARK    5  A    between atoms: C_5  and  C_6
REMARK    6  A    between atoms: C_11  and  C_12
REMARK    7  A    between atoms: C_14  and  O_15
REMARK    8  A    between atoms: C_21  and  C_22
REMARK    9  A    between atoms: N_24  and  CA_25
REMARK   10  A    between atoms: CA_25  and  C_26
REMARK   11  A    between atoms: CA_25  and  C_29
REMARK   12  A    between atoms: C_26  and  OXT_28
REMARK   13  A    between atoms: C_29  and  C_30
REMARK   14  A    between atoms: C_29  and  C_31
REMARK   15  A    between atoms: C_29  and  C_32
REMARK                            x       y       z     vdW  Elec       q    Type
REMARK                         _______ _______ _______ _____ _____    ______ ____
ROOT
ATOM      1  C   UNL     1       1.118  10.067  19.270  0.00  0.00    +0.000 A 
ATOM      2  C   UNL     1       1.167   9.153  20.342  0.00  0.00    +0.000 A 
ATOM      3  C   UNL     1       1.775   7.898  20.240  0.00  0.00    +0.000 A 
ATOM      4  C   UNL     1       2.347   7.490  19.046  0.00  0.00    +0.000 A 
ATOM      5  C   UNL     1       2.211   8.312  17.927  0.00  0.00    +0.000 A 
ATOM      6  C   UNL     1       1.598   9.576  18.044  0.00  0.00    +0.000 A 
ENDROOT
BRANCH   4   7
ATOM      7  C   UNL     1       3.065   6.187  19.001  0.00  0.00    +0.000 C 
ATOM      8  O   UNL     1       3.115   5.469  19.994  0.00  0.00    +0.000 OA
ATOM      9  N   UNL     1       3.674   5.862  17.801  0.00  0.00    +0.000 N 
ATOM     10  H   UNL     1       3.797   6.600  17.117  0.00  0.00    +0.000 HD
BRANCH   9  11
ATOM     11  CA  UNL     1       4.494   4.625  17.642  0.00  0.00    +0.000 C 
BRANCH  11  12
ATOM     12  C   UNL     1       5.573   4.771  16.516  0.00  0.00    +0.000 C 
ATOM     13  C   UNL     1       6.986   4.824  17.142  0.00  0.00    +0.000 C 
ATOM     14  C   UNL     1       5.564   3.557  15.557  0.00  0.00    +0.000 C 
ATOM     15  C   UNL     1       5.362   6.039  15.668  0.00  0.00    +0.000 C 
ENDBRANCH  11  12
BRANCH  11  16
ATOM     16  C   UNL     1       3.530   3.422  17.443  0.00  0.00    +0.000 C 
ATOM     17  O   UNL     1       2.468   3.452  16.842  0.00  0.00    +0.000 OA
BRANCH  16  18
ATOM     18  OXT UNL     1       3.994   2.275  18.001  0.00  0.00    +0.000 OA
ATOM     19  HXT UNL     1       4.358   2.488  18.883  0.00  0.00    +0.000 HD
ENDBRANCH  16  18
ENDBRANCH  11  16
ENDBRANCH   9  11
ENDBRANCH   4   7
BRANCH   1  20
ATOM     20  N   UNL     1       0.685  11.392  19.442  0.00  0.00    +0.000 N 
BRANCH  20  21
ATOM     21  C   UNL     1       1.418  12.473  18.725  0.00  0.00    +0.000 C 
BRANCH  21  23
ATOM     22  C   UNL     1       0.061  14.949  18.766  0.00  0.00    +0.000 C 
ATOM     23  C   UNL     1       0.688  13.806  18.748  0.00  0.00    +0.000 C 
ENDBRANCH  21  23
ENDBRANCH  20  21
BRANCH  20  24
ATOM     24  C   UNL     1      -0.220  11.792  20.564  0.00  0.00    +0.000 C 
BRANCH  24  25
ATOM     25  C   UNL     1      -1.748  11.795  20.327  0.00  0.00    +0.000 A 
ATOM     26  C   UNL     1      -2.656  12.512  21.099  0.00  0.00    +0.000 A 
ATOM     27  C   UNL     1      -3.968  12.780  20.653  0.00  0.00    +0.000 A 
ATOM     28  C   UNL     1      -4.414  12.390  19.398  0.00  0.00    +0.000 A 
ATOM     29  N   UNL     1      -5.585  12.863  18.920  0.00  0.00    +0.000 NA
ATOM     30  C   UNL     1      -5.875  12.632  17.633  0.00  0.00    +0.000 A 
ATOM     31  C   UNL     1      -7.041  13.368  17.025  0.00  0.00    +0.000 C 
ATOM     32  N   UNL     1      -5.114  11.908  16.796  0.00  0.00    +0.000 NA
ATOM     33  C   UNL     1      -3.991  11.410  17.345  0.00  0.00    +0.000 A 
ATOM     34  C   UNL     1      -3.547  11.612  18.640  0.00  0.00    +0.000 A 
ATOM     35  C   UNL     1      -2.257  11.240  19.138  0.00  0.00    +0.000 A 
BRANCH  33  36
ATOM     36  O   UNL     1      -3.157  10.872  16.409  0.00  0.00    +0.000 OA
ATOM     37  H   UNL     1      -2.637  10.275  16.975  0.00  0.00    +0.000 HD
ENDBRANCH  33  36
ENDBRANCH  24  25
ENDBRANCH  20  24
ENDBRANCH   1  20
TORSDOF 11
ENDMDL
MODEL 9
REMARK VINA RESULT:      -8.1      3.852     10.654
REMARK  Name = 
REMARK  15 active torsions:
REMARK  status: ('A' for Active; 'I' for Inactive)
REMARK    1  A    between atoms: C_2  and  C_3
REMARK    2  A    between atoms: C_3  and  N_4
REMARK    3  A    between atoms: N_4  and  C_5
REMARK    4  A    between atoms: N_4  and  C_18
REMARK    5  A    between atoms: C_5  and  C_6
REMARK    6  A    between atoms: C_11  and  C_12
REMARK    7  A    between atoms: C_14  and  O_15
REMARK    8  A    between atoms: C_21  and  C_22
REMARK    9  A    between atoms: N_24  and  CA_25
REMARK   10  A    between atoms: CA_25  and  C_26
REMARK   11  A    between atoms: CA_25  and  C_29
REMARK   12  A    between atoms: C_26  and  OXT_28
REMARK   13  A    between atoms: C_29  and  C_30
REMARK   14  A    between atoms: C_29  and  C_31
REMARK   15  A    between atoms: C_29  and  C_32
REMARK                            x       y       z     vdW  Elec       q    Type
REMARK                         _______ _______ _______ _____ _____    ______ ____
ROOT
ATOM      1  C   UNL     1       0.534  10.040  19.593  0.00  0.00    +0.000 A 
ATOM      2  C   UNL     1       1.285   9.632  18.472  0.00  0.00    +0.000 A 
ATOM      3  C   UNL     1       2.043   8.458  18.453  0.00  0.00    +0.000 A 
ATOM      4  C   UNL     1       2.099   7.642  19.571  0.00  0.00    +0.000 A 
ATOM      5  C   UNL     1       1.472   8.071  20.741  0.00  0.00    +0.000 A 
ATOM      6  C   UNL     1       0.709   9.256  20.746  0.00  0.00    +0.000 A 
ENDROOT
BRANCH   4   7
ATOM      7  C   UNL     1       2.840   6.354  19.485  0.00  0.00    +0.000 C 
ATOM      8  O   UNL     1       3.960   6.312  18.986  0.00  0.00    +0.000 OA
ATOM      9  N   UNL     1       2.188   5.235  19.973  0.00  0.00    +0.000 N 
ATOM     10  H   UNL     1       1.191   5.304  20.141  0.00  0.00    +0.000 HD
BRANCH   9  11
ATOM     11  CA  UNL     1       2.782   3.869  19.876  0.00  0.00    +0.000 C 
BRANCH  11  12
ATOM     12  C   UNL     1       2.513   3.204  18.484  0.00  0.00    +0.000 C 
ATOM     13  C   UNL     1       1.991   1.762  18.678  0.00  0.00    +0.000 C 
ATOM     14  C   UNL     1       1.420   3.963  17.692  0.00  0.00    +0.000 C 
ATOM     15  C   UNL     1       3.778   3.156  17.607  0.00  0.00    +0.000 C 
ENDBRANCH  11  12
BRANCH  11  16
ATOM     16  C   UNL     1       2.282   3.031  21.085  0.00  0.00    +0.000 C 
ATOM     17  O   UNL     1       1.125   2.951  21.467  0.00  0.00    +0.000 OA
BRANCH  16  18
ATOM     18  OXT UNL     1       3.278   2.347  21.704  0.00  0.00    +0.000 OA
ATOM     19  HXT UNL     1       4.098   2.876  21.640  0.00  0.00    +0.000 HD
ENDBRANCH  16  18
ENDBRANCH  11  16
ENDBRANCH   9  11
ENDBRANCH   4   7
BRANCH   1  20
ATOM     20  N   UNL     1      -0.374  11.109  19.530  0.00  0.00    +0.000 N 
BRANCH  20  21
ATOM     21  C   UNL     1      -0.915  11.497  18.198  0.00  0.00    +0.000 C 
BRANCH  21  23
ATOM     22  C   UNL     1      -3.016   9.824  17.324  0.00  0.00    +0.000 C 
ATOM     23  C   UNL     1      -2.046  10.596  17.727  0.00  0.00    +0.000 C 
ENDBRANCH  21  23
ENDBRANCH  20  21
BRANCH  20  24
ATOM     24  C   UNL     1      -0.537  12.081  20.655  0.00  0.00    +0.000 C 
BRANCH  24  25
ATOM     25  C   UNL     1      -1.873  12.107  21.433  0.00  0.00    +0.000 A 
ATOM     26  C   UNL     1      -1.981  11.913  22.806  0.00  0.00    +0.000 A 
ATOM     27  C   UNL     1      -3.135  12.292  23.525  0.00  0.00    +0.000 A 
ATOM     28  C   UNL     1      -4.209  12.927  22.916  0.00  0.00    +0.000 A 
ATOM     29  N   UNL     1      -5.184  13.479  23.669  0.00  0.00    +0.000 NA
ATOM     30  C   UNL     1      -6.084  14.258  23.056  0.00  0.00    +0.000 A 
ATOM     31  C   UNL     1      -7.011  15.080  23.913  0.00  0.00    +0.000 C 
ATOM     32  N   UNL     1      -6.127  14.481  21.732  0.00  0.00    +0.000 NA
ATOM     33  C   UNL     1      -5.167  13.855  21.025  0.00  0.00    +0.000 A 
ATOM     34  C   UNL     1      -4.151  13.066  21.535  0.00  0.00    +0.000 A 
ATOM     35  C   UNL     1      -3.031  12.578  20.786  0.00  0.00    +0.000 A 
BRANCH  33  36
ATOM     36  O   UNL     1      -5.123  14.281  19.730  0.00  0.00    +0.000 OA
ATOM     37  H   UNL     1      -5.363  15.217  19.856  0.00  0.00    +0.000 HD
ENDBRANCH  33  36
ENDBRANCH  24  25
ENDBRANCH  20  24
ENDBRANCH   1  20
TORSDOF 11
ENDMDL
