MODEL 1
REMARK VINA RESULT:      -8.3      0.000      0.000
REMARK  Name = 
REMARK  6 active torsions:
REMARK  status: ('A' for Active; 'I' for Inactive)
REMARK    1  A    between atoms: C_1  and  C_2
REMARK    2  A    between atoms: C_5  and  C_6
REMARK    3  A    between atoms: C_13  and  C_14
REMARK    4  A    between atoms: N_16  and  C_17
REMARK    5  A    between atoms: C_21  and  C_22
REMARK    6  A    between atoms: C_27  and  C_28
REMARK                            x       y       z     vdW  Elec       q    Type
REMARK                         _______ _______ _______ _____ _____    ______ ____
ROOT
ATOM      1  C   UNL     1       2.419   5.983  19.276  0.00  0.00    +0.000 C 
ATOM      2  O   UNL     1       2.089   6.158  18.102  0.00  0.00    +0.000 OA
ATOM      3  N   UNL     1       2.335   6.991  20.252  0.00  0.00    +0.000 N 
ATOM      4  H   UNL     1       3.000   6.967  21.019  0.00  0.00    +0.000 HD
ENDROOT
BRANCH   3   5
ATOM      5  C   UNL     1       1.838   8.246  19.877  0.00  0.00    +0.000 A 
ATOM      6  S   UNL     1       2.405   8.831  18.389  0.00  0.00    +0.000 S 
ATOM      7  C   UNL     1       1.683  10.336  18.631  0.00  0.00    +0.000 A 
ATOM      8  C   UNL     1       0.819  10.361  19.710  0.00  0.00    +0.000 A 
ATOM      9  C   UNL     1       0.869   9.090  20.456  0.00  0.00    +0.000 A 
ATOM     10  C   UNL     1       0.046  11.635  20.003  0.00  0.00    +0.000 C 
ATOM     11  C   UNL     1       0.158  12.689  18.877  0.00  0.00    +0.000 C 
ATOM     12  C   UNL     1       1.579  12.810  18.298  0.00  0.00    +0.000 C 
ATOM     13  C   UNL     1       2.593  13.300  19.339  0.00  0.00    +0.000 C 
ATOM     14  C   UNL     1       1.989  11.459  17.690  0.00  0.00    +0.000 C 
BRANCH   9  15
ATOM     15  C   UNL     1       0.142   8.689  21.666  0.00  0.00    +0.000 C 
ATOM     16  N   UNL     1       0.430   9.323  22.834  0.00  0.00    +0.000 N 
ATOM     17  O   UNL     1      -0.716   7.805  21.662  0.00  0.00    +0.000 OA
ATOM     18  H   UNL     1       1.152  10.008  22.961  0.00  0.00    +0.000 HD
ATOM     19  H   UNL     1      -0.079   9.027  23.663  0.00  0.00    +0.000 HD
ENDBRANCH   9  15
ENDBRANCH   3   5
BRANCH   1  25
ATOM     20  C   UNL     1       1.126   3.347  20.924  0.00  0.00    +0.000 C 
ATOM     21  C   UNL     1       2.430   3.634  20.313  0.00  0.00    +0.000 A 
ATOM     22  O   UNL     1       3.293   2.588  20.327  0.00  0.00    +0.000 OA
ATOM     23  N   UNL     1       4.465   2.944  19.729  0.00  0.00    +0.000 NA
ATOM     24  C   UNL     1       4.315   4.202  19.280  0.00  0.00    +0.000 A 
ATOM     25  C   UNL     1       3.007   4.701  19.648  0.00  0.00    +0.000 A 
BRANCH  24  26
ATOM     26  C   UNL     1       5.428   4.876  18.589  0.00  0.00    +0.000 A 
ATOM     27  C   UNL     1       6.426   5.518  19.345  0.00  0.00    +0.000 A 
ATOM     28  C   UNL     1       7.524   6.130  18.740  0.00  0.00    +0.000 A 
ATOM     29  C   UNL     1       7.669   6.083  17.361  0.00  0.00    +0.000 A 
ATOM     30  C   UNL     1       6.692   5.460  16.585  0.00  0.00    +0.000 A 
ATOM     31  C   UNL     1       5.565   4.889  17.188  0.00  0.00    +0.000 A 
ATOM     32 CL   UNL     1       4.372   4.265  16.089  0.00  0.00    +0.000 Cl
ENDBRANCH  24  26
ENDBRANCH   1  25
TORSDOF 4
ENDMDL
MODEL 2
REMARK VINA RESULT:      -8.2      1.012      1.436
REMARK  Name = 
REMARK  6 active torsions:
REMARK  status: ('A' for Active; 'I' for Inactive)
REMARK    1  A    between atoms: C_1  and  C_2
REMARK    2  A    between atoms: C_5  and  C_6
REMARK    3  A    between atoms: C_13  and  C_14
REMARK    4  A    between atoms: N_16  and  C_17
REMARK    5  A    between atoms: C_21  and  C_22
REMARK    6  A    between atoms: C_27  and  C_28
REMARK                            x       y       z     vdW  Elec       q    Type
REMARK                         _______ _______ _______ _____ _____    ______ ____
ROOT
ATOM      1  C   UNL     1       2.490   5.953  19.143  0.00  0.00    +0.000 C 
ATOM      2  O   UNL     1       2.160   6.146  17.972  0.00  0.00    +0.000 OA
ATOM      3  N   UNL     1       2.400   6.944  20.135  0.00  0.00    +0.000 N 
ATOM      4  H   UNL     1       3.065   6.911  20.903  0.00  0.00    +0.000 HD
ENDROOT
BRANCH   3   5
ATOM      5  C   UNL     1       1.897   8.203  19.781  0.00  0.00    +0.000 A 
ATOM      6  S   UNL     1       2.460   8.814  18.301  0.00  0.00    +0.000 S 
ATOM      7  C   UNL     1       1.732  10.312  18.568  0.00  0.00    +0.000 A 
ATOM      8  C   UNL     1       0.868  10.316  19.648  0.00  0.00    +0.000 A 
ATOM      9  C   UNL     1       0.925   9.033  20.374  0.00  0.00    +0.000 A 
ATOM     10  C   UNL     1       0.089  11.581  19.962  0.00  0.00    +0.000 C 
ATOM     11  C   UNL     1       0.196  12.654  18.852  0.00  0.00    +0.000 C 
ATOM     12  C   UNL     1       1.616  12.790  18.274  0.00  0.00    +0.000 C 
ATOM     13  C   UNL     1       2.629  13.268  19.322  0.00  0.00    +0.000 C 
ATOM     14  C   UNL     1       2.031  11.450  17.644  0.00  0.00    +0.000 C 
BRANCH   9  15
ATOM     15  C   UNL     1       0.201   8.610  21.578  0.00  0.00    +0.000 C 
ATOM     16  N   UNL     1       0.485   9.229  22.756  0.00  0.00    +0.000 N 
ATOM     17  O   UNL     1      -0.652   7.721  21.561  0.00  0.00    +0.000 OA
ATOM     18  H   UNL     1       1.203   9.916  22.892  0.00  0.00    +0.000 HD
ATOM     19  H   UNL     1      -0.022   8.918  23.580  0.00  0.00    +0.000 HD
ENDBRANCH   9  15
ENDBRANCH   3   5
BRANCH   1  25
ATOM     20  C   UNL     1       1.626   3.673  21.466  0.00  0.00    +0.000 C 
ATOM     21  C   UNL     1       2.683   3.751  20.449  0.00  0.00    +0.000 A 
ATOM     22  O   UNL     1       3.438   2.630  20.345  0.00  0.00    +0.000 OA
ATOM     23  N   UNL     1       4.379   2.790  19.372  0.00  0.00    +0.000 NA
ATOM     24  C   UNL     1       4.173   3.997  18.817  0.00  0.00    +0.000 A 
ATOM     25  C   UNL     1       3.085   4.668  19.495  0.00  0.00    +0.000 A 
BRANCH  24  26
ATOM     26  C   UNL     1       5.048   4.468  17.730  0.00  0.00    +0.000 A 
ATOM     27  C   UNL     1       4.698   4.204  16.394  0.00  0.00    +0.000 A 
ATOM     28  C   UNL     1       5.469   4.667  15.328  0.00  0.00    +0.000 A 
ATOM     29  C   UNL     1       6.594   5.441  15.574  0.00  0.00    +0.000 A 
ATOM     30  C   UNL     1       6.971   5.714  16.888  0.00  0.00    +0.000 A 
ATOM     31  C   UNL     1       6.225   5.207  17.960  0.00  0.00    +0.000 A 
ATOM     32 CL   UNL     1       6.885   5.519  19.536  0.00  0.00    +0.000 Cl
ENDBRANCH  24  26
ENDBRANCH   1  25
TORSDOF 4
ENDMDL
MODEL 3
REMARK VINA RESULT:      -7.8      1.718      2.632
REMARK  Name = 
REMARK  6 active torsions:
REMARK  status: ('A' for Active; 'I' for Inactive)
REMARK    1  A    between atoms: C_1  and  C_2
REMARK    2  A    between atoms: C_5  and  C_6
REMARK    3  A    between atoms: C_13  and  C_14
REMARK    4  A    between atoms: N_16  and  C_17
REMARK    5  A    between atoms: C_21  and  C_22
REMARK    6  A    between atoms: C_27  and  C_28
REMARK                            x       y       z     vdW  Elec       q    Type
REMARK                         _______ _______ _______ _____ _____    ______ ____
ROOT
ATOM      1  C   UNL     1       2.415   5.306  19.652  0.00  0.00    +0.000 C 
ATOM      2  O   UNL     1       1.650   5.283  18.687  0.00  0.00    +0.000 OA
ATOM      3  N   UNL     1       2.685   6.473  20.386  0.00  0.00    +0.000 N 
ATOM      4  H   UNL     1       3.596   6.558  20.827  0.00  0.00    +0.000 HD
ENDROOT
BRANCH   3   5
ATOM      5  C   UNL     1       2.042   7.661  20.016  0.00  0.00    +0.000 A 
ATOM      6  S   UNL     1       1.052   8.349  21.210  0.00  0.00    +0.000 S 
ATOM      7  C   UNL     1       0.449   9.504  20.139  0.00  0.00    +0.000 A 
ATOM      8  C   UNL     1       1.136   9.548  18.939  0.00  0.00    +0.000 A 
ATOM      9  C   UNL     1       2.133   8.464  18.861  0.00  0.00    +0.000 A 
ATOM     10  C   UNL     1       0.745  10.591  17.907  0.00  0.00    +0.000 C 
ATOM     11  C   UNL     1      -0.246  11.646  18.452  0.00  0.00    +0.000 C 
ATOM     12  C   UNL     1      -1.349  11.044  19.340  0.00  0.00    +0.000 C 
ATOM     13  C   UNL     1      -2.256  10.077  18.568  0.00  0.00    +0.000 C 
ATOM     14  C   UNL     1      -0.697  10.369  20.559  0.00  0.00    +0.000 C 
BRANCH   9  15
ATOM     15  C   UNL     1       3.059   8.125  17.774  0.00  0.00    +0.000 C 
ATOM     16  N   UNL     1       4.329   7.758  18.097  0.00  0.00    +0.000 N 
ATOM     17  O   UNL     1       2.730   8.160  16.588  0.00  0.00    +0.000 OA
ATOM     18  H   UNL     1       4.716   7.758  19.022  0.00  0.00    +0.000 HD
ATOM     19  H   UNL     1       4.957   7.533  17.330  0.00  0.00    +0.000 HD
ENDBRANCH   9  15
ENDBRANCH   3   5
BRANCH   1  25
ATOM     20  C   UNL     1       1.500   2.604  21.442  0.00  0.00    +0.000 C 
ATOM     21  C   UNL     1       2.718   2.989  20.717  0.00  0.00    +0.000 A 
ATOM     22  O   UNL     1       3.666   2.021  20.671  0.00  0.00    +0.000 OA
ATOM     23  N   UNL     1       4.749   2.463  19.970  0.00  0.00    +0.000 NA
ATOM     24  C   UNL     1       4.452   3.694  19.518  0.00  0.00    +0.000 A 
ATOM     25  C   UNL     1       3.142   4.087  19.990  0.00  0.00    +0.000 A 
BRANCH  24  26
ATOM     26  C   UNL     1       5.440   4.445  18.725  0.00  0.00    +0.000 A 
ATOM     27  C   UNL     1       6.450   5.171  19.382  0.00  0.00    +0.000 A 
ATOM     28  C   UNL     1       7.435   5.861  18.676  0.00  0.00    +0.000 A 
ATOM     29  C   UNL     1       7.456   5.810  17.290  0.00  0.00    +0.000 A 
ATOM     30  C   UNL     1       6.464   5.105  16.610  0.00  0.00    +0.000 A 
ATOM     31  C   UNL     1       5.446   4.453  17.316  0.00  0.00    +0.000 A 
ATOM     32 CL   UNL     1       4.210   3.726  16.335  0.00  0.00    +0.000 Cl
ENDBRANCH  24  26
ENDBRANCH   1  25
TORSDOF 4
ENDMDL
MODEL 4
REMARK VINA RESULT:      -7.7      3.831      8.137
REMARK  Name = 
REMARK  6 active torsions:
REMARK  status: ('A' for Active; 'I' for Inactive)
REMARK    1  A    between atoms: C_1  and  C_2
REMARK    2  A    between atoms: C_5  and  C_6
REMARK    3  A    between atoms: C_13  and  C_14
REMARK    4  A    between atoms: N_16  and  C_17
REMARK    5  A    between atoms: C_21  and  C_22
REMARK    6  A    between atoms: C_27  and  C_28
REMARK                            x       y       z     vdW  Elec       q    Type
REMARK                         _______ _______ _______ _____ _____    ______ ____
ROOT
ATOM      1  C   UNL     1       0.808  11.810  20.139  0.00  0.00    +0.000 C 
ATOM      2  O   UNL     1       1.761  11.730  20.917  0.00  0.00    +0.000 OA
ATOM      3  N   UNL     1       0.384  10.737  19.338  0.00  0.00    +0.000 N 
ATOM      4  H   UNL     1      -0.049  10.953  18.445  0.00  0.00    +0.000 HD
ENDROOT
BRANCH   3   5
ATOM      5  C   UNL     1       1.063   9.516  19.439  0.00  0.00    +0.000 A 
ATOM      6  S   UNL     1       2.184   9.209  18.203  0.00  0.00    +0.000 S 
ATOM      7  C   UNL     1       2.442   7.630  18.738  0.00  0.00    +0.000 A 
ATOM      8  C   UNL     1       1.877   7.373  19.974  0.00  0.00    +0.000 A 
ATOM      9  C   UNL     1       1.069   8.518  20.434  0.00  0.00    +0.000 A 
ATOM     10  C   UNL     1       2.090   6.010  20.610  0.00  0.00    +0.000 C 
ATOM     11  C   UNL     1       3.141   5.150  19.869  0.00  0.00    +0.000 C 
ATOM     12  C   UNL     1       3.025   5.234  18.337  0.00  0.00    +0.000 C 
ATOM     13  C   UNL     1       1.692   4.679  17.822  0.00  0.00    +0.000 C 
ATOM     14  C   UNL     1       3.248   6.691  17.898  0.00  0.00    +0.000 C 
BRANCH   9  15
ATOM     15  C   UNL     1       0.285   8.671  21.665  0.00  0.00    +0.000 C 
ATOM     16  N   UNL     1       0.842   9.347  22.707  0.00  0.00    +0.000 N 
ATOM     17  O   UNL     1      -0.852   8.215  21.788  0.00  0.00    +0.000 OA
ATOM     18  H   UNL     1       1.780   9.701  22.735  0.00  0.00    +0.000 HD
ATOM     19  H   UNL     1       0.286   9.436  23.553  0.00  0.00    +0.000 HD
ENDBRANCH   9  15
ENDBRANCH   3   5
BRANCH   1  25
ATOM     20  C   UNL     1      -2.419  12.711  20.470  0.00  0.00    +0.000 C 
ATOM     21  C   UNL     1      -1.182  13.431  20.143  0.00  0.00    +0.000 A 
ATOM     22  O   UNL     1      -1.335  14.774  20.029  0.00  0.00    +0.000 OA
ATOM     23  N   UNL     1      -0.137  15.356  19.739  0.00  0.00    +0.000 NA
ATOM     24  C   UNL     1       0.787  14.379  19.732  0.00  0.00    +0.000 A 
ATOM     25  C   UNL     1       0.151  13.102  19.978  0.00  0.00    +0.000 A 
BRANCH  24  26
ATOM     26  C   UNL     1       2.194  14.697  19.436  0.00  0.00    +0.000 A 
ATOM     27  C   UNL     1       2.650  14.654  18.106  0.00  0.00    +0.000 A 
ATOM     28  C   UNL     1       3.960  14.990  17.768  0.00  0.00    +0.000 A 
ATOM     29  C   UNL     1       4.840  15.416  18.752  0.00  0.00    +0.000 A 
ATOM     30  C   UNL     1       4.420  15.464  20.080  0.00  0.00    +0.000 A 
ATOM     31  C   UNL     1       3.119  15.078  20.427  0.00  0.00    +0.000 A 
ATOM     32 CL   UNL     1       2.778  15.064  22.131  0.00  0.00    +0.000 Cl
ENDBRANCH  24  26
ENDBRANCH   1  25
TORSDOF 4
ENDMDL
MODEL 5
REMARK VINA RESULT:      -7.6      2.002      3.008
REMARK  Name = 
REMARK  6 active torsions:
REMARK  status: ('A' for Active; 'I' for Inactive)
REMARK    1  A    between atoms: C_1  and  C_2
REMARK    2  A    between atoms: C_5  and  C_6
REMARK    3  A    between atoms: C_13  and  C_14
REMARK    4  A    between atoms: N_16  and  C_17
REMARK    5  A    between atoms: C_21  and  C_22
REMARK    6  A    between atoms: C_27  and  C_28
REMARK                            x       y       z     vdW  Elec       q    Type
REMARK                         _______ _______ _______ _____ _____    ______ ____
ROOT
ATOM      1  C   UNL     1       2.534   5.265  19.456  0.00  0.00    +0.000 C 
ATOM      2  O   UNL     1       1.818   5.296  18.454  0.00  0.00    +0.000 OA
ATOM      3  N   UNL     1       2.753   6.386  20.274  0.00  0.00    +0.000 N 
ATOM      4  H   UNL     1       3.640   6.451  20.765  0.00  0.00    +0.000 HD
ENDROOT
BRANCH   3   5
ATOM      5  C   UNL     1       2.116   7.589  19.945  0.00  0.00    +0.000 A 
ATOM      6  S   UNL     1       1.124   8.236  21.161  0.00  0.00    +0.000 S 
ATOM      7  C   UNL     1       0.530   9.432  20.132  0.00  0.00    +0.000 A 
ATOM      8  C   UNL     1       1.221   9.519  18.937  0.00  0.00    +0.000 A 
ATOM      9  C   UNL     1       2.214   8.434  18.822  0.00  0.00    +0.000 A 
ATOM     10  C   UNL     1       0.837  10.601  17.943  0.00  0.00    +0.000 C 
ATOM     11  C   UNL     1      -0.151  11.639  18.523  0.00  0.00    +0.000 C 
ATOM     12  C   UNL     1      -1.259  11.008  19.385  0.00  0.00    +0.000 C 
ATOM     13  C   UNL     1      -2.167  10.075  18.574  0.00  0.00    +0.000 C 
ATOM     14  C   UNL     1      -0.615  10.286  20.580  0.00  0.00    +0.000 C 
BRANCH   9  15
ATOM     15  C   UNL     1       3.143   8.133  17.727  0.00  0.00    +0.000 C 
ATOM     16  N   UNL     1       4.424   7.798  18.038  0.00  0.00    +0.000 N 
ATOM     17  O   UNL     1       2.806   8.170  16.542  0.00  0.00    +0.000 OA
ATOM     18  H   UNL     1       4.817   7.801  18.961  0.00  0.00    +0.000 HD
ATOM     19  H   UNL     1       5.054   7.599  17.266  0.00  0.00    +0.000 HD
ENDBRANCH   9  15
ENDBRANCH   3   5
BRANCH   1  25
ATOM     20  C   UNL     1       1.989   2.881  21.772  0.00  0.00    +0.000 C 
ATOM     21  C   UNL     1       2.985   3.069  20.708  0.00  0.00    +0.000 A 
ATOM     22  O   UNL     1       3.831   2.022  20.548  0.00  0.00    +0.000 OA
ATOM     23  N   UNL     1       4.706   2.280  19.535  0.00  0.00    +0.000 NA
ATOM     24  C   UNL     1       4.367   3.472  19.014  0.00  0.00    +0.000 A 
ATOM     25  C   UNL     1       3.257   4.033  19.754  0.00  0.00    +0.000 A 
BRANCH  24  26
ATOM     26  C   UNL     1       5.143   4.036  17.896  0.00  0.00    +0.000 A 
ATOM     27  C   UNL     1       4.790   3.714  16.574  0.00  0.00    +0.000 A 
ATOM     28  C   UNL     1       5.464   4.258  15.481  0.00  0.00    +0.000 A 
ATOM     29  C   UNL     1       6.490   5.170  15.685  0.00  0.00    +0.000 A 
ATOM     30  C   UNL     1       6.867   5.504  16.985  0.00  0.00    +0.000 A 
ATOM     31  C   UNL     1       6.224   4.921  18.083  0.00  0.00    +0.000 A 
ATOM     32 CL   UNL     1       6.886   5.332  19.636  0.00  0.00    +0.000 Cl
ENDBRANCH  24  26
ENDBRANCH   1  25
TORSDOF 4
ENDMDL
MODEL 6
REMARK VINA RESULT:      -7.4      7.419     10.294
REMARK  Name = 
REMARK  6 active torsions:
REMARK  status: ('A' for Active; 'I' for Inactive)
REMARK    1  A    between atoms: C_1  and  C_2
REMARK    2  A    between atoms: C_5  and  C_6
REMARK    3  A    between atoms: C_13  and  C_14
REMARK    4  A    between atoms: N_16  and  C_17
REMARK    5  A    between atoms: C_21  and  C_22
REMARK    6  A    between atoms: C_27  and  C_28
REMARK                            x       y       z     vdW  Elec       q    Type
REMARK                         _______ _______ _______ _____ _____    ______ ____
ROOT
ATOM      1  C   UNL     1      -3.188  13.287  21.450  0.00  0.00    +0.000 C 
ATOM      2  O   UNL     1      -3.157  14.385  20.892  0.00  0.00    +0.000 OA
ATOM      3  N   UNL     1      -2.097  12.402  21.455  0.00  0.00    +0.000 N 
ATOM      4  H   UNL     1      -2.293  11.406  21.501  0.00  0.00    +0.000 HD
ENDROOT
BRANCH   3   5
ATOM      5  C   UNL     1      -0.916  12.790  20.812  0.00  0.00    +0.000 A 
ATOM      6  S   UNL     1       0.195  13.626  21.787  0.00  0.00    +0.000 S 
ATOM      7  C   UNL     1       1.186  13.980  20.469  0.00  0.00    +0.000 A 
ATOM      8  C   UNL     1       0.834  13.294  19.320  0.00  0.00    +0.000 A 
ATOM      9  C   UNL     1      -0.415  12.536  19.520  0.00  0.00    +0.000 A 
ATOM     10  C   UNL     1       1.684  13.464  18.074  0.00  0.00    +0.000 C 
ATOM     11  C   UNL     1       3.006  14.224  18.336  0.00  0.00    +0.000 C 
ATOM     12  C   UNL     1       2.838  15.428  19.279  0.00  0.00    +0.000 C 
ATOM     13  C   UNL     1       1.924  16.509  18.688  0.00  0.00    +0.000 C 
ATOM     14  C   UNL     1       2.329  14.930  20.642  0.00  0.00    +0.000 C 
BRANCH   9  15
ATOM     15  C   UNL     1      -1.156  11.694  18.574  0.00  0.00    +0.000 C 
ATOM     16  N   UNL     1      -1.553  12.241  17.393  0.00  0.00    +0.000 N 
ATOM     17  O   UNL     1      -1.428  10.516  18.807  0.00  0.00    +0.000 OA
ATOM     18  H   UNL     1      -1.440  13.203  17.132  0.00  0.00    +0.000 HD
ATOM     19  H   UNL     1      -2.071  11.644  16.754  0.00  0.00    +0.000 HD
ENDBRANCH   9  15
ENDBRANCH   3   5
BRANCH   1  25
ATOM     20  C   UNL     1      -4.025  12.729  24.664  0.00  0.00    +0.000 C 
ATOM     21  C   UNL     1      -4.748  12.651  23.387  0.00  0.00    +0.000 A 
ATOM     22  O   UNL     1      -6.071  12.380  23.514  0.00  0.00    +0.000 OA
ATOM     23  N   UNL     1      -6.658  12.341  22.284  0.00  0.00    +0.000 NA
ATOM     24  C   UNL     1      -5.710  12.653  21.383  0.00  0.00    +0.000 A 
ATOM     25  C   UNL     1      -4.443  12.851  22.053  0.00  0.00    +0.000 A 
BRANCH  24  26
ATOM     26  C   UNL     1      -6.039  12.683  19.947  0.00  0.00    +0.000 A 
ATOM     27  C   UNL     1      -6.083  11.481  19.220  0.00  0.00    +0.000 A 
ATOM     28  C   UNL     1      -6.434  11.452  17.871  0.00  0.00    +0.000 A 
ATOM     29  C   UNL     1      -6.788  12.627  17.223  0.00  0.00    +0.000 A 
ATOM     30  C   UNL     1      -6.748  13.836  17.916  0.00  0.00    +0.000 A 
ATOM     31  C   UNL     1      -6.347  13.872  19.257  0.00  0.00    +0.000 A 
ATOM     32 CL   UNL     1      -6.221  15.460  19.952  0.00  0.00    +0.000 Cl
ENDBRANCH  24  26
ENDBRANCH   1  25
TORSDOF 4
ENDMDL
MODEL 7
REMARK VINA RESULT:      -7.4      1.993      3.544
REMARK  Name = 
REMARK  6 active torsions:
REMARK  status: ('A' for Active; 'I' for Inactive)
REMARK    1  A    between atoms: C_1  and  C_2
REMARK    2  A    between atoms: C_5  and  C_6
REMARK    3  A    between atoms: C_13  and  C_14
REMARK    4  A    between atoms: N_16  and  C_17
REMARK    5  A    between atoms: C_21  and  C_22
REMARK    6  A    between atoms: C_27  and  C_28
REMARK                            x       y       z     vdW  Elec       q    Type
REMARK                         _______ _______ _______ _____ _____    ______ ____
ROOT
ATOM      1  C   UNL     1       2.488   6.832  18.157  0.00  0.00    +0.000 C 
ATOM      2  O   UNL     1       1.334   6.569  17.816  0.00  0.00    +0.000 OA
ATOM      3  N   UNL     1       2.844   8.036  18.788  0.00  0.00    +0.000 N 
ATOM      4  H   UNL     1       3.781   8.395  18.635  0.00  0.00    +0.000 HD
ENDROOT
BRANCH   3   5
ATOM      5  C   UNL     1       1.838   8.972  19.059  0.00  0.00    +0.000 A 
ATOM      6  S   UNL     1       1.402   9.962  17.751  0.00  0.00    +0.000 S 
ATOM      7  C   UNL     1       0.419  10.927  18.723  0.00  0.00    +0.000 A 
ATOM      8  C   UNL     1       0.213  10.401  19.986  0.00  0.00    +0.000 A 
ATOM      9  C   UNL     1       1.034   9.194  20.195  0.00  0.00    +0.000 A 
ATOM     10  C   UNL     1      -0.711  11.132  20.944  0.00  0.00    +0.000 C 
ATOM     11  C   UNL     1      -1.505  12.277  20.272  0.00  0.00    +0.000 C 
ATOM     12  C   UNL     1      -0.660  13.108  19.290  0.00  0.00    +0.000 C 
ATOM     13  C   UNL     1       0.490  13.843  19.989  0.00  0.00    +0.000 C 
ATOM     14  C   UNL     1      -0.155  12.191  18.164  0.00  0.00    +0.000 C 
BRANCH   9  15
ATOM     15  C   UNL     1       1.145   8.337  21.380  0.00  0.00    +0.000 C 
ATOM     16  N   UNL     1       1.524   8.905  22.558  0.00  0.00    +0.000 N 
ATOM     17  O   UNL     1       0.909   7.128  21.349  0.00  0.00    +0.000 OA
ATOM     18  H   UNL     1       1.801   9.861  22.678  0.00  0.00    +0.000 HD
ATOM     19  H   UNL     1       1.602   8.293  23.366  0.00  0.00    +0.000 HD
ENDBRANCH   9  15
ENDBRANCH   3   5
BRANCH   1  25
ATOM     20  C   UNL     1       5.048   7.085  15.983  0.00  0.00    +0.000 C 
ATOM     21  C   UNL     1       4.594   6.045  16.916  0.00  0.00    +0.000 A 
ATOM     22  O   UNL     1       5.422   4.975  17.001  0.00  0.00    +0.000 OA
ATOM     23  N   UNL     1       4.928   4.073  17.896  0.00  0.00    +0.000 NA
ATOM     24  C   UNL     1       3.813   4.609  18.424  0.00  0.00    +0.000 A 
ATOM     25  C   UNL     1       3.546   5.891  17.806  0.00  0.00    +0.000 A 
BRANCH  24  26
ATOM     26  C   UNL     1       3.038   3.859  19.426  0.00  0.00    +0.000 A 
ATOM     27  C   UNL     1       2.987   4.323  20.753  0.00  0.00    +0.000 A 
ATOM     28  C   UNL     1       2.230   3.674  21.728  0.00  0.00    +0.000 A 
ATOM     29  C   UNL     1       1.472   2.563  21.390  0.00  0.00    +0.000 A 
ATOM     30  C   UNL     1       1.507   2.076  20.084  0.00  0.00    +0.000 A 
ATOM     31  C   UNL     1       2.306   2.696  19.116  0.00  0.00    +0.000 A 
ATOM     32 CL   UNL     1       2.350   1.904  17.571  0.00  0.00    +0.000 Cl
ENDBRANCH  24  26
ENDBRANCH   1  25
TORSDOF 4
ENDMDL
MODEL 8
REMARK VINA RESULT:      -7.3      3.705      8.014
REMARK  Name = 
REMARK  6 active torsions:
REMARK  status: ('A' for Active; 'I' for Inactive)
REMARK    1  A    between atoms: C_1  and  C_2
REMARK    2  A    between atoms: C_5  and  C_6
REMARK    3  A    between atoms: C_13  and  C_14
REMARK    4  A    between atoms: N_16  and  C_17
REMARK    5  A    between atoms: C_21  and  C_22
REMARK    6  A    between atoms: C_27  and  C_28
REMARK                            x       y       z     vdW  Elec       q    Type
REMARK                         _______ _______ _______ _____ _____    ______ ____
ROOT
ATOM      1  C   UNL     1      -0.128  11.064  21.014  0.00  0.00    +0.000 C 
ATOM      2  O   UNL     1      -1.055  10.561  20.376  0.00  0.00    +0.000 OA
ATOM      3  N   UNL     1       1.133  10.457  21.136  0.00  0.00    +0.000 N 
ATOM      4  H   UNL     1       1.669  10.637  21.980  0.00  0.00    +0.000 HD
ENDROOT
BRANCH   3   5
ATOM      5  C   UNL     1       1.353   9.233  20.490  0.00  0.00    +0.000 A 
ATOM      6  S   UNL     1       1.264   7.864  21.489  0.00  0.00    +0.000 S 
ATOM      7  C   UNL     1       1.812   6.849  20.259  0.00  0.00    +0.000 A 
ATOM      8  C   UNL     1       1.854   7.464  19.021  0.00  0.00    +0.000 A 
ATOM      9  C   UNL     1       1.541   8.900  19.134  0.00  0.00    +0.000 A 
ATOM     10  C   UNL     1       2.262   6.646  17.808  0.00  0.00    +0.000 C 
ATOM     11  C   UNL     1       2.351   5.129  18.097  0.00  0.00    +0.000 C 
ATOM     12  C   UNL     1       3.004   4.806  19.453  0.00  0.00    +0.000 C 
ATOM     13  C   UNL     1       4.467   5.262  19.519  0.00  0.00    +0.000 C 
ATOM     14  C   UNL     1       2.158   5.428  20.577  0.00  0.00    +0.000 C 
BRANCH   9  15
ATOM     15  C   UNL     1       1.490   9.929  18.088  0.00  0.00    +0.000 C 
ATOM     16  N   UNL     1       0.272  10.362  17.664  0.00  0.00    +0.000 N 
ATOM     17  O   UNL     1       2.505  10.412  17.584  0.00  0.00    +0.000 OA
ATOM     18  H   UNL     1      -0.612   9.991  17.961  0.00  0.00    +0.000 HD
ATOM     19  H   UNL     1       0.257  11.070  16.935  0.00  0.00    +0.000 HD
ENDBRANCH   9  15
ENDBRANCH   3   5
BRANCH   1  25
ATOM     20  C   UNL     1      -2.325  11.774  23.465  0.00  0.00    +0.000 C 
ATOM     21  C   UNL     1      -1.285  12.541  22.766  0.00  0.00    +0.000 A 
ATOM     22  O   UNL     1      -1.090  13.789  23.258  0.00  0.00    +0.000 OA
ATOM     23  N   UNL     1      -0.103  14.417  22.558  0.00  0.00    +0.000 NA
ATOM     24  C   UNL     1       0.369  13.534  21.660  0.00  0.00    +0.000 A 
ATOM     25  C   UNL     1      -0.380  12.299  21.748  0.00  0.00    +0.000 A 
BRANCH  24  26
ATOM     26  C   UNL     1       1.448  13.926  20.738  0.00  0.00    +0.000 A 
ATOM     27  C   UNL     1       2.726  14.216  21.249  0.00  0.00    +0.000 A 
ATOM     28  C   UNL     1       3.792  14.547  20.413  0.00  0.00    +0.000 A 
ATOM     29  C   UNL     1       3.614  14.559  19.037  0.00  0.00    +0.000 A 
ATOM     30  C   UNL     1       2.358  14.282  18.501  0.00  0.00    +0.000 A 
ATOM     31  C   UNL     1       1.274  13.999  19.342  0.00  0.00    +0.000 A 
ATOM     32 CL   UNL     1      -0.255  13.802  18.541  0.00  0.00    +0.000 Cl
ENDBRANCH  24  26
ENDBRANCH   1  25
TORSDOF 4
ENDMDL
MODEL 9
REMARK VINA RESULT:      -7.3      3.560      8.087
REMARK  Name = 
REMARK  6 active torsions:
REMARK  status: ('A' for Active; 'I' for Inactive)
REMARK    1  A    between atoms: C_1  and  C_2
REMARK    2  A    between atoms: C_5  and  C_6
REMARK    3  A    between atoms: C_13  and  C_14
REMARK    4  A    between atoms: N_16  and  C_17
REMARK    5  A    between atoms: C_21  and  C_22
REMARK    6  A    between atoms: C_27  and  C_28
REMARK                            x       y       z     vdW  Elec       q    Type
REMARK                         _______ _______ _______ _____ _____    ______ ____
ROOT
ATOM      1  C   UNL     1       0.588  11.809  20.354  0.00  0.00    +0.000 C 
ATOM      2  O   UNL     1       1.514  11.718  21.162  0.00  0.00    +0.000 OA
ATOM      3  N   UNL     1       0.238  10.772  19.473  0.00  0.00    +0.000 N 
ATOM      4  H   UNL     1      -0.172  11.026  18.579  0.00  0.00    +0.000 HD
ENDROOT
BRANCH   3   5
ATOM      5  C   UNL     1       0.962   9.575  19.527  0.00  0.00    +0.000 A 
ATOM      6  S   UNL     1       2.061   9.339  18.255  0.00  0.00    +0.000 S 
ATOM      7  C   UNL     1       2.390   7.759  18.744  0.00  0.00    +0.000 A 
ATOM      8  C   UNL     1       1.867   7.451  19.987  0.00  0.00    +0.000 A 
ATOM      9  C   UNL     1       1.031   8.554  20.496  0.00  0.00    +0.000 A 
ATOM     10  C   UNL     1       2.146   6.082  20.583  0.00  0.00    +0.000 C 
ATOM     11  C   UNL     1       3.208   5.279  19.794  0.00  0.00    +0.000 C 
ATOM     12  C   UNL     1       3.049   5.396  18.268  0.00  0.00    +0.000 C 
ATOM     13  C   UNL     1       1.723   4.805  17.774  0.00  0.00    +0.000 C 
ATOM     14  C   UNL     1       3.207   6.870  17.860  0.00  0.00    +0.000 C 
BRANCH   9  15
ATOM     15  C   UNL     1       0.275   8.649  21.750  0.00  0.00    +0.000 C 
ATOM     16  N   UNL     1       0.850   9.285  22.806  0.00  0.00    +0.000 N 
ATOM     17  O   UNL     1      -0.855   8.177  21.880  0.00  0.00    +0.000 OA
ATOM     18  H   UNL     1       1.786   9.647  22.827  0.00  0.00    +0.000 HD
ATOM     19  H   UNL     1       0.314   9.335  23.668  0.00  0.00    +0.000 HD
ENDBRANCH   9  15
ENDBRANCH   3   5
BRANCH   1  25
ATOM     20  C   UNL     1      -2.701  12.517  20.205  0.00  0.00    +0.000 C 
ATOM     21  C   UNL     1      -1.477  13.328  20.206  0.00  0.00    +0.000 A 
ATOM     22  O   UNL     1      -1.698  14.665  20.243  0.00  0.00    +0.000 OA
ATOM     23  N   UNL     1      -0.509  15.333  20.255  0.00  0.00    +0.000 NA
ATOM     24  C   UNL     1       0.465  14.407  20.290  0.00  0.00    +0.000 A 
ATOM     25  C   UNL     1      -0.116  13.082  20.246  0.00  0.00    +0.000 A 
BRANCH  24  26
ATOM     26  C   UNL     1       1.878  14.823  20.299  0.00  0.00    +0.000 A 
ATOM     27  C   UNL     1       2.362  15.611  21.358  0.00  0.00    +0.000 A 
ATOM     28  C   UNL     1       3.701  15.992  21.436  0.00  0.00    +0.000 A 
ATOM     29  C   UNL     1       4.601  15.561  20.472  0.00  0.00    +0.000 A 
ATOM     30  C   UNL     1       4.149  14.784  19.406  0.00  0.00    +0.000 A 
ATOM     31  C   UNL     1       2.796  14.443  19.300  0.00  0.00    +0.000 A 
ATOM     32 CL   UNL     1       2.358  13.583  17.855  0.00  0.00    +0.000 Cl
ENDBRANCH  24  26
ENDBRANCH   1  25
TORSDOF 4
ENDMDL
