MODEL 1
REMARK VINA RESULT:      -6.4      0.000      0.000
REMARK  Name = 
REMARK  18 active torsions:
REMARK  status: ('A' for Active; 'I' for Inactive)
REMARK    1  A    between atoms: C_1  and  C_2
REMARK    2  A    between atoms: C_2  and  C_3
REMARK    3  A    between atoms: C_3  and  C_4
REMARK    4  A    between atoms: C_4  and  C_5
REMARK    5  A    between atoms: C_5  and  C_6
REMARK    6  A    between atoms: C_7  and  C_8
REMARK    7  A    between atoms: C_8  and  C_9
REMARK    8  A    between atoms: C_10  and  C_11
REMARK    9  A    between atoms: C_11  and  C_12
REMARK   10  A    between atoms: C_13  and  C_14
REMARK   11  A    between atoms: C_14  and  C_15
REMARK   12  A    between atoms: C_16  and  C_17
REMARK   13  A    between atoms: C_17  and  C_18
REMARK   14  A    between atoms: C_18  and  C_19
REMARK   15  A    between atoms: C_19  and  C_20
REMARK   16  A    between atoms: C_20  and  O_22
REMARK   17  A    between atoms: O_22  and  C_23
REMARK   18  A    between atoms: C_23  and  C_24
REMARK                            x       y       z     vdW  Elec       q    Type
REMARK                         _______ _______ _______ _____ _____    ______ ____
ROOT
ATOM      1  C   UNL     1       3.501   2.783  20.133  0.00  0.00    +0.000 C 
ENDROOT
BRANCH   1   3
ATOM      2  C   UNL     1       1.176   3.350  20.745  0.00  0.00    +0.000 C 
ATOM      3  C   UNL     1       2.223   2.517  20.840  0.00  0.00    +0.000 C 
BRANCH   2   4
ATOM      4  C   UNL     1       1.145   4.629  19.941  0.00  0.00    +0.000 C 
BRANCH   4   6
ATOM      5  C   UNL     1       2.339   6.830  19.964  0.00  0.00    +0.000 C 
ATOM      6  C   UNL     1       1.885   5.750  20.608  0.00  0.00    +0.000 C 
BRANCH   5   7
ATOM      7  C   UNL     1       2.220   7.007  18.486  0.00  0.00    +0.000 C 
BRANCH   7   9
ATOM      8  C   UNL     1       2.086   9.359  17.721  0.00  0.00    +0.000 C 
ATOM      9  C   UNL     1       2.821   8.274  18.008  0.00  0.00    +0.000 C 
BRANCH   8  10
ATOM     10  C   UNL     1       0.589   9.338  17.792  0.00  0.00    +0.000 C 
BRANCH  10  11
ATOM     11  C   UNL     1       0.066  10.041  19.028  0.00  0.00    +0.000 C 
BRANCH  11  12
ATOM     12  C   UNL     1      -1.322  10.603  18.746  0.00  0.00    +0.000 C 
BRANCH  12  14
ATOM     13  C   UNL     1      -3.427  10.047  17.514  0.00  0.00    +0.000 C 
ATOM     14  C   UNL     1      -1.916   9.939  17.514  0.00  0.00    +0.000 C 
ENDBRANCH  12  14
ENDBRANCH  11  12
ENDBRANCH  10  11
ENDBRANCH   8  10
ENDBRANCH   7   9
ENDBRANCH   5   7
ENDBRANCH   4   6
ENDBRANCH   2   4
ENDBRANCH   1   3
BRANCH   1  15
ATOM     15  C   UNL     1       3.621   1.993  18.882  0.00  0.00    +0.000 C 
ATOM     16  C   UNL     1       3.670   2.535  17.656  0.00  0.00    +0.000 C 
BRANCH  16  17
ATOM     17  C   UNL     1       3.491   4.003  17.384  0.00  0.00    +0.000 C 
BRANCH  17  18
ATOM     18  C   UNL     1       4.814   4.731  17.209  0.00  0.00    +0.000 C 
BRANCH  18  19
ATOM     19  C   UNL     1       5.801   3.992  16.301  0.00  0.00    +0.000 C 
BRANCH  19  20
ATOM     20  C   UNL     1       6.747   4.990  15.684  0.00  0.00    +0.000 C 
ATOM     21  O   UNL     1       6.871   6.147  16.057  0.00  0.00    +0.000 OA
BRANCH  20  22
ATOM     22  O   UNL     1       7.424   4.424  14.655  0.00  0.00    +0.000 OA
BRANCH  22  23
ATOM     23  C   UNL     1       7.108   4.954  13.365  0.00  0.00    +0.000 C 
BRANCH  23  24
ATOM     24  C   UNL     1       6.490   3.871  12.564  0.00  0.00    +0.000 A 
ATOM     25  C   UNL     1       5.190   3.427  12.414  0.00  0.00    +0.000 A 
ATOM     26  C   UNL     1       5.252   2.283  11.584  0.00  0.00    +0.000 A 
ATOM     27  C   UNL     1       6.579   2.114  11.263  0.00  0.00    +0.000 A 
ATOM     28  O   UNL     1       7.337   3.074  11.852  0.00  0.00    +0.000 OA
ENDBRANCH  23  24
ENDBRANCH  22  23
ENDBRANCH  20  22
ENDBRANCH  19  20
ENDBRANCH  18  19
ENDBRANCH  17  18
ENDBRANCH  16  17
ENDBRANCH   1  15
TORSDOF 17
ENDMDL
MODEL 2
REMARK VINA RESULT:      -6.2      3.460      7.999
REMARK  Name = 
REMARK  18 active torsions:
REMARK  status: ('A' for Active; 'I' for Inactive)
REMARK    1  A    between atoms: C_1  and  C_2
REMARK    2  A    between atoms: C_2  and  C_3
REMARK    3  A    between atoms: C_3  and  C_4
REMARK    4  A    between atoms: C_4  and  C_5
REMARK    5  A    between atoms: C_5  and  C_6
REMARK    6  A    between atoms: C_7  and  C_8
REMARK    7  A    between atoms: C_8  and  C_9
REMARK    8  A    between atoms: C_10  and  C_11
REMARK    9  A    between atoms: C_11  and  C_12
REMARK   10  A    between atoms: C_13  and  C_14
REMARK   11  A    between atoms: C_14  and  C_15
REMARK   12  A    between atoms: C_16  and  C_17
REMARK   13  A    between atoms: C_17  and  C_18
REMARK   14  A    between atoms: C_18  and  C_19
REMARK   15  A    between atoms: C_19  and  C_20
REMARK   16  A    between atoms: C_20  and  O_22
REMARK   17  A    between atoms: O_22  and  C_23
REMARK   18  A    between atoms: C_23  and  C_24
REMARK                            x       y       z     vdW  Elec       q    Type
REMARK                         _______ _______ _______ _____ _____    ______ ____
ROOT
ATOM      1  C   UNL     1       5.204   4.322  18.428  0.00  0.00    +0.000 C 
ENDROOT
BRANCH   1   3
ATOM      2  C   UNL     1       6.981   5.411  19.753  0.00  0.00    +0.000 C 
ATOM      3  C   UNL     1       5.782   4.812  19.705  0.00  0.00    +0.000 C 
BRANCH   2   4
ATOM      4  C   UNL     1       7.884   5.661  18.568  0.00  0.00    +0.000 C 
BRANCH   4   6
ATOM      5  C   UNL     1       7.160   7.065  16.624  0.00  0.00    +0.000 C 
ATOM      6  C   UNL     1       7.595   6.965  17.885  0.00  0.00    +0.000 C 
BRANCH   5   7
ATOM      7  C   UNL     1       6.981   5.883  15.729  0.00  0.00    +0.000 C 
BRANCH   7   9
ATOM      8  C   UNL     1       5.176   4.654  14.559  0.00  0.00    +0.000 C 
ATOM      9  C   UNL     1       5.580   5.711  15.278  0.00  0.00    +0.000 C 
BRANCH   8  10
ATOM     10  C   UNL     1       6.140   3.604  14.093  0.00  0.00    +0.000 C 
BRANCH  10  11
ATOM     11  C   UNL     1       6.437   3.717  12.612  0.00  0.00    +0.000 C 
BRANCH  11  12
ATOM     12  C   UNL     1       5.325   3.045  11.817  0.00  0.00    +0.000 C 
BRANCH  12  14
ATOM     13  C   UNL     1       7.236   1.670  10.971  0.00  0.00    +0.000 C 
ATOM     14  C   UNL     1       5.770   1.666  11.356  0.00  0.00    +0.000 C 
ENDBRANCH  12  14
ENDBRANCH  11  12
ENDBRANCH  10  11
ENDBRANCH   8  10
ENDBRANCH   7   9
ENDBRANCH   5   7
ENDBRANCH   4   6
ENDBRANCH   2   4
ENDBRANCH   1   3
BRANCH   1  15
ATOM     15  C   UNL     1       4.345   3.128  18.626  0.00  0.00    +0.000 C 
ATOM     16  C   UNL     1       3.225   2.887  17.929  0.00  0.00    +0.000 C 
BRANCH  16  17
ATOM     17  C   UNL     1       2.634   3.853  16.938  0.00  0.00    +0.000 C 
BRANCH  17  18
ATOM     18  C   UNL     1       1.968   5.044  17.608  0.00  0.00    +0.000 C 
BRANCH  18  19
ATOM     19  C   UNL     1       2.814   6.320  17.564  0.00  0.00    +0.000 C 
BRANCH  19  20
ATOM     20  C   UNL     1       2.500   7.162  18.774  0.00  0.00    +0.000 C 
ATOM     21  O   UNL     1       2.037   8.293  18.728  0.00  0.00    +0.000 OA
BRANCH  20  22
ATOM     22  O   UNL     1       2.816   6.493  19.909  0.00  0.00    +0.000 OA
BRANCH  22  23
ATOM     23  C   UNL     1       1.702   6.166  20.744  0.00  0.00    +0.000 C 
BRANCH  23  24
ATOM     24  C   UNL     1       1.663   4.694  20.902  0.00  0.00    +0.000 A 
ATOM     25  C   UNL     1       0.824   3.710  20.414  0.00  0.00    +0.000 A 
ATOM     26  C   UNL     1       1.247   2.496  21.006  0.00  0.00    +0.000 A 
ATOM     27  C   UNL     1       2.327   2.811  21.798  0.00  0.00    +0.000 A 
ATOM     28  O   UNL     1       2.588   4.142  21.739  0.00  0.00    +0.000 OA
ENDBRANCH  23  24
ENDBRANCH  22  23
ENDBRANCH  20  22
ENDBRANCH  19  20
ENDBRANCH  18  19
ENDBRANCH  17  18
ENDBRANCH  16  17
ENDBRANCH   1  15
TORSDOF 17
ENDMDL
MODEL 3
REMARK VINA RESULT:      -6.1      2.308      4.364
REMARK  Name = 
REMARK  18 active torsions:
REMARK  status: ('A' for Active; 'I' for Inactive)
REMARK    1  A    between atoms: C_1  and  C_2
REMARK    2  A    between atoms: C_2  and  C_3
REMARK    3  A    between atoms: C_3  and  C_4
REMARK    4  A    between atoms: C_4  and  C_5
REMARK    5  A    between atoms: C_5  and  C_6
REMARK    6  A    between atoms: C_7  and  C_8
REMARK    7  A    between atoms: C_8  and  C_9
REMARK    8  A    between atoms: C_10  and  C_11
REMARK    9  A    between atoms: C_11  and  C_12
REMARK   10  A    between atoms: C_13  and  C_14
REMARK   11  A    between atoms: C_14  and  C_15
REMARK   12  A    between atoms: C_16  and  C_17
REMARK   13  A    between atoms: C_17  and  C_18
REMARK   14  A    between atoms: C_18  and  C_19
REMARK   15  A    between atoms: C_19  and  C_20
REMARK   16  A    between atoms: C_20  and  O_22
REMARK   17  A    between atoms: O_22  and  C_23
REMARK   18  A    between atoms: C_23  and  C_24
REMARK                            x       y       z     vdW  Elec       q    Type
REMARK                         _______ _______ _______ _____ _____    ______ ____
ROOT
ATOM      1  C   UNL     1       1.194   5.202  20.553  0.00  0.00    +0.000 C 
ENDROOT
BRANCH   1   3
ATOM      2  C   UNL     1       2.806   6.758  19.514  0.00  0.00    +0.000 C 
ATOM      3  C   UNL     1       2.551   5.783  20.399  0.00  0.00    +0.000 C 
BRANCH   2   4
ATOM      4  C   UNL     1       1.794   7.379  18.580  0.00  0.00    +0.000 C 
BRANCH   4   6
ATOM      5  C   UNL     1       1.893   9.783  17.885  0.00  0.00    +0.000 C 
ATOM      6  C   UNL     1       2.356   8.531  17.801  0.00  0.00    +0.000 C 
BRANCH   5   7
ATOM      7  C   UNL     1       0.711  10.161  18.717  0.00  0.00    +0.000 C 
BRANCH   7   9
ATOM      8  C   UNL     1      -0.343  12.214  19.616  0.00  0.00    +0.000 C 
ATOM      9  C   UNL     1       0.446  11.619  18.710  0.00  0.00    +0.000 C 
BRANCH   8  10
ATOM     10  C   UNL     1      -1.075  11.427  20.661  0.00  0.00    +0.000 C 
BRANCH  10  11
ATOM     11  C   UNL     1      -0.497  11.639  22.045  0.00  0.00    +0.000 C 
BRANCH  11  12
ATOM     12  C   UNL     1      -0.764  10.409  22.903  0.00  0.00    +0.000 C 
BRANCH  12  14
ATOM     13  C   UNL     1      -0.170   8.265  21.757  0.00  0.00    +0.000 C 
ATOM     14  C   UNL     1       0.319   9.366  22.677  0.00  0.00    +0.000 C 
ENDBRANCH  12  14
ENDBRANCH  11  12
ENDBRANCH  10  11
ENDBRANCH   8  10
ENDBRANCH   7   9
ENDBRANCH   5   7
ENDBRANCH   4   6
ENDBRANCH   2   4
ENDBRANCH   1   3
BRANCH   1  15
ATOM     15  C   UNL     1       1.241   3.765  20.924  0.00  0.00    +0.000 C 
ATOM     16  C   UNL     1       1.029   2.762  20.060  0.00  0.00    +0.000 C 
BRANCH  16  17
ATOM     17  C   UNL     1       0.601   2.965  18.633  0.00  0.00    +0.000 C 
BRANCH  17  18
ATOM     18  C   UNL     1       1.729   3.475  17.751  0.00  0.00    +0.000 C 
BRANCH  18  19
ATOM     19  C   UNL     1       2.784   2.412  17.434  0.00  0.00    +0.000 C 
BRANCH  19  20
ATOM     20  C   UNL     1       3.828   2.412  18.522  0.00  0.00    +0.000 C 
ATOM     21  O   UNL     1       4.281   1.405  19.045  0.00  0.00    +0.000 OA
BRANCH  20  22
ATOM     22  O   UNL     1       4.175   3.682  18.841  0.00  0.00    +0.000 OA
BRANCH  22  23
ATOM     23  C   UNL     1       5.532   4.026  18.548  0.00  0.00    +0.000 C 
BRANCH  23  24
ATOM     24  C   UNL     1       5.559   4.700  17.229  0.00  0.00    +0.000 A 
ATOM     25  C   UNL     1       4.932   5.825  16.727  0.00  0.00    +0.000 A 
ATOM     26  C   UNL     1       5.284   5.899  15.358  0.00  0.00    +0.000 A 
ATOM     27  C   UNL     1       6.116   4.831  15.117  0.00  0.00    +0.000 A 
ATOM     28  O   UNL     1       6.291   4.099  16.247  0.00  0.00    +0.000 OA
ENDBRANCH  23  24
ENDBRANCH  22  23
ENDBRANCH  20  22
ENDBRANCH  19  20
ENDBRANCH  18  19
ENDBRANCH  17  18
ENDBRANCH  16  17
ENDBRANCH   1  15
TORSDOF 17
ENDMDL
MODEL 4
REMARK VINA RESULT:      -6.1      4.877      9.837
REMARK  Name = 
REMARK  18 active torsions:
REMARK  status: ('A' for Active; 'I' for Inactive)
REMARK    1  A    between atoms: C_1  and  C_2
REMARK    2  A    between atoms: C_2  and  C_3
REMARK    3  A    between atoms: C_3  and  C_4
REMARK    4  A    between atoms: C_4  and  C_5
REMARK    5  A    between atoms: C_5  and  C_6
REMARK    6  A    between atoms: C_7  and  C_8
REMARK    7  A    between atoms: C_8  and  C_9
REMARK    8  A    between atoms: C_10  and  C_11
REMARK    9  A    between atoms: C_11  and  C_12
REMARK   10  A    between atoms: C_13  and  C_14
REMARK   11  A    between atoms: C_14  and  C_15
REMARK   12  A    between atoms: C_16  and  C_17
REMARK   13  A    between atoms: C_17  and  C_18
REMARK   14  A    between atoms: C_18  and  C_19
REMARK   15  A    between atoms: C_19  and  C_20
REMARK   16  A    between atoms: C_20  and  O_22
REMARK   17  A    between atoms: O_22  and  C_23
REMARK   18  A    between atoms: C_23  and  C_24
REMARK                            x       y       z     vdW  Elec       q    Type
REMARK                         _______ _______ _______ _____ _____    ______ ____
ROOT
ATOM      1  C   UNL     1       1.401   8.348  17.924  0.00  0.00    +0.000 C 
ENDROOT
BRANCH   1   3
ATOM      2  C   UNL     1       2.891   6.761  19.091  0.00  0.00    +0.000 C 
ATOM      3  C   UNL     1       2.730   7.743  18.192  0.00  0.00    +0.000 C 
BRANCH   2   4
ATOM      4  C   UNL     1       1.793   6.154  19.931  0.00  0.00    +0.000 C 
BRANCH   4   6
ATOM      5  C   UNL     1       1.986   3.807  20.784  0.00  0.00    +0.000 C 
ATOM      6  C   UNL     1       2.299   5.104  20.875  0.00  0.00    +0.000 C 
BRANCH   5   7
ATOM      7  C   UNL     1       1.035   3.268  19.766  0.00  0.00    +0.000 C 
BRANCH   7   9
ATOM      8  C   UNL     1       2.317   2.265  17.899  0.00  0.00    +0.000 C 
ATOM      9  C   UNL     1       1.589   2.117  19.016  0.00  0.00    +0.000 C 
BRANCH   8  10
ATOM     10  C   UNL     1       2.556   3.612  17.287  0.00  0.00    +0.000 C 
BRANCH  10  11
ATOM     11  C   UNL     1       4.018   3.839  16.959  0.00  0.00    +0.000 C 
BRANCH  11  12
ATOM     12  C   UNL     1       4.813   3.991  18.249  0.00  0.00    +0.000 C 
BRANCH  12  14
ATOM     13  C   UNL     1       6.274   6.000  17.952  0.00  0.00    +0.000 C 
ATOM     14  C   UNL     1       6.218   4.485  17.944  0.00  0.00    +0.000 C 
ENDBRANCH  12  14
ENDBRANCH  11  12
ENDBRANCH  10  11
ENDBRANCH   8  10
ENDBRANCH   7   9
ENDBRANCH   5   7
ENDBRANCH   4   6
ENDBRANCH   2   4
ENDBRANCH   1   3
BRANCH   1  15
ATOM     15  C   UNL     1       1.399   9.815  18.150  0.00  0.00    +0.000 C 
ATOM     16  C   UNL     1       1.246  10.387  19.352  0.00  0.00    +0.000 C 
BRANCH  16  17
ATOM     17  C   UNL     1       0.938   9.620  20.609  0.00  0.00    +0.000 C 
BRANCH  17  18
ATOM     18  C   UNL     1      -0.472   9.871  21.118  0.00  0.00    +0.000 C 
BRANCH  18  19
ATOM     19  C   UNL     1      -0.514  10.590  22.469  0.00  0.00    +0.000 C 
BRANCH  19  20
ATOM     20  C   UNL     1      -1.565  11.670  22.422  0.00  0.00    +0.000 C 
ATOM     21  O   UNL     1      -2.406  11.854  23.290  0.00  0.00    +0.000 OA
BRANCH  20  22
ATOM     22  O   UNL     1      -1.450  12.390  21.281  0.00  0.00    +0.000 OA
BRANCH  22  23
ATOM     23  C   UNL     1      -2.685  12.883  20.754  0.00  0.00    +0.000 C 
BRANCH  23  24
ATOM     24  C   UNL     1      -2.893  12.267  19.422  0.00  0.00    +0.000 A 
ATOM     25  C   UNL     1      -4.011  11.793  18.762  0.00  0.00    +0.000 A 
ATOM     26  C   UNL     1      -3.547  11.227  17.550  0.00  0.00    +0.000 A 
ATOM     27  C   UNL     1      -2.184  11.411  17.538  0.00  0.00    +0.000 A 
ATOM     28  O   UNL     1      -1.778  12.043  18.669  0.00  0.00    +0.000 OA
ENDBRANCH  23  24
ENDBRANCH  22  23
ENDBRANCH  20  22
ENDBRANCH  19  20
ENDBRANCH  18  19
ENDBRANCH  17  18
ENDBRANCH  16  17
ENDBRANCH   1  15
TORSDOF 17
ENDMDL
MODEL 5
REMARK VINA RESULT:      -6.0      5.229      8.303
REMARK  Name = 
REMARK  18 active torsions:
REMARK  status: ('A' for Active; 'I' for Inactive)
REMARK    1  A    between atoms: C_1  and  C_2
REMARK    2  A    between atoms: C_2  and  C_3
REMARK    3  A    between atoms: C_3  and  C_4
REMARK    4  A    between atoms: C_4  and  C_5
REMARK    5  A    between atoms: C_5  and  C_6
REMARK    6  A    between atoms: C_7  and  C_8
REMARK    7  A    between atoms: C_8  and  C_9
REMARK    8  A    between atoms: C_10  and  C_11
REMARK    9  A    between atoms: C_11  and  C_12
REMARK   10  A    between atoms: C_13  and  C_14
REMARK   11  A    between atoms: C_14  and  C_15
REMARK   12  A    between atoms: C_16  and  C_17
REMARK   13  A    between atoms: C_17  and  C_18
REMARK   14  A    between atoms: C_18  and  C_19
REMARK   15  A    between atoms: C_19  and  C_20
REMARK   16  A    between atoms: C_20  and  O_22
REMARK   17  A    between atoms: O_22  and  C_23
REMARK   18  A    between atoms: C_23  and  C_24
REMARK                            x       y       z     vdW  Elec       q    Type
REMARK                         _______ _______ _______ _____ _____    ______ ____
ROOT
ATOM      1  C   UNL     1       6.259   5.600  19.060  0.00  0.00    +0.000 C 
ENDROOT
BRANCH   1   3
ATOM      2  C   UNL     1       5.236   3.809  17.700  0.00  0.00    +0.000 C 
ATOM      3  C   UNL     1       6.016   4.898  17.774  0.00  0.00    +0.000 C 
BRANCH   2   4
ATOM      4  C   UNL     1       4.524   3.162  18.864  0.00  0.00    +0.000 C 
BRANCH   4   6
ATOM      5  C   UNL     1       2.538   1.672  18.532  0.00  0.00    +0.000 C 
ATOM      6  C   UNL     1       3.860   1.870  18.490  0.00  0.00    +0.000 C 
BRANCH   5   7
ATOM      7  C   UNL     1       1.575   2.703  19.025  0.00  0.00    +0.000 C 
BRANCH   7   9
ATOM      8  C   UNL     1       1.520   5.048  18.230  0.00  0.00    +0.000 C 
ATOM      9  C   UNL     1       1.282   3.746  18.014  0.00  0.00    +0.000 C 
BRANCH   8  10
ATOM     10  C   UNL     1       2.032   5.548  19.547  0.00  0.00    +0.000 C 
BRANCH  10  11
ATOM     11  C   UNL     1       2.551   6.968  19.457  0.00  0.00    +0.000 C 
BRANCH  11  12
ATOM     12  C   UNL     1       3.069   7.233  18.049  0.00  0.00    +0.000 C 
BRANCH  12  14
ATOM     13  C   UNL     1       1.354   9.055  18.067  0.00  0.00    +0.000 C 
ATOM     14  C   UNL     1       2.752   8.661  17.634  0.00  0.00    +0.000 C 
ENDBRANCH  12  14
ENDBRANCH  11  12
ENDBRANCH  10  11
ENDBRANCH   8  10
ENDBRANCH   7   9
ENDBRANCH   5   7
ENDBRANCH   4   6
ENDBRANCH   2   4
ENDBRANCH   1   3
BRANCH   1  15
ATOM     15  C   UNL     1       7.686   5.970  19.232  0.00  0.00    +0.000 C 
ATOM     16  C   UNL     1       8.264   7.021  18.633  0.00  0.00    +0.000 C 
BRANCH  16  17
ATOM     17  C   UNL     1       7.572   7.890  17.619  0.00  0.00    +0.000 C 
BRANCH  17  18
ATOM     18  C   UNL     1       7.984   9.349  17.720  0.00  0.00    +0.000 C 
BRANCH  18  19
ATOM     19  C   UNL     1       8.995   9.621  18.837  0.00  0.00    +0.000 C 
BRANCH  19  20
ATOM     20  C   UNL     1       9.633  10.968  18.609  0.00  0.00    +0.000 C 
ATOM     21  O   UNL     1      10.360  11.238  17.665  0.00  0.00    +0.000 OA
BRANCH  20  22
ATOM     22  O   UNL     1       9.296  11.824  19.604  0.00  0.00    +0.000 OA
BRANCH  22  23
ATOM     23  C   UNL     1       9.289  11.249  20.914  0.00  0.00    +0.000 C 
BRANCH  23  24
ATOM     24  C   UNL     1       9.094  12.343  21.894  0.00  0.00    +0.000 A 
ATOM     25  C   UNL     1       8.379  12.444  23.071  0.00  0.00    +0.000 A 
ATOM     26  C   UNL     1       8.505  13.787  23.500  0.00  0.00    +0.000 A 
ATOM     27  C   UNL     1       9.304  14.413  22.572  0.00  0.00    +0.000 A 
ATOM     28  O   UNL     1       9.668  13.544  21.594  0.00  0.00    +0.000 OA
ENDBRANCH  23  24
ENDBRANCH  22  23
ENDBRANCH  20  22
ENDBRANCH  19  20
ENDBRANCH  18  19
ENDBRANCH  17  18
ENDBRANCH  16  17
ENDBRANCH   1  15
TORSDOF 17
ENDMDL
MODEL 6
REMARK VINA RESULT:      -6.0      2.420      4.701
REMARK  Name = 
REMARK  18 active torsions:
REMARK  status: ('A' for Active; 'I' for Inactive)
REMARK    1  A    between atoms: C_1  and  C_2
REMARK    2  A    between atoms: C_2  and  C_3
REMARK    3  A    between atoms: C_3  and  C_4
REMARK    4  A    between atoms: C_4  and  C_5
REMARK    5  A    between atoms: C_5  and  C_6
REMARK    6  A    between atoms: C_7  and  C_8
REMARK    7  A    between atoms: C_8  and  C_9
REMARK    8  A    between atoms: C_10  and  C_11
REMARK    9  A    between atoms: C_11  and  C_12
REMARK   10  A    between atoms: C_13  and  C_14
REMARK   11  A    between atoms: C_14  and  C_15
REMARK   12  A    between atoms: C_16  and  C_17
REMARK   13  A    between atoms: C_17  and  C_18
REMARK   14  A    between atoms: C_18  and  C_19
REMARK   15  A    between atoms: C_19  and  C_20
REMARK   16  A    between atoms: C_20  and  O_22
REMARK   17  A    between atoms: O_22  and  C_23
REMARK   18  A    between atoms: C_23  and  C_24
REMARK                            x       y       z     vdW  Elec       q    Type
REMARK                         _______ _______ _______ _____ _____    ______ ____
ROOT
ATOM      1  C   UNL     1       1.330   6.228  20.518  0.00  0.00    +0.000 C 
ENDROOT
BRANCH   1   3
ATOM      2  C   UNL     1       1.148   8.647  20.982  0.00  0.00    +0.000 C 
ATOM      3  C   UNL     1       1.887   7.603  20.578  0.00  0.00    +0.000 C 
BRANCH   2   4
ATOM      4  C   UNL     1      -0.298   8.582  21.413  0.00  0.00    +0.000 C 
BRANCH   4   6
ATOM      5  C   UNL     1      -0.644  10.424  23.075  0.00  0.00    +0.000 C 
ATOM      6  C   UNL     1      -0.515   9.122  22.795  0.00  0.00    +0.000 C 
BRANCH   5   7
ATOM      7  C   UNL     1      -0.518  11.496  22.042  0.00  0.00    +0.000 C 
BRANCH   7   9
ATOM      8  C   UNL     1      -2.016  12.770  20.538  0.00  0.00    +0.000 C 
ATOM      9  C   UNL     1      -1.819  12.107  21.687  0.00  0.00    +0.000 C 
BRANCH   8  10
ATOM     10  C   UNL     1      -0.903  13.003  19.562  0.00  0.00    +0.000 C 
BRANCH  10  11
ATOM     11  C   UNL     1      -0.657  11.798  18.677  0.00  0.00    +0.000 C 
BRANCH  11  12
ATOM     12  C   UNL     1      -1.833  11.616  17.727  0.00  0.00    +0.000 C 
BRANCH  12  14
ATOM     13  C   UNL     1      -2.940   9.778  16.439  0.00  0.00    +0.000 C 
ATOM     14  C   UNL     1      -2.317  10.174  17.762  0.00  0.00    +0.000 C 
ENDBRANCH  12  14
ENDBRANCH  11  12
ENDBRANCH  10  11
ENDBRANCH   8  10
ENDBRANCH   7   9
ENDBRANCH   5   7
ENDBRANCH   4   6
ENDBRANCH   2   4
ENDBRANCH   1   3
BRANCH   1  15
ATOM     15  C   UNL     1       2.301   5.211  20.993  0.00  0.00    +0.000 C 
ATOM     16  C   UNL     1       2.073   3.890  20.973  0.00  0.00    +0.000 C 
BRANCH  16  17
ATOM     17  C   UNL     1       0.758   3.276  20.576  0.00  0.00    +0.000 C 
BRANCH  17  18
ATOM     18  C   UNL     1       0.840   2.516  19.262  0.00  0.00    +0.000 C 
BRANCH  18  19
ATOM     19  C   UNL     1       2.169   2.711  18.527  0.00  0.00    +0.000 C 
BRANCH  19  20
ATOM     20  C   UNL     1       2.054   3.900  17.607  0.00  0.00    +0.000 C 
ATOM     21  O   UNL     1       1.005   4.306  17.130  0.00  0.00    +0.000 OA
BRANCH  20  22
ATOM     22  O   UNL     1       3.276   4.437  17.378  0.00  0.00    +0.000 OA
BRANCH  22  23
ATOM     23  C   UNL     1       4.321   3.485  17.165  0.00  0.00    +0.000 C 
BRANCH  23  24
ATOM     24  C   UNL     1       5.377   4.136  16.353  0.00  0.00    +0.000 A 
ATOM     25  C   UNL     1       5.995   3.806  15.163  0.00  0.00    +0.000 A 
ATOM     26  C   UNL     1       7.000   4.780  14.953  0.00  0.00    +0.000 A 
ATOM     27  C   UNL     1       6.917   5.652  16.014  0.00  0.00    +0.000 A 
ATOM     28  O   UNL     1       5.934   5.270  16.868  0.00  0.00    +0.000 OA
ENDBRANCH  23  24
ENDBRANCH  22  23
ENDBRANCH  20  22
ENDBRANCH  19  20
ENDBRANCH  18  19
ENDBRANCH  17  18
ENDBRANCH  16  17
ENDBRANCH   1  15
TORSDOF 17
ENDMDL
MODEL 7
REMARK VINA RESULT:      -5.9      2.145      4.617
REMARK  Name = 
REMARK  18 active torsions:
REMARK  status: ('A' for Active; 'I' for Inactive)
REMARK    1  A    between atoms: C_1  and  C_2
REMARK    2  A    between atoms: C_2  and  C_3
REMARK    3  A    between atoms: C_3  and  C_4
REMARK    4  A    between atoms: C_4  and  C_5
REMARK    5  A    between atoms: C_5  and  C_6
REMARK    6  A    between atoms: C_7  and  C_8
REMARK    7  A    between atoms: C_8  and  C_9
REMARK    8  A    between atoms: C_10  and  C_11
REMARK    9  A    between atoms: C_11  and  C_12
REMARK   10  A    between atoms: C_13  and  C_14
REMARK   11  A    between atoms: C_14  and  C_15
REMARK   12  A    between atoms: C_16  and  C_17
REMARK   13  A    between atoms: C_17  and  C_18
REMARK   14  A    between atoms: C_18  and  C_19
REMARK   15  A    between atoms: C_19  and  C_20
REMARK   16  A    between atoms: C_20  and  O_22
REMARK   17  A    between atoms: O_22  and  C_23
REMARK   18  A    between atoms: C_23  and  C_24
REMARK                            x       y       z     vdW  Elec       q    Type
REMARK                         _______ _______ _______ _____ _____    ______ ____
ROOT
ATOM      1  C   UNL     1       3.229   6.134  19.639  0.00  0.00    +0.000 C 
ENDROOT
BRANCH   1   3
ATOM      2  C   UNL     1       1.184   6.705  20.901  0.00  0.00    +0.000 C 
ATOM      3  C   UNL     1       1.971   5.775  20.341  0.00  0.00    +0.000 C 
BRANCH   2   4
ATOM      4  C   UNL     1       1.450   8.192  20.902  0.00  0.00    +0.000 C 
BRANCH   4   6
ATOM      5  C   UNL     1       0.316  10.197  21.886  0.00  0.00    +0.000 C 
ATOM      6  C   UNL     1       0.691   8.916  21.974  0.00  0.00    +0.000 C 
BRANCH   5   7
ATOM      7  C   UNL     1       0.676  11.074  20.732  0.00  0.00    +0.000 C 
BRANCH   7   9
ATOM      8  C   UNL     1      -1.184  11.344  19.119  0.00  0.00    +0.000 C 
ATOM      9  C   UNL     1      -0.490  11.797  20.174  0.00  0.00    +0.000 C 
BRANCH   8  10
ATOM     10  C   UNL     1      -0.775  10.105  18.381  0.00  0.00    +0.000 C 
BRANCH  10  11
ATOM     11  C   UNL     1      -1.661   9.837  17.181  0.00  0.00    +0.000 C 
BRANCH  11  12
ATOM     12  C   UNL     1      -3.123   9.960  17.589  0.00  0.00    +0.000 C 
BRANCH  12  14
ATOM     13  C   UNL     1      -3.229  10.823  15.243  0.00  0.00    +0.000 C 
ATOM     14  C   UNL     1      -3.864  10.866  16.619  0.00  0.00    +0.000 C 
ENDBRANCH  12  14
ENDBRANCH  11  12
ENDBRANCH  10  11
ENDBRANCH   8  10
ENDBRANCH   7   9
ENDBRANCH   5   7
ENDBRANCH   4   6
ENDBRANCH   2   4
ENDBRANCH   1   3
BRANCH   1  15
ATOM     15  C   UNL     1       2.971   6.746  18.311  0.00  0.00    +0.000 C 
ATOM     16  C   UNL     1       3.928   7.016  17.412  0.00  0.00    +0.000 C 
BRANCH  16  17
ATOM     17  C   UNL     1       5.398   6.842  17.680  0.00  0.00    +0.000 C 
BRANCH  17  18
ATOM     18  C   UNL     1       6.172   6.422  16.441  0.00  0.00    +0.000 C 
BRANCH  18  19
ATOM     19  C   UNL     1       5.293   5.797  15.355  0.00  0.00    +0.000 C 
BRANCH  19  20
ATOM     20  C   UNL     1       5.335   4.296  15.487  0.00  0.00    +0.000 C 
ATOM     21  O   UNL     1       6.204   3.584  15.006  0.00  0.00    +0.000 OA
BRANCH  20  22
ATOM     22  O   UNL     1       4.271   3.856  16.201  0.00  0.00    +0.000 OA
BRANCH  22  23
ATOM     23  C   UNL     1       4.602   3.188  17.422  0.00  0.00    +0.000 C 
BRANCH  23  24
ATOM     24  C   UNL     1       3.339   2.899  18.143  0.00  0.00    +0.000 A 
ATOM     25  C   UNL     1       3.053   2.254  19.330  0.00  0.00    +0.000 A 
ATOM     26  C   UNL     1       1.642   2.211  19.429  0.00  0.00    +0.000 A 
ATOM     27  C   UNL     1       1.159   2.850  18.311  0.00  0.00    +0.000 A 
ATOM     28  O   UNL     1       2.181   3.272  17.525  0.00  0.00    +0.000 OA
ENDBRANCH  23  24
ENDBRANCH  22  23
ENDBRANCH  20  22
ENDBRANCH  19  20
ENDBRANCH  18  19
ENDBRANCH  17  18
ENDBRANCH  16  17
ENDBRANCH   1  15
TORSDOF 17
ENDMDL
MODEL 8
REMARK VINA RESULT:      -5.9      2.521      5.100
REMARK  Name = 
REMARK  18 active torsions:
REMARK  status: ('A' for Active; 'I' for Inactive)
REMARK    1  A    between atoms: C_1  and  C_2
REMARK    2  A    between atoms: C_2  and  C_3
REMARK    3  A    between atoms: C_3  and  C_4
REMARK    4  A    between atoms: C_4  and  C_5
REMARK    5  A    between atoms: C_5  and  C_6
REMARK    6  A    between atoms: C_7  and  C_8
REMARK    7  A    between atoms: C_8  and  C_9
REMARK    8  A    between atoms: C_10  and  C_11
REMARK    9  A    between atoms: C_11  and  C_12
REMARK   10  A    between atoms: C_13  and  C_14
REMARK   11  A    between atoms: C_14  and  C_15
REMARK   12  A    between atoms: C_16  and  C_17
REMARK   13  A    between atoms: C_17  and  C_18
REMARK   14  A    between atoms: C_18  and  C_19
REMARK   15  A    between atoms: C_19  and  C_20
REMARK   16  A    between atoms: C_20  and  O_22
REMARK   17  A    between atoms: O_22  and  C_23
REMARK   18  A    between atoms: C_23  and  C_24
REMARK                            x       y       z     vdW  Elec       q    Type
REMARK                         _______ _______ _______ _____ _____    ______ ____
ROOT
ATOM      1  C   UNL     1       1.553   6.361  20.724  0.00  0.00    +0.000 C 
ENDROOT
BRANCH   1   3
ATOM      2  C   UNL     1       1.204   8.753  21.230  0.00  0.00    +0.000 C 
ATOM      3  C   UNL     1       2.018   7.767  20.822  0.00  0.00    +0.000 C 
BRANCH   2   4
ATOM      4  C   UNL     1      -0.243   8.585  21.628  0.00  0.00    +0.000 C 
BRANCH   4   6
ATOM      5  C   UNL     1      -0.799  10.536  23.098  0.00  0.00    +0.000 C 
ATOM      6  C   UNL     1      -0.559   9.229  22.946  0.00  0.00    +0.000 C 
BRANCH   5   7
ATOM      7  C   UNL     1      -0.709  11.517  21.975  0.00  0.00    +0.000 C 
BRANCH   7   9
ATOM      8  C   UNL     1      -2.414  12.443  20.435  0.00  0.00    +0.000 C 
ATOM      9  C   UNL     1      -2.003  12.176  21.684  0.00  0.00    +0.000 C 
BRANCH   8  10
ATOM     10  C   UNL     1      -1.549  12.157  19.244  0.00  0.00    +0.000 C 
BRANCH  10  11
ATOM     11  C   UNL     1      -1.614  10.702  18.827  0.00  0.00    +0.000 C 
BRANCH  11  12
ATOM     12  C   UNL     1      -0.678  10.468  17.649  0.00  0.00    +0.000 C 
BRANCH  12  14
ATOM     13  C   UNL     1       1.733   9.823  17.826  0.00  0.00    +0.000 C 
ATOM     14  C   UNL     1       0.301   9.349  17.971  0.00  0.00    +0.000 C 
ENDBRANCH  12  14
ENDBRANCH  11  12
ENDBRANCH  10  11
ENDBRANCH   8  10
ENDBRANCH   7   9
ENDBRANCH   5   7
ENDBRANCH   4   6
ENDBRANCH   2   4
ENDBRANCH   1   3
BRANCH   1  15
ATOM     15  C   UNL     1       1.852   5.766  19.397  0.00  0.00    +0.000 C 
ATOM     16  C   UNL     1       1.570   4.499  19.064  0.00  0.00    +0.000 C 
BRANCH  16  17
ATOM     17  C   UNL     1       1.022   3.483  20.030  0.00  0.00    +0.000 C 
BRANCH  17  18
ATOM     18  C   UNL     1       2.004   2.359  20.316  0.00  0.00    +0.000 C 
BRANCH  18  19
ATOM     19  C   UNL     1       3.076   2.195  19.235  0.00  0.00    +0.000 C 
BRANCH  19  20
ATOM     20  C   UNL     1       4.435   2.408  19.850  0.00  0.00    +0.000 C 
ATOM     21  O   UNL     1       4.769   1.991  20.950  0.00  0.00    +0.000 OA
BRANCH  20  22
ATOM     22  O   UNL     1       5.220   3.134  19.019  0.00  0.00    +0.000 OA
BRANCH  22  23
ATOM     23  C   UNL     1       5.238   4.539  19.285  0.00  0.00    +0.000 C 
BRANCH  23  24
ATOM     24  C   UNL     1       5.232   5.252  17.985  0.00  0.00    +0.000 A 
ATOM     25  C   UNL     1       4.813   6.510  17.597  0.00  0.00    +0.000 A 
ATOM     26  C   UNL     1       4.975   6.567  16.192  0.00  0.00    +0.000 A 
ATOM     27  C   UNL     1       5.501   5.353  15.817  0.00  0.00    +0.000 A 
ATOM     28  O   UNL     1       5.662   4.549  16.898  0.00  0.00    +0.000 OA
ENDBRANCH  23  24
ENDBRANCH  22  23
ENDBRANCH  20  22
ENDBRANCH  19  20
ENDBRANCH  18  19
ENDBRANCH  17  18
ENDBRANCH  16  17
ENDBRANCH   1  15
TORSDOF 17
ENDMDL
MODEL 9
REMARK VINA RESULT:      -5.9      5.806      9.647
REMARK  Name = 
REMARK  18 active torsions:
REMARK  status: ('A' for Active; 'I' for Inactive)
REMARK    1  A    between atoms: C_1  and  C_2
REMARK    2  A    between atoms: C_2  and  C_3
REMARK    3  A    between atoms: C_3  and  C_4
REMARK    4  A    between atoms: C_4  and  C_5
REMARK    5  A    between atoms: C_5  and  C_6
REMARK    6  A    between atoms: C_7  and  C_8
REMARK    7  A    between atoms: C_8  and  C_9
REMARK    8  A    between atoms: C_10  and  C_11
REMARK    9  A    between atoms: C_11  and  C_12
REMARK   10  A    between atoms: C_13  and  C_14
REMARK   11  A    between atoms: C_14  and  C_15
REMARK   12  A    between atoms: C_16  and  C_17
REMARK   13  A    between atoms: C_17  and  C_18
REMARK   14  A    between atoms: C_18  and  C_19
REMARK   15  A    between atoms: C_19  and  C_20
REMARK   16  A    between atoms: C_20  and  O_22
REMARK   17  A    between atoms: O_22  and  C_23
REMARK   18  A    between atoms: C_23  and  C_24
REMARK                            x       y       z     vdW  Elec       q    Type
REMARK                         _______ _______ _______ _____ _____    ______ ____
ROOT
ATOM      1  C   UNL     1       8.237   8.803  18.017  0.00  0.00    +0.000 C 
ENDROOT
BRANCH   1   3
ATOM      2  C   UNL     1       7.176   6.590  17.745  0.00  0.00    +0.000 C 
ATOM      3  C   UNL     1       8.136   7.348  18.294  0.00  0.00    +0.000 C 
BRANCH   2   4
ATOM      4  C   UNL     1       6.099   7.083  16.808  0.00  0.00    +0.000 C 
BRANCH   4   6
ATOM      5  C   UNL     1       3.977   5.916  17.447  0.00  0.00    +0.000 C 
ATOM      6  C   UNL     1       4.729   7.021  17.416  0.00  0.00    +0.000 C 
BRANCH   5   7
ATOM      7  C   UNL     1       4.394   4.629  16.813  0.00  0.00    +0.000 C 
BRANCH   7   9
ATOM      8  C   UNL     1       3.600   2.700  18.148  0.00  0.00    +0.000 C 
ATOM      9  C   UNL     1       4.585   3.539  17.798  0.00  0.00    +0.000 C 
BRANCH   8  10
ATOM     10  C   UNL     1       2.207   2.856  17.617  0.00  0.00    +0.000 C 
BRANCH  10  11
ATOM     11  C   UNL     1       1.285   3.520  18.619  0.00  0.00    +0.000 C 
BRANCH  11  12
ATOM     12  C   UNL     1       1.302   2.737  19.925  0.00  0.00    +0.000 C 
BRANCH  12  14
ATOM     13  C   UNL     1       1.721   5.099  20.639  0.00  0.00    +0.000 C 
ATOM     14  C   UNL     1       1.693   3.648  21.078  0.00  0.00    +0.000 C 
ENDBRANCH  12  14
ENDBRANCH  11  12
ENDBRANCH  10  11
ENDBRANCH   8  10
ENDBRANCH   7   9
ENDBRANCH   5   7
ENDBRANCH   4   6
ENDBRANCH   2   4
ENDBRANCH   1   3
BRANCH   1  15
ATOM     15  C   UNL     1       8.870   9.542  19.139  0.00  0.00    +0.000 C 
ATOM     16  C   UNL     1       9.418  10.759  19.019  0.00  0.00    +0.000 C 
BRANCH  16  17
ATOM     17  C   UNL     1       9.568  11.483  17.708  0.00  0.00    +0.000 C 
BRANCH  17  18
ATOM     18  C   UNL     1       8.595  12.642  17.565  0.00  0.00    +0.000 C 
BRANCH  18  19
ATOM     19  C   UNL     1       8.572  13.572  18.782  0.00  0.00    +0.000 C 
BRANCH  19  20
ATOM     20  C   UNL     1       8.986  14.956  18.352  0.00  0.00    +0.000 C 
ATOM     21  O   UNL     1      10.078  15.454  18.583  0.00  0.00    +0.000 OA
BRANCH  20  22
ATOM     22  O   UNL     1       7.972  15.567  17.692  0.00  0.00    +0.000 OA
BRANCH  22  23
ATOM     23  C   UNL     1       7.208  16.483  18.480  0.00  0.00    +0.000 C 
BRANCH  23  24
ATOM     24  C   UNL     1       5.896  15.856  18.768  0.00  0.00    +0.000 A 
ATOM     25  C   UNL     1       5.090  15.821  19.889  0.00  0.00    +0.000 A 
ATOM     26  C   UNL     1       4.004  14.970  19.571  0.00  0.00    +0.000 A 
ATOM     27  C   UNL     1       4.206  14.559  18.274  0.00  0.00    +0.000 A 
ATOM     28  O   UNL     1       5.350  15.094  17.778  0.00  0.00    +0.000 OA
ENDBRANCH  23  24
ENDBRANCH  22  23
ENDBRANCH  20  22
ENDBRANCH  19  20
ENDBRANCH  18  19
ENDBRANCH  17  18
ENDBRANCH  16  17
ENDBRANCH   1  15
TORSDOF 17
ENDMDL
