MODEL 1
REMARK VINA RESULT:      -8.2      0.000      0.000
REMARK  Name = 
REMARK  8 active torsions:
REMARK  status: ('A' for Active; 'I' for Inactive)
REMARK    1  A    between atoms: C_1  and  O_2
REMARK    2  A    between atoms: O_2  and  C_3
REMARK    3  A    between atoms: C_5  and  O_6
REMARK    4  A    between atoms: O_6  and  C_7
REMARK    5  A    between atoms: C_12  and  C_13
REMARK    6  A    between atoms: C_16  and  O_17
REMARK    7  A    between atoms: O_17  and  C_18
REMARK    8  A    between atoms: C_18  and  C_19
REMARK                            x       y       z     vdW  Elec       q    Type
REMARK                         _______ _______ _______ _____ _____    ______ ____
ROOT
ATOM      1  C   UNL     1       5.548   5.267  17.274  0.00  0.00    +0.000 A 
ATOM      2  C   UNL     1       5.544   4.138  18.085  0.00  0.00    +0.000 A 
ATOM      3  C   UNL     1       4.665   3.996  19.181  0.00  0.00    +0.000 A 
ATOM      4  C   UNL     1       3.762   5.040  19.457  0.00  0.00    +0.000 A 
ATOM      5  C   UNL     1       2.715   5.059  20.510  0.00  0.00    +0.000 A 
ATOM      6  O   UNL     1       2.354   4.108  21.195  0.00  0.00    +0.000 OA
ATOM      7  N   UNL     1       2.053   6.241  20.702  0.00  0.00    +0.000 N 
ATOM      8  C   UNL     1       2.174   7.331  19.888  0.00  0.00    +0.000 A 
ATOM      9  N   UNL     1       2.982   7.343  18.882  0.00  0.00    +0.000 NA
ATOM     10  C   UNL     1       3.798   6.215  18.661  0.00  0.00    +0.000 A 
ATOM     11  C   UNL     1       4.689   6.311  17.585  0.00  0.00    +0.000 A 
ATOM     12  H   UNL     1       1.324   6.189  21.397  0.00  0.00    +0.000 HD
ENDROOT
BRANCH   8  13
ATOM     13  C   UNL     1       1.308   8.486  20.227  0.00  0.00    +0.000 A 
ATOM     14  C   UNL     1       1.140   9.535  19.314  0.00  0.00    +0.000 A 
ATOM     15  C   UNL     1       0.350  10.630  19.649  0.00  0.00    +0.000 A 
ATOM     16  C   UNL     1      -0.306  10.675  20.878  0.00  0.00    +0.000 A 
ATOM     17  C   UNL     1      -0.139   9.633  21.794  0.00  0.00    +0.000 A 
ATOM     18  C   UNL     1       0.661   8.533  21.466  0.00  0.00    +0.000 A 
BRANCH  16  19
ATOM     19  O   UNL     1      -1.065  11.791  21.069  0.00  0.00    +0.000 OA
BRANCH  19  20
ATOM     20  C   UNL     1      -1.471  12.470  19.891  0.00  0.00    +0.000 C 
BRANCH  20  21
ATOM     21  C   UNL     1      -2.984  12.359  19.724  0.00  0.00    +0.000 C 
ATOM     22  O   UNL     1      -3.730  13.021  20.453  0.00  0.00    +0.000 OA
ATOM     23  N   UNL     1      -3.479  11.552  18.714  0.00  0.00    +0.000 N 
ATOM     24  C   UNL     1      -2.694  10.738  17.782  0.00  0.00    +0.000 C 
ATOM     25  C   UNL     1      -3.057  11.098  16.336  0.00  0.00    +0.000 C 
ATOM     26  O   UNL     1      -4.472  10.994  16.111  0.00  0.00    +0.000 OA
ATOM     27  C   UNL     1      -5.202  11.857  17.001  0.00  0.00    +0.000 C 
ATOM     28  C   UNL     1      -4.920  11.500  18.464  0.00  0.00    +0.000 C 
ENDBRANCH  20  21
ENDBRANCH  19  20
ENDBRANCH  16  19
ENDBRANCH   8  13
BRANCH   1  30
ATOM     29  C   UNL     1       6.342   4.435  15.211  0.00  0.00    +0.000 C 
ATOM     30  O   UNL     1       6.367   5.463  16.198  0.00  0.00    +0.000 OA
ENDBRANCH   1  30
BRANCH   3  31
ATOM     31  O   UNL     1       4.914   2.794  19.775  0.00  0.00    +0.000 OA
ATOM     32  C   UNL     1       4.177   1.625  19.493  0.00  0.00    +0.000 C 
ENDBRANCH   3  31
TORSDOF 6
ENDMDL
MODEL 2
REMARK VINA RESULT:      -8.1      1.100      1.301
REMARK  Name = 
REMARK  8 active torsions:
REMARK  status: ('A' for Active; 'I' for Inactive)
REMARK    1  A    between atoms: C_1  and  O_2
REMARK    2  A    between atoms: O_2  and  C_3
REMARK    3  A    between atoms: C_5  and  O_6
REMARK    4  A    between atoms: O_6  and  C_7
REMARK    5  A    between atoms: C_12  and  C_13
REMARK    6  A    between atoms: C_16  and  O_17
REMARK    7  A    between atoms: O_17  and  C_18
REMARK    8  A    between atoms: C_18  and  C_19
REMARK                            x       y       z     vdW  Elec       q    Type
REMARK                         _______ _______ _______ _____ _____    ______ ____
ROOT
ATOM      1  C   UNL     1       5.348   5.674  16.693  0.00  0.00    +0.000 A 
ATOM      2  C   UNL     1       5.456   4.624  17.598  0.00  0.00    +0.000 A 
ATOM      3  C   UNL     1       4.667   4.549  18.766  0.00  0.00    +0.000 A 
ATOM      4  C   UNL     1       3.740   5.577  19.018  0.00  0.00    +0.000 A 
ATOM      5  C   UNL     1       2.774   5.651  20.144  0.00  0.00    +0.000 A 
ATOM      6  O   UNL     1       2.508   4.753  20.935  0.00  0.00    +0.000 OA
ATOM      7  N   UNL     1       2.073   6.819  20.281  0.00  0.00    +0.000 N 
ATOM      8  C   UNL     1       2.084   7.834  19.367  0.00  0.00    +0.000 A 
ATOM      9  N   UNL     1       2.814   7.786  18.305  0.00  0.00    +0.000 NA
ATOM     10  C   UNL     1       3.663   6.675  18.121  0.00  0.00    +0.000 A 
ATOM     11  C   UNL     1       4.468   6.707  16.976  0.00  0.00    +0.000 A 
ATOM     12  H   UNL     1       1.401   6.801  21.032  0.00  0.00    +0.000 HD
ENDROOT
BRANCH   8  13
ATOM     13  C   UNL     1       1.193   8.980  19.669  0.00  0.00    +0.000 A 
ATOM     14  C   UNL     1       0.787   9.847  18.648  0.00  0.00    +0.000 A 
ATOM     15  C   UNL     1      -0.025  10.938  18.941  0.00  0.00    +0.000 A 
ATOM     16  C   UNL     1      -0.467  11.155  20.244  0.00  0.00    +0.000 A 
ATOM     17  C   UNL     1      -0.064  10.295  21.269  0.00  0.00    +0.000 A 
ATOM     18  C   UNL     1       0.759   9.201  20.980  0.00  0.00    +0.000 A 
BRANCH  16  19
ATOM     19  O   UNL     1      -1.275  12.244  20.390  0.00  0.00    +0.000 OA
BRANCH  19  20
ATOM     20  C   UNL     1      -2.282  12.401  19.401  0.00  0.00    +0.000 C 
BRANCH  20  21
ATOM     21  C   UNL     1      -3.658  12.424  20.063  0.00  0.00    +0.000 C 
ATOM     22  O   UNL     1      -3.778  12.873  21.207  0.00  0.00    +0.000 OA
ATOM     23  N   UNL     1      -4.749  11.987  19.331  0.00  0.00    +0.000 N 
ATOM     24  C   UNL     1      -4.729  11.454  17.966  0.00  0.00    +0.000 C 
ATOM     25  C   UNL     1      -5.688  12.253  17.076  0.00  0.00    +0.000 C 
ATOM     26  O   UNL     1      -7.010  12.296  17.638  0.00  0.00    +0.000 OA
ATOM     27  C   UNL     1      -6.994  12.886  18.951  0.00  0.00    +0.000 C 
ATOM     28  C   UNL     1      -6.094  12.088  19.899  0.00  0.00    +0.000 C 
ENDBRANCH  20  21
ENDBRANCH  19  20
ENDBRANCH  16  19
ENDBRANCH   8  13
BRANCH   1  30
ATOM     29  C   UNL     1       6.929   4.703  15.230  0.00  0.00    +0.000 C 
ATOM     30  O   UNL     1       6.077   5.802  15.543  0.00  0.00    +0.000 OA
ENDBRANCH   1  30
BRANCH   3  31
ATOM     31  O   UNL     1       5.015   3.416  19.443  0.00  0.00    +0.000 OA
ATOM     32  C   UNL     1       4.218   2.252  19.462  0.00  0.00    +0.000 C 
ENDBRANCH   3  31
TORSDOF 6
ENDMDL
MODEL 3
REMARK VINA RESULT:      -8.1      1.380      1.876
REMARK  Name = 
REMARK  8 active torsions:
REMARK  status: ('A' for Active; 'I' for Inactive)
REMARK    1  A    between atoms: C_1  and  O_2
REMARK    2  A    between atoms: O_2  and  C_3
REMARK    3  A    between atoms: C_5  and  O_6
REMARK    4  A    between atoms: O_6  and  C_7
REMARK    5  A    between atoms: C_12  and  C_13
REMARK    6  A    between atoms: C_16  and  O_17
REMARK    7  A    between atoms: O_17  and  C_18
REMARK    8  A    between atoms: C_18  and  C_19
REMARK                            x       y       z     vdW  Elec       q    Type
REMARK                         _______ _______ _______ _____ _____    ______ ____
ROOT
ATOM      1  C   UNL     1       5.576   5.427  16.581  0.00  0.00    +0.000 A 
ATOM      2  C   UNL     1       5.670   4.456  17.571  0.00  0.00    +0.000 A 
ATOM      3  C   UNL     1       4.865   4.477  18.731  0.00  0.00    +0.000 A 
ATOM      4  C   UNL     1       3.935   5.521  18.884  0.00  0.00    +0.000 A 
ATOM      5  C   UNL     1       2.954   5.687  19.986  0.00  0.00    +0.000 A 
ATOM      6  O   UNL     1       2.676   4.858  20.845  0.00  0.00    +0.000 OA
ATOM      7  N   UNL     1       2.252   6.863  20.017  0.00  0.00    +0.000 N 
ATOM      8  C   UNL     1       2.276   7.799  19.023  0.00  0.00    +0.000 A 
ATOM      9  N   UNL     1       3.021   7.663  17.978  0.00  0.00    +0.000 NA
ATOM     10  C   UNL     1       3.872   6.542  17.899  0.00  0.00    +0.000 A 
ATOM     11  C   UNL     1       4.692   6.480  16.766  0.00  0.00    +0.000 A 
ATOM     12  H   UNL     1       1.569   6.906  20.757  0.00  0.00    +0.000 HD
ENDROOT
BRANCH   8  13
ATOM     13  C   UNL     1       1.381   8.965  19.217  0.00  0.00    +0.000 A 
ATOM     14  C   UNL     1       1.322   9.978  18.251  0.00  0.00    +0.000 A 
ATOM     15  C   UNL     1       0.503  11.085  18.452  0.00  0.00    +0.000 A 
ATOM     16  C   UNL     1      -0.287  11.177  19.596  0.00  0.00    +0.000 A 
ATOM     17  C   UNL     1      -0.230  10.171  20.564  0.00  0.00    +0.000 A 
ATOM     18  C   UNL     1       0.598   9.060  20.371  0.00  0.00    +0.000 A 
BRANCH  16  19
ATOM     19  O   UNL     1      -1.059  12.299  19.657  0.00  0.00    +0.000 OA
BRANCH  19  20
ATOM     20  C   UNL     1      -2.397  12.104  20.089  0.00  0.00    +0.000 C 
BRANCH  20  21
ATOM     21  C   UNL     1      -3.315  11.952  18.878  0.00  0.00    +0.000 C 
ATOM     22  O   UNL     1      -2.855  11.532  17.811  0.00  0.00    +0.000 OA
ATOM     23  N   UNL     1      -4.660  12.240  19.029  0.00  0.00    +0.000 N 
ATOM     24  C   UNL     1      -5.318  12.725  20.246  0.00  0.00    +0.000 C 
ATOM     25  C   UNL     1      -6.478  11.795  20.622  0.00  0.00    +0.000 C 
ATOM     26  O   UNL     1      -7.390  11.626  19.525  0.00  0.00    +0.000 OA
ATOM     27  C   UNL     1      -6.718  11.087  18.373  0.00  0.00    +0.000 C 
ATOM     28  C   UNL     1      -5.584  12.011  17.918  0.00  0.00    +0.000 C 
ENDBRANCH  20  21
ENDBRANCH  19  20
ENDBRANCH  16  19
ENDBRANCH   8  13
BRANCH   1  30
ATOM     29  C   UNL     1       6.234   4.301  14.612  0.00  0.00    +0.000 C 
ATOM     30  O   UNL     1       6.320   5.461  15.435  0.00  0.00    +0.000 OA
ENDBRANCH   1  30
BRANCH   3  31
ATOM     31  O   UNL     1       5.203   3.404  19.504  0.00  0.00    +0.000 OA
ATOM     32  C   UNL     1       4.409   2.242  19.601  0.00  0.00    +0.000 C 
ENDBRANCH   3  31
TORSDOF 6
ENDMDL
MODEL 4
REMARK VINA RESULT:      -8.0      2.621      3.880
REMARK  Name = 
REMARK  8 active torsions:
REMARK  status: ('A' for Active; 'I' for Inactive)
REMARK    1  A    between atoms: C_1  and  O_2
REMARK    2  A    between atoms: O_2  and  C_3
REMARK    3  A    between atoms: C_5  and  O_6
REMARK    4  A    between atoms: O_6  and  C_7
REMARK    5  A    between atoms: C_12  and  C_13
REMARK    6  A    between atoms: C_16  and  O_17
REMARK    7  A    between atoms: O_17  and  C_18
REMARK    8  A    between atoms: C_18  and  C_19
REMARK                            x       y       z     vdW  Elec       q    Type
REMARK                         _______ _______ _______ _____ _____    ______ ____
ROOT
ATOM      1  C   UNL     1       4.847   5.201  16.974  0.00  0.00    +0.000 A 
ATOM      2  C   UNL     1       4.794   4.025  17.713  0.00  0.00    +0.000 A 
ATOM      3  C   UNL     1       4.006   3.898  18.877  0.00  0.00    +0.000 A 
ATOM      4  C   UNL     1       3.249   5.006  19.301  0.00  0.00    +0.000 A 
ATOM      5  C   UNL     1       2.309   5.059  20.449  0.00  0.00    +0.000 A 
ATOM      6  O   UNL     1       1.910   4.104  21.107  0.00  0.00    +0.000 OA
ATOM      7  N   UNL     1       1.797   6.286  20.774  0.00  0.00    +0.000 N 
ATOM      8  C   UNL     1       1.962   7.412  20.018  0.00  0.00    +0.000 A 
ATOM      9  N   UNL     1       2.674   7.412  18.942  0.00  0.00    +0.000 NA
ATOM     10  C   UNL     1       3.341   6.224  18.577  0.00  0.00    +0.000 A 
ATOM     11  C   UNL     1       4.138   6.303  17.429  0.00  0.00    +0.000 A 
ATOM     12  H   UNL     1       1.132   6.260  21.531  0.00  0.00    +0.000 HD
ENDROOT
BRANCH   8  13
ATOM     13  C   UNL     1       1.260   8.623  20.508  0.00  0.00    +0.000 A 
ATOM     14  C   UNL     1       1.019   8.793  21.877  0.00  0.00    +0.000 A 
ATOM     15  C   UNL     1       0.334   9.917  22.330  0.00  0.00    +0.000 A 
ATOM     16  C   UNL     1      -0.086  10.894  21.429  0.00  0.00    +0.000 A 
ATOM     17  C   UNL     1       0.149  10.728  20.062  0.00  0.00    +0.000 A 
ATOM     18  C   UNL     1       0.830   9.596  19.601  0.00  0.00    +0.000 A 
BRANCH  16  19
ATOM     19  O   UNL     1      -0.723  11.952  22.006  0.00  0.00    +0.000 OA
BRANCH  19  20
ATOM     20  C   UNL     1      -1.586  11.637  23.088  0.00  0.00    +0.000 C 
BRANCH  20  21
ATOM     21  C   UNL     1      -2.771  12.600  23.103  0.00  0.00    +0.000 C 
ATOM     22  O   UNL     1      -3.909  12.171  22.888  0.00  0.00    +0.000 OA
ATOM     23  N   UNL     1      -2.538  13.928  23.415  0.00  0.00    +0.000 N 
ATOM     24  C   UNL     1      -1.239  14.543  23.705  0.00  0.00    +0.000 C 
ATOM     25  C   UNL     1      -1.283  15.247  25.066  0.00  0.00    +0.000 C 
ATOM     26  O   UNL     1      -2.371  16.183  25.136  0.00  0.00    +0.000 OA
ATOM     27  C   UNL     1      -3.632  15.528  24.911  0.00  0.00    +0.000 C 
ATOM     28  C   UNL     1      -3.663  14.856  23.534  0.00  0.00    +0.000 C 
ENDBRANCH  20  21
ENDBRANCH  19  20
ENDBRANCH  16  19
ENDBRANCH   8  13
BRANCH   1  30
ATOM     29  C   UNL     1       6.230   4.223  15.328  0.00  0.00    +0.000 C 
ATOM     30  O   UNL     1       5.584   5.387  15.838  0.00  0.00    +0.000 OA
ENDBRANCH   1  30
BRANCH   3  31
ATOM     31  O   UNL     1       4.176   2.638  19.373  0.00  0.00    +0.000 OA
ATOM     32  C   UNL     1       3.617   1.490  18.772  0.00  0.00    +0.000 C 
ENDBRANCH   3  31
TORSDOF 6
ENDMDL
MODEL 5
REMARK VINA RESULT:      -8.0      2.805      3.636
REMARK  Name = 
REMARK  8 active torsions:
REMARK  status: ('A' for Active; 'I' for Inactive)
REMARK    1  A    between atoms: C_1  and  O_2
REMARK    2  A    between atoms: O_2  and  C_3
REMARK    3  A    between atoms: C_5  and  O_6
REMARK    4  A    between atoms: O_6  and  C_7
REMARK    5  A    between atoms: C_12  and  C_13
REMARK    6  A    between atoms: C_16  and  O_17
REMARK    7  A    between atoms: O_17  and  C_18
REMARK    8  A    between atoms: C_18  and  C_19
REMARK                            x       y       z     vdW  Elec       q    Type
REMARK                         _______ _______ _______ _____ _____    ______ ____
ROOT
ATOM      1  C   UNL     1       4.477   4.984  17.004  0.00  0.00    +0.000 A 
ATOM      2  C   UNL     1       4.336   3.831  17.768  0.00  0.00    +0.000 A 
ATOM      3  C   UNL     1       3.558   3.794  18.946  0.00  0.00    +0.000 A 
ATOM      4  C   UNL     1       2.905   4.971  19.357  0.00  0.00    +0.000 A 
ATOM      5  C   UNL     1       1.991   5.126  20.517  0.00  0.00    +0.000 A 
ATOM      6  O   UNL     1       1.523   4.222  21.200  0.00  0.00    +0.000 OA
ATOM      7  N   UNL     1       1.591   6.398  20.824  0.00  0.00    +0.000 N 
ATOM      8  C   UNL     1       1.839   7.491  20.042  0.00  0.00    +0.000 A 
ATOM      9  N   UNL     1       2.531   7.409  18.957  0.00  0.00    +0.000 NA
ATOM     10  C   UNL     1       3.088   6.162  18.606  0.00  0.00    +0.000 A 
ATOM     11  C   UNL     1       3.871   6.151  17.445  0.00  0.00    +0.000 A 
ATOM     12  H   UNL     1       0.938   6.443  21.590  0.00  0.00    +0.000 HD
ENDROOT
BRANCH   8  13
ATOM     13  C   UNL     1       1.249   8.766  20.517  0.00  0.00    +0.000 A 
ATOM     14  C   UNL     1       0.860   8.909  21.854  0.00  0.00    +0.000 A 
ATOM     15  C   UNL     1       0.281  10.097  22.289  0.00  0.00    +0.000 A 
ATOM     16  C   UNL     1       0.116  11.163  21.405  0.00  0.00    +0.000 A 
ATOM     17  C   UNL     1       0.499  11.025  20.069  0.00  0.00    +0.000 A 
ATOM     18  C   UNL     1       1.075   9.830  19.625  0.00  0.00    +0.000 A 
BRANCH  16  19
ATOM     19  O   UNL     1      -0.442  12.275  21.964  0.00  0.00    +0.000 OA
BRANCH  19  20
ATOM     20  C   UNL     1      -1.374  12.038  23.009  0.00  0.00    +0.000 C 
BRANCH  20  21
ATOM     21  C   UNL     1      -1.722  13.355  23.699  0.00  0.00    +0.000 C 
ATOM     22  O   UNL     1      -0.851  14.219  23.841  0.00  0.00    +0.000 OA
ATOM     23  N   UNL     1      -3.029  13.564  24.100  0.00  0.00    +0.000 N 
ATOM     24  C   UNL     1      -4.146  12.622  23.968  0.00  0.00    +0.000 C 
ATOM     25  C   UNL     1      -5.303  13.284  23.211  0.00  0.00    +0.000 C 
ATOM     26  O   UNL     1      -5.690  14.523  23.825  0.00  0.00    +0.000 OA
ATOM     27  C   UNL     1      -4.584  15.442  23.876  0.00  0.00    +0.000 C 
ATOM     28  C   UNL     1      -3.418  14.853  24.675  0.00  0.00    +0.000 C 
ENDBRANCH  20  21
ENDBRANCH  19  20
ENDBRANCH  16  19
ENDBRANCH   8  13
BRANCH   1  30
ATOM     29  C   UNL     1       6.006   3.947  15.533  0.00  0.00    +0.000 C 
ATOM     30  O   UNL     1       5.209   5.084  15.854  0.00  0.00    +0.000 OA
ENDBRANCH   1  30
BRANCH   3  31
ATOM     31  O   UNL     1       3.629   2.534  19.465  0.00  0.00    +0.000 OA
ATOM     32  C   UNL     1       3.709   1.374  18.666  0.00  0.00    +0.000 C 
ENDBRANCH   3  31
TORSDOF 6
ENDMDL
MODEL 6
REMARK VINA RESULT:      -7.9      2.332      2.739
REMARK  Name = 
REMARK  8 active torsions:
REMARK  status: ('A' for Active; 'I' for Inactive)
REMARK    1  A    between atoms: C_1  and  O_2
REMARK    2  A    between atoms: O_2  and  C_3
REMARK    3  A    between atoms: C_5  and  O_6
REMARK    4  A    between atoms: O_6  and  C_7
REMARK    5  A    between atoms: C_12  and  C_13
REMARK    6  A    between atoms: C_16  and  O_17
REMARK    7  A    between atoms: O_17  and  C_18
REMARK    8  A    between atoms: C_18  and  C_19
REMARK                            x       y       z     vdW  Elec       q    Type
REMARK                         _______ _______ _______ _____ _____    ______ ____
ROOT
ATOM      1  C   UNL     1       4.466   6.201  17.058  0.00  0.00    +0.000 A 
ATOM      2  C   UNL     1       4.562   4.958  17.673  0.00  0.00    +0.000 A 
ATOM      3  C   UNL     1       3.857   4.642  18.854  0.00  0.00    +0.000 A 
ATOM      4  C   UNL     1       3.028   5.625  19.426  0.00  0.00    +0.000 A 
ATOM      5  C   UNL     1       2.154   5.473  20.617  0.00  0.00    +0.000 A 
ATOM      6  O   UNL     1       1.881   4.425  21.190  0.00  0.00    +0.000 OA
ATOM      7  N   UNL     1       1.552   6.608  21.091  0.00  0.00    +0.000 N 
ATOM      8  C   UNL     1       1.571   7.814  20.449  0.00  0.00    +0.000 A 
ATOM      9  N   UNL     1       2.217   7.988  19.346  0.00  0.00    +0.000 NA
ATOM     10  C   UNL     1       2.967   6.912  18.828  0.00  0.00    +0.000 A 
ATOM     11  C   UNL     1       3.687   7.179  17.657  0.00  0.00    +0.000 A 
ATOM     12  H   UNL     1       0.937   6.443  21.871  0.00  0.00    +0.000 HD
ENDROOT
BRANCH   8  13
ATOM     13  C   UNL     1       0.791   8.897  21.094  0.00  0.00    +0.000 A 
ATOM     14  C   UNL     1       0.415  10.029  20.360  0.00  0.00    +0.000 A 
ATOM     15  C   UNL     1      -0.292  11.057  20.977  0.00  0.00    +0.000 A 
ATOM     16  C   UNL     1      -0.660  10.950  22.317  0.00  0.00    +0.000 A 
ATOM     17  C   UNL     1      -0.286   9.824  23.055  0.00  0.00    +0.000 A 
ATOM     18  C   UNL     1       0.432   8.792  22.441  0.00  0.00    +0.000 A 
BRANCH  16  19
ATOM     19  O   UNL     1      -1.369  12.014  22.791  0.00  0.00    +0.000 OA
BRANCH  19  20
ATOM     20  C   UNL     1      -2.422  12.474  21.957  0.00  0.00    +0.000 C 
BRANCH  20  21
ATOM     21  C   UNL     1      -3.713  12.582  22.766  0.00  0.00    +0.000 C 
ATOM     22  O   UNL     1      -3.672  12.491  23.997  0.00  0.00    +0.000 OA
ATOM     23  N   UNL     1      -4.894  12.837  22.092  0.00  0.00    +0.000 N 
ATOM     24  C   UNL     1      -5.060  12.982  20.643  0.00  0.00    +0.000 C 
ATOM     25  C   UNL     1      -5.729  14.324  20.323  0.00  0.00    +0.000 C 
ATOM     26  O   UNL     1      -6.963  14.479  21.043  0.00  0.00    +0.000 OA
ATOM     27  C   UNL     1      -6.746  14.395  22.463  0.00  0.00    +0.000 C 
ATOM     28  C   UNL     1      -6.132  13.045  22.845  0.00  0.00    +0.000 C 
ENDBRANCH  20  21
ENDBRANCH  19  20
ENDBRANCH  16  19
ENDBRANCH   8  13
BRANCH   1  30
ATOM     29  C   UNL     1       5.639   5.495  15.133  0.00  0.00    +0.000 C 
ATOM     30  O   UNL     1       5.117   6.568  15.914  0.00  0.00    +0.000 OA
ENDBRANCH   1  30
BRANCH   3  31
ATOM     31  O   UNL     1       4.169   3.361  19.208  0.00  0.00    +0.000 OA
ATOM     32  C   UNL     1       3.354   2.253  18.893  0.00  0.00    +0.000 C 
ENDBRANCH   3  31
TORSDOF 6
ENDMDL
MODEL 7
REMARK VINA RESULT:      -7.9      2.750      3.640
REMARK  Name = 
REMARK  8 active torsions:
REMARK  status: ('A' for Active; 'I' for Inactive)
REMARK    1  A    between atoms: C_1  and  O_2
REMARK    2  A    between atoms: O_2  and  C_3
REMARK    3  A    between atoms: C_5  and  O_6
REMARK    4  A    between atoms: O_6  and  C_7
REMARK    5  A    between atoms: C_12  and  C_13
REMARK    6  A    between atoms: C_16  and  O_17
REMARK    7  A    between atoms: O_17  and  C_18
REMARK    8  A    between atoms: C_18  and  C_19
REMARK                            x       y       z     vdW  Elec       q    Type
REMARK                         _______ _______ _______ _____ _____    ______ ____
ROOT
ATOM      1  C   UNL     1       4.676   5.047  16.996  0.00  0.00    +0.000 A 
ATOM      2  C   UNL     1       4.530   3.854  17.694  0.00  0.00    +0.000 A 
ATOM      3  C   UNL     1       3.714   3.744  18.840  0.00  0.00    +0.000 A 
ATOM      4  C   UNL     1       3.026   4.886  19.288  0.00  0.00    +0.000 A 
ATOM      5  C   UNL     1       2.070   4.966  20.422  0.00  0.00    +0.000 A 
ATOM      6  O   UNL     1       1.596   4.020  21.041  0.00  0.00    +0.000 OA
ATOM      7  N   UNL     1       1.637   6.214  20.779  0.00  0.00    +0.000 N 
ATOM      8  C   UNL     1       1.891   7.350  20.064  0.00  0.00    +0.000 A 
ATOM      9  N   UNL     1       2.621   7.336  19.001  0.00  0.00    +0.000 NA
ATOM     10  C   UNL     1       3.213   6.118  18.606  0.00  0.00    +0.000 A 
ATOM     11  C   UNL     1       4.034   6.179  17.475  0.00  0.00    +0.000 A 
ATOM     12  H   UNL     1       0.957   6.209  21.524  0.00  0.00    +0.000 HD
ENDROOT
BRANCH   8  13
ATOM     13  C   UNL     1       1.263   8.589  20.583  0.00  0.00    +0.000 A 
ATOM     14  C   UNL     1       1.148   8.798  21.963  0.00  0.00    +0.000 A 
ATOM     15  C   UNL     1       0.532   9.948  22.445  0.00  0.00    +0.000 A 
ATOM     16  C   UNL     1       0.057  10.914  21.560  0.00  0.00    +0.000 A 
ATOM     17  C   UNL     1       0.165  10.710  20.182  0.00  0.00    +0.000 A 
ATOM     18  C   UNL     1       0.777   9.551  19.692  0.00  0.00    +0.000 A 
BRANCH  16  19
ATOM     19  O   UNL     1      -0.503  12.002  22.163  0.00  0.00    +0.000 OA
BRANCH  19  20
ATOM     20  C   UNL     1      -0.698  13.136  21.331  0.00  0.00    +0.000 C 
BRANCH  20  21
ATOM     21  C   UNL     1       0.508  14.066  21.433  0.00  0.00    +0.000 C 
ATOM     22  O   UNL     1       0.894  14.447  22.542  0.00  0.00    +0.000 OA
ATOM     23  N   UNL     1       1.173  14.414  20.270  0.00  0.00    +0.000 N 
ATOM     24  C   UNL     1       0.819  14.009  18.906  0.00  0.00    +0.000 C 
ATOM     25  C   UNL     1       2.018  13.334  18.230  0.00  0.00    +0.000 C 
ATOM     26  O   UNL     1       3.185  14.172  18.277  0.00  0.00    +0.000 OA
ATOM     27  C   UNL     1       3.537  14.491  19.636  0.00  0.00    +0.000 C 
ATOM     28  C   UNL     1       2.391  15.223  20.341  0.00  0.00    +0.000 C 
ENDBRANCH  20  21
ENDBRANCH  19  20
ENDBRANCH  16  19
ENDBRANCH   8  13
BRANCH   1  30
ATOM     29  C   UNL     1       5.902   4.020  15.258  0.00  0.00    +0.000 C 
ATOM     30  O   UNL     1       5.444   5.219  15.878  0.00  0.00    +0.000 OA
ENDBRANCH   1  30
BRANCH   3  31
ATOM     31  O   UNL     1       3.790   2.460  19.296  0.00  0.00    +0.000 OA
ATOM     32  C   UNL     1       4.636   2.064  20.353  0.00  0.00    +0.000 C 
ENDBRANCH   3  31
TORSDOF 6
ENDMDL
MODEL 8
REMARK VINA RESULT:      -7.8      2.482      3.812
REMARK  Name = 
REMARK  8 active torsions:
REMARK  status: ('A' for Active; 'I' for Inactive)
REMARK    1  A    between atoms: C_1  and  O_2
REMARK    2  A    between atoms: O_2  and  C_3
REMARK    3  A    between atoms: C_5  and  O_6
REMARK    4  A    between atoms: O_6  and  C_7
REMARK    5  A    between atoms: C_12  and  C_13
REMARK    6  A    between atoms: C_16  and  O_17
REMARK    7  A    between atoms: O_17  and  C_18
REMARK    8  A    between atoms: C_18  and  C_19
REMARK                            x       y       z     vdW  Elec       q    Type
REMARK                         _______ _______ _______ _____ _____    ______ ____
ROOT
ATOM      1  C   UNL     1       5.304   5.477  16.497  0.00  0.00    +0.000 A 
ATOM      2  C   UNL     1       5.410   4.425  17.399  0.00  0.00    +0.000 A 
ATOM      3  C   UNL     1       4.656   4.371  18.591  0.00  0.00    +0.000 A 
ATOM      4  C   UNL     1       3.767   5.424  18.872  0.00  0.00    +0.000 A 
ATOM      5  C   UNL     1       2.838   5.525  20.027  0.00  0.00    +0.000 A 
ATOM      6  O   UNL     1       2.572   4.635  20.826  0.00  0.00    +0.000 OA
ATOM      7  N   UNL     1       2.175   6.713  20.185  0.00  0.00    +0.000 N 
ATOM      8  C   UNL     1       2.186   7.727  19.270  0.00  0.00    +0.000 A 
ATOM      9  N   UNL     1       2.881   7.659  18.186  0.00  0.00    +0.000 NA
ATOM     10  C   UNL     1       3.693   6.525  17.977  0.00  0.00    +0.000 A 
ATOM     11  C   UNL     1       4.462   6.535  16.807  0.00  0.00    +0.000 A 
ATOM     12  H   UNL     1       1.526   6.713  20.956  0.00  0.00    +0.000 HD
ENDROOT
BRANCH   8  13
ATOM     13  C   UNL     1       1.337   8.897  19.600  0.00  0.00    +0.000 A 
ATOM     14  C   UNL     1       0.765   9.018  20.873  0.00  0.00    +0.000 A 
ATOM     15  C   UNL     1      -0.054  10.103  21.169  0.00  0.00    +0.000 A 
ATOM     16  C   UNL     1      -0.282  11.092  20.214  0.00  0.00    +0.000 A 
ATOM     17  C   UNL     1       0.283  10.976  18.942  0.00  0.00    +0.000 A 
ATOM     18  C   UNL     1       1.101   9.883  18.636  0.00  0.00    +0.000 A 
BRANCH  16  19
ATOM     19  O   UNL     1      -1.083  12.110  20.640  0.00  0.00    +0.000 OA
BRANCH  19  20
ATOM     20  C   UNL     1      -1.568  11.998  21.970  0.00  0.00    +0.000 C 
BRANCH  20  21
ATOM     21  C   UNL     1      -1.069  13.175  22.804  0.00  0.00    +0.000 C 
ATOM     22  O   UNL     1       0.070  13.615  22.620  0.00  0.00    +0.000 OA
ATOM     23  N   UNL     1      -1.938  13.755  23.712  0.00  0.00    +0.000 N 
ATOM     24  C   UNL     1      -3.312  13.332  24.000  0.00  0.00    +0.000 C 
ATOM     25  C   UNL     1      -4.274  14.510  23.813  0.00  0.00    +0.000 C 
ATOM     26  O   UNL     1      -3.867  15.648  24.590  0.00  0.00    +0.000 OA
ATOM     27  C   UNL     1      -2.540  16.071  24.230  0.00  0.00    +0.000 C 
ATOM     28  C   UNL     1      -1.525  14.946  24.456  0.00  0.00    +0.000 C 
ENDBRANCH  20  21
ENDBRANCH  19  20
ENDBRANCH  16  19
ENDBRANCH   8  13
BRANCH   1  30
ATOM     29  C   UNL     1       6.194   4.368  14.611  0.00  0.00    +0.000 C 
ATOM     30  O   UNL     1       6.000   5.586  15.326  0.00  0.00    +0.000 OA
ENDBRANCH   1  30
BRANCH   3  31
ATOM     31  O   UNL     1       4.993   3.229  19.258  0.00  0.00    +0.000 OA
ATOM     32  C   UNL     1       4.174   2.080  19.284  0.00  0.00    +0.000 C 
ENDBRANCH   3  31
TORSDOF 6
ENDMDL
MODEL 9
REMARK VINA RESULT:      -7.8      2.770      9.553
REMARK  Name = 
REMARK  8 active torsions:
REMARK  status: ('A' for Active; 'I' for Inactive)
REMARK    1  A    between atoms: C_1  and  O_2
REMARK    2  A    between atoms: O_2  and  C_3
REMARK    3  A    between atoms: C_5  and  O_6
REMARK    4  A    between atoms: O_6  and  C_7
REMARK    5  A    between atoms: C_12  and  C_13
REMARK    6  A    between atoms: C_16  and  O_17
REMARK    7  A    between atoms: O_17  and  C_18
REMARK    8  A    between atoms: C_18  and  C_19
REMARK                            x       y       z     vdW  Elec       q    Type
REMARK                         _______ _______ _______ _____ _____    ______ ____
ROOT
ATOM      1  C   UNL     1      -0.126  13.186  19.647  0.00  0.00    +0.000 A 
ATOM      2  C   UNL     1      -0.666  13.367  20.915  0.00  0.00    +0.000 A 
ATOM      3  C   UNL     1      -0.621  12.364  21.907  0.00  0.00    +0.000 A 
ATOM      4  C   UNL     1      -0.005  11.138  21.596  0.00  0.00    +0.000 A 
ATOM      5  C   UNL     1       0.208   9.988  22.511  0.00  0.00    +0.000 A 
ATOM      6  O   UNL     1       0.040   9.984  23.725  0.00  0.00    +0.000 OA
ATOM      7  N   UNL     1       0.689   8.835  21.953  0.00  0.00    +0.000 N 
ATOM      8  C   UNL     1       1.136   8.731  20.666  0.00  0.00    +0.000 A 
ATOM      9  N   UNL     1       1.087   9.726  19.846  0.00  0.00    +0.000 NA
ATOM     10  C   UNL     1       0.503  10.933  20.286  0.00  0.00    +0.000 A 
ATOM     11  C   UNL     1       0.433  11.957  19.334  0.00  0.00    +0.000 A 
ATOM     12  H   UNL     1       0.858   8.101  22.623  0.00  0.00    +0.000 HD
ENDROOT
BRANCH   8  13
ATOM     13  C   UNL     1       1.690   7.411  20.283  0.00  0.00    +0.000 A 
ATOM     14  C   UNL     1       1.364   6.267  21.023  0.00  0.00    +0.000 A 
ATOM     15  C   UNL     1       1.910   5.035  20.678  0.00  0.00    +0.000 A 
ATOM     16  C   UNL     1       2.754   4.924  19.575  0.00  0.00    +0.000 A 
ATOM     17  C   UNL     1       3.086   6.061  18.834  0.00  0.00    +0.000 A 
ATOM     18  C   UNL     1       2.546   7.305  19.182  0.00  0.00    +0.000 A 
BRANCH  16  19
ATOM     19  O   UNL     1       3.200   3.658  19.333  0.00  0.00    +0.000 OA
BRANCH  19  20
ATOM     20  C   UNL     1       4.569   3.544  18.974  0.00  0.00    +0.000 C 
BRANCH  20  21
ATOM     21  C   UNL     1       4.699   3.440  17.457  0.00  0.00    +0.000 C 
ATOM     22  O   UNL     1       3.768   2.973  16.794  0.00  0.00    +0.000 OA
ATOM     23  N   UNL     1       5.847   3.929  16.858  0.00  0.00    +0.000 N 
ATOM     24  C   UNL     1       7.004   4.520  17.538  0.00  0.00    +0.000 C 
ATOM     25  C   UNL     1       7.288   5.917  16.973  0.00  0.00    +0.000 C 
ATOM     26  O   UNL     1       7.440   5.882  15.545  0.00  0.00    +0.000 OA
ATOM     27  C   UNL     1       6.258   5.358  14.912  0.00  0.00    +0.000 C 
ATOM     28  C   UNL     1       5.962   3.936  15.399  0.00  0.00    +0.000 C 
ENDBRANCH  20  21
ENDBRANCH  19  20
ENDBRANCH  16  19
ENDBRANCH   8  13
BRANCH   1  30
ATOM     29  C   UNL     1       0.562  15.329  18.930  0.00  0.00    +0.000 C 
ATOM     30  O   UNL     1      -0.132  14.117  18.646  0.00  0.00    +0.000 OA
ENDBRANCH   1  30
BRANCH   3  31
ATOM     31  O   UNL     1      -1.239  12.842  23.026  0.00  0.00    +0.000 OA
ATOM     32  C   UNL     1      -1.140  14.184  23.450  0.00  0.00    +0.000 C 
ENDBRANCH   3  31
TORSDOF 6
ENDMDL
