MODEL 1
REMARK VINA RESULT:      -7.4      0.000      0.000
REMARK  Name = 
REMARK  13 active torsions:
REMARK  status: ('A' for Active; 'I' for Inactive)
REMARK    1  A    between atoms: C_1  and  O_2
REMARK    2  A    between atoms: O_2  and  C_3
REMARK    3  A    between atoms: C_3  and  C_5
REMARK    4  A    between atoms: C_5  and  N_6
REMARK    5  A    between atoms: C_5  and  C_29
REMARK    6  A    between atoms: C_7  and  C_9
REMARK    7  A    between atoms: C_9  and  C_10
REMARK    8  A    between atoms: C_10  and  C_11
REMARK    9  A    between atoms: C_12  and  C_13
REMARK   10  A    between atoms: C_17  and  C_18
REMARK   11  A    between atoms: C_27  and  C_28
REMARK   12  A    between atoms: C_29  and  C_30
REMARK   13  A    between atoms: C_29  and  C_31
REMARK                            x       y       z     vdW  Elec       q    Type
REMARK                         _______ _______ _______ _____ _____    ______ ____
ROOT
ATOM      1  C   UNL     1       0.674  10.954  20.286  0.00  0.00    +0.000 A 
ATOM      2  C   UNL     1       1.230  11.479  18.958  0.00  0.00    +0.000 A 
ATOM      3  C   UNL     1       1.054  12.937  18.574  0.00  0.00    +0.000 C 
ATOM      4  N   UNL     1       1.879  10.768  18.082  0.00  0.00    +0.000 NA
ATOM      5  C   UNL     1       2.033   9.448  18.352  0.00  0.00    +0.000 A 
ATOM      6  C   UNL     1       2.638   8.448  17.633  0.00  0.00    +0.000 A 
ATOM      7  C   UNL     1       2.467   7.264  18.387  0.00  0.00    +0.000 A 
ATOM      8  N   UNL     1       1.796   7.523  19.521  0.00  0.00    +0.000 NA
ATOM      9  N   UNL     1       1.531   8.857  19.503  0.00  0.00    +0.000 N 
ATOM     10  C   UNL     1       0.850   9.618  20.475  0.00  0.00    +0.000 A 
ATOM     11  C   UNL     1       0.331   8.847  21.657  0.00  0.00    +0.000 C 
ENDROOT
BRANCH   7  12
ATOM     12  C   UNL     1       2.928   5.910  18.056  0.00  0.00    +0.000 A 
ATOM     13  C   UNL     1       4.256   5.679  17.656  0.00  0.00    +0.000 A 
ATOM     14  C   UNL     1       4.696   4.392  17.322  0.00  0.00    +0.000 A 
ATOM     15  C   UNL     1       3.810   3.321  17.386  0.00  0.00    +0.000 A 
ATOM     16  C   UNL     1       2.500   3.543  17.790  0.00  0.00    +0.000 A 
ATOM     17  F   UNL     1       1.647   2.512  17.852  0.00  0.00    +0.000 F 
ATOM     18  C   UNL     1       2.052   4.817  18.124  0.00  0.00    +0.000 A 
ENDBRANCH   7  12
BRANCH   1  19
ATOM     19  C   UNL     1      -0.009  11.950  21.207  0.00  0.00    +0.000 C 
BRANCH  19  20
ATOM     20  C   UNL     1      -1.532  11.900  21.367  0.00  0.00    +0.000 C 
BRANCH  20  22
ATOM     21  N   UNL     1      -2.733  11.287  19.373  0.00  0.00    +0.000 N 
ATOM     22  C   UNL     1      -2.240  12.344  20.104  0.00  0.00    +0.000 C 
ATOM     23  O   UNL     1      -2.313  13.512  19.743  0.00  0.00    +0.000 OA
ATOM     24  H   UNL     1      -2.865  10.391  19.829  0.00  0.00    +0.000 HD
BRANCH  21  25
ATOM     25  C   UNL     1      -3.402  11.481  18.085  0.00  0.00    +0.000 C 
BRANCH  25  26
ATOM     26  C   UNL     1      -2.966  10.420  17.050  0.00  0.00    +0.000 C 
ATOM     27  C   UNL     1      -3.030  10.985  15.625  0.00  0.00    +0.000 C 
ATOM     28  C   UNL     1      -1.570   9.847  17.310  0.00  0.00    +0.000 C 
ENDBRANCH  25  26
BRANCH  25  29
ATOM     29  C   UNL     1      -4.919  11.479  18.304  0.00  0.00    +0.000 C 
ATOM     30  O   UNL     1      -5.579  10.471  18.536  0.00  0.00    +0.000 OA
BRANCH  29  32
ATOM     31  C   UNL     1      -6.421  12.863  17.144  0.00  0.00    +0.000 C 
ATOM     32  O   UNL     1      -5.424  12.735  18.161  0.00  0.00    +0.000 OA
ENDBRANCH  29  32
ENDBRANCH  25  29
ENDBRANCH  21  25
ENDBRANCH  20  22
ENDBRANCH  19  20
ENDBRANCH   1  19
TORSDOF 8
ENDMDL
MODEL 2
REMARK VINA RESULT:      -7.4      0.880      1.382
REMARK  Name = 
REMARK  13 active torsions:
REMARK  status: ('A' for Active; 'I' for Inactive)
REMARK    1  A    between atoms: C_1  and  O_2
REMARK    2  A    between atoms: O_2  and  C_3
REMARK    3  A    between atoms: C_3  and  C_5
REMARK    4  A    between atoms: C_5  and  N_6
REMARK    5  A    between atoms: C_5  and  C_29
REMARK    6  A    between atoms: C_7  and  C_9
REMARK    7  A    between atoms: C_9  and  C_10
REMARK    8  A    between atoms: C_10  and  C_11
REMARK    9  A    between atoms: C_12  and  C_13
REMARK   10  A    between atoms: C_17  and  C_18
REMARK   11  A    between atoms: C_27  and  C_28
REMARK   12  A    between atoms: C_29  and  C_30
REMARK   13  A    between atoms: C_29  and  C_31
REMARK                            x       y       z     vdW  Elec       q    Type
REMARK                         _______ _______ _______ _____ _____    ______ ____
ROOT
ATOM      1  C   UNL     1       0.751  10.835  20.348  0.00  0.00    +0.000 A 
ATOM      2  C   UNL     1       1.272  11.360  19.006  0.00  0.00    +0.000 A 
ATOM      3  C   UNL     1       1.115  12.825  18.640  0.00  0.00    +0.000 C 
ATOM      4  N   UNL     1       1.877  10.644  18.103  0.00  0.00    +0.000 NA
ATOM      5  C   UNL     1       2.011   9.319  18.357  0.00  0.00    +0.000 A 
ATOM      6  C   UNL     1       2.570   8.312  17.610  0.00  0.00    +0.000 A 
ATOM      7  C   UNL     1       2.400   7.126  18.360  0.00  0.00    +0.000 A 
ATOM      8  N   UNL     1       1.774   7.388  19.518  0.00  0.00    +0.000 NA
ATOM      9  N   UNL     1       1.537   8.728  19.519  0.00  0.00    +0.000 N 
ATOM     10  C   UNL     1       0.905   9.494  20.520  0.00  0.00    +0.000 A 
ATOM     11  C   UNL     1       0.410   8.724  21.713  0.00  0.00    +0.000 C 
ENDROOT
BRANCH   7  12
ATOM     12  C   UNL     1       2.820   5.765  18.002  0.00  0.00    +0.000 A 
ATOM     13  C   UNL     1       2.003   4.658  18.295  0.00  0.00    +0.000 A 
ATOM     14  C   UNL     1       2.407   3.356  17.972  0.00  0.00    +0.000 A 
ATOM     15  C   UNL     1       3.635   3.149  17.351  0.00  0.00    +0.000 A 
ATOM     16  C   UNL     1       4.441   4.239  17.052  0.00  0.00    +0.000 A 
ATOM     17  F   UNL     1       5.623   4.040  16.454  0.00  0.00    +0.000 F 
ATOM     18  C   UNL     1       4.050   5.536  17.368  0.00  0.00    +0.000 A 
ENDBRANCH   7  12
BRANCH   1  19
ATOM     19  C   UNL     1       0.121  11.837  21.300  0.00  0.00    +0.000 C 
BRANCH  19  20
ATOM     20  C   UNL     1      -1.403  11.875  21.447  0.00  0.00    +0.000 C 
BRANCH  20  22
ATOM     21  N   UNL     1      -2.490  11.490  19.333  0.00  0.00    +0.000 N 
ATOM     22  C   UNL     1      -2.068  12.457  20.216  0.00  0.00    +0.000 C 
ATOM     23  O   UNL     1      -2.164  13.660  20.003  0.00  0.00    +0.000 OA
ATOM     24  H   UNL     1      -2.613  10.540  19.665  0.00  0.00    +0.000 HD
BRANCH  21  25
ATOM     25  C   UNL     1      -3.106  11.829  18.049  0.00  0.00    +0.000 C 
BRANCH  25  26
ATOM     26  C   UNL     1      -2.349  11.185  16.866  0.00  0.00    +0.000 C 
ATOM     27  C   UNL     1      -1.676   9.874  17.294  0.00  0.00    +0.000 C 
ATOM     28  C   UNL     1      -3.231  10.929  15.639  0.00  0.00    +0.000 C 
ENDBRANCH  25  26
BRANCH  25  29
ATOM     29  C   UNL     1      -4.582  11.419  18.077  0.00  0.00    +0.000 C 
ATOM     30  O   UNL     1      -4.974  10.276  18.292  0.00  0.00    +0.000 OA
BRANCH  29  32
ATOM     31  C   UNL     1      -6.734  12.146  17.481  0.00  0.00    +0.000 C 
ATOM     32  O   UNL     1      -5.380  12.483  17.789  0.00  0.00    +0.000 OA
ENDBRANCH  29  32
ENDBRANCH  25  29
ENDBRANCH  21  25
ENDBRANCH  20  22
ENDBRANCH  19  20
ENDBRANCH   1  19
TORSDOF 8
ENDMDL
MODEL 3
REMARK VINA RESULT:      -7.2      3.149      5.462
REMARK  Name = 
REMARK  13 active torsions:
REMARK  status: ('A' for Active; 'I' for Inactive)
REMARK    1  A    between atoms: C_1  and  O_2
REMARK    2  A    between atoms: O_2  and  C_3
REMARK    3  A    between atoms: C_3  and  C_5
REMARK    4  A    between atoms: C_5  and  N_6
REMARK    5  A    between atoms: C_5  and  C_29
REMARK    6  A    between atoms: C_7  and  C_9
REMARK    7  A    between atoms: C_9  and  C_10
REMARK    8  A    between atoms: C_10  and  C_11
REMARK    9  A    between atoms: C_12  and  C_13
REMARK   10  A    between atoms: C_17  and  C_18
REMARK   11  A    between atoms: C_27  and  C_28
REMARK   12  A    between atoms: C_29  and  C_30
REMARK   13  A    between atoms: C_29  and  C_31
REMARK                            x       y       z     vdW  Elec       q    Type
REMARK                         _______ _______ _______ _____ _____    ______ ____
ROOT
ATOM      1  C   UNL     1       2.447   5.931  19.593  0.00  0.00    +0.000 A 
ATOM      2  C   UNL     1       2.734   4.462  19.922  0.00  0.00    +0.000 A 
ATOM      3  C   UNL     1       2.220   3.849  21.212  0.00  0.00    +0.000 C 
ATOM      4  N   UNL     1       3.402   3.640  19.166  0.00  0.00    +0.000 NA
ATOM      5  C   UNL     1       3.920   4.141  18.018  0.00  0.00    +0.000 A 
ATOM      6  C   UNL     1       4.676   3.548  17.038  0.00  0.00    +0.000 A 
ATOM      7  C   UNL     1       4.959   4.561  16.094  0.00  0.00    +0.000 A 
ATOM      8  N   UNL     1       4.398   5.721  16.467  0.00  0.00    +0.000 NA
ATOM      9  N   UNL     1       3.761   5.467  17.643  0.00  0.00    +0.000 N 
ATOM     10  C   UNL     1       3.017   6.365  18.435  0.00  0.00    +0.000 A 
ATOM     11  C   UNL     1       2.950   7.779  17.929  0.00  0.00    +0.000 C 
ENDROOT
BRANCH   7  12
ATOM     12  C   UNL     1       5.739   4.446  14.854  0.00  0.00    +0.000 A 
ATOM     13  C   UNL     1       6.955   5.137  14.703  0.00  0.00    +0.000 A 
ATOM     14  C   UNL     1       7.694   5.045  13.517  0.00  0.00    +0.000 A 
ATOM     15  C   UNL     1       7.224   4.258  12.469  0.00  0.00    +0.000 A 
ATOM     16  C   UNL     1       6.029   3.567  12.618  0.00  0.00    +0.000 A 
ATOM     17  F   UNL     1       5.577   2.809  11.611  0.00  0.00    +0.000 F 
ATOM     18  C   UNL     1       5.287   3.651  13.792  0.00  0.00    +0.000 A 
ENDBRANCH   7  12
BRANCH   1  19
ATOM     19  C   UNL     1       1.600   6.721  20.575  0.00  0.00    +0.000 C 
BRANCH  19  20
ATOM     20  C   UNL     1       1.772   8.240  20.660  0.00  0.00    +0.000 C 
BRANCH  20  22
ATOM     21  N   UNL     1       0.338  10.100  20.127  0.00  0.00    +0.000 N 
ATOM     22  C   UNL     1       0.444   8.941  20.862  0.00  0.00    +0.000 C 
ATOM     23  O   UNL     1      -0.416   8.550  21.641  0.00  0.00    +0.000 OA
ATOM     24  H   UNL     1       0.953  10.237  19.332  0.00  0.00    +0.000 HD
BRANCH  21  25
ATOM     25  C   UNL     1      -0.837  10.969  20.215  0.00  0.00    +0.000 C 
BRANCH  25  26
ATOM     26  C   UNL     1      -0.535  12.257  21.013  0.00  0.00    +0.000 C 
ATOM     27  C   UNL     1      -0.976  12.113  22.476  0.00  0.00    +0.000 C 
ATOM     28  C   UNL     1       0.936  12.680  20.963  0.00  0.00    +0.000 C 
ENDBRANCH  25  26
BRANCH  25  29
ATOM     29  C   UNL     1      -1.340  11.275  18.801  0.00  0.00    +0.000 C 
ATOM     30  O   UNL     1      -1.058  12.293  18.175  0.00  0.00    +0.000 OA
BRANCH  29  32
ATOM     31  C   UNL     1      -1.929   9.860  17.021  0.00  0.00    +0.000 C 
ATOM     32  O   UNL     1      -2.168  10.287  18.364  0.00  0.00    +0.000 OA
ENDBRANCH  29  32
ENDBRANCH  25  29
ENDBRANCH  21  25
ENDBRANCH  20  22
ENDBRANCH  19  20
ENDBRANCH   1  19
TORSDOF 8
ENDMDL
MODEL 4
REMARK VINA RESULT:      -7.1      1.525      2.370
REMARK  Name = 
REMARK  13 active torsions:
REMARK  status: ('A' for Active; 'I' for Inactive)
REMARK    1  A    between atoms: C_1  and  O_2
REMARK    2  A    between atoms: O_2  and  C_3
REMARK    3  A    between atoms: C_3  and  C_5
REMARK    4  A    between atoms: C_5  and  N_6
REMARK    5  A    between atoms: C_5  and  C_29
REMARK    6  A    between atoms: C_7  and  C_9
REMARK    7  A    between atoms: C_9  and  C_10
REMARK    8  A    between atoms: C_10  and  C_11
REMARK    9  A    between atoms: C_12  and  C_13
REMARK   10  A    between atoms: C_17  and  C_18
REMARK   11  A    between atoms: C_27  and  C_28
REMARK   12  A    between atoms: C_29  and  C_30
REMARK   13  A    between atoms: C_29  and  C_31
REMARK                            x       y       z     vdW  Elec       q    Type
REMARK                         _______ _______ _______ _____ _____    ______ ____
ROOT
ATOM      1  C   UNL     1       0.397  10.479  20.583  0.00  0.00    +0.000 A 
ATOM      2  C   UNL     1       0.304   9.548  21.797  0.00  0.00    +0.000 A 
ATOM      3  C   UNL     1      -0.346  10.026  23.083  0.00  0.00    +0.000 C 
ATOM      4  N   UNL     1       0.739   8.322  21.839  0.00  0.00    +0.000 NA
ATOM      5  C   UNL     1       1.365   7.853  20.731  0.00  0.00    +0.000 A 
ATOM      6  C   UNL     1       1.943   6.635  20.473  0.00  0.00    +0.000 A 
ATOM      7  C   UNL     1       2.471   6.721  19.165  0.00  0.00    +0.000 A 
ATOM      8  N   UNL     1       2.223   7.930  18.637  0.00  0.00    +0.000 NA
ATOM      9  N   UNL     1       1.546   8.624  19.592  0.00  0.00    +0.000 N 
ATOM     10  C   UNL     1       1.056   9.943  19.519  0.00  0.00    +0.000 A 
ATOM     11  C   UNL     1       1.349  10.676  18.239  0.00  0.00    +0.000 C 
ENDROOT
BRANCH   7  12
ATOM     12  C   UNL     1       3.194   5.686  18.414  0.00  0.00    +0.000 A 
ATOM     13  C   UNL     1       2.508   4.596  17.849  0.00  0.00    +0.000 A 
ATOM     14  C   UNL     1       3.194   3.596  17.147  0.00  0.00    +0.000 A 
ATOM     15  C   UNL     1       4.576   3.680  17.003  0.00  0.00    +0.000 A 
ATOM     16  C   UNL     1       5.256   4.759  17.552  0.00  0.00    +0.000 A 
ATOM     17  F   UNL     1       6.586   4.839  17.412  0.00  0.00    +0.000 F 
ATOM     18  C   UNL     1       4.584   5.757  18.250  0.00  0.00    +0.000 A 
ENDBRANCH   7  12
BRANCH   1  19
ATOM     19  C   UNL     1      -0.219  11.862  20.706  0.00  0.00    +0.000 C 
BRANCH  19  20
ATOM     20  C   UNL     1      -1.741  12.013  20.637  0.00  0.00    +0.000 C 
BRANCH  20  22
ATOM     21  N   UNL     1      -3.506  11.776  19.017  0.00  0.00    +0.000 N 
ATOM     22  C   UNL     1      -2.217  12.216  19.213  0.00  0.00    +0.000 C 
ATOM     23  O   UNL     1      -1.510  12.667  18.321  0.00  0.00    +0.000 OA
ATOM     24  H   UNL     1      -4.113  11.652  19.820  0.00  0.00    +0.000 HD
BRANCH  21  25
ATOM     25  C   UNL     1      -4.148  11.821  17.701  0.00  0.00    +0.000 C 
BRANCH  25  26
ATOM     26  C   UNL     1      -3.796  10.578  16.852  0.00  0.00    +0.000 C 
ATOM     27  C   UNL     1      -2.888  10.958  15.675  0.00  0.00    +0.000 C 
ATOM     28  C   UNL     1      -3.144   9.450  17.657  0.00  0.00    +0.000 C 
ENDBRANCH  25  26
BRANCH  25  29
ATOM     29  C   UNL     1      -5.661  11.978  17.887  0.00  0.00    +0.000 C 
ATOM     30  O   UNL     1      -6.449  11.039  17.942  0.00  0.00    +0.000 OA
BRANCH  29  32
ATOM     31  C   UNL     1      -6.821  13.741  16.857  0.00  0.00    +0.000 C 
ATOM     32  O   UNL     1      -6.002  13.295  17.939  0.00  0.00    +0.000 OA
ENDBRANCH  29  32
ENDBRANCH  25  29
ENDBRANCH  21  25
ENDBRANCH  20  22
ENDBRANCH  19  20
ENDBRANCH   1  19
TORSDOF 8
ENDMDL
MODEL 5
REMARK VINA RESULT:      -7.1      3.390      5.545
REMARK  Name = 
REMARK  13 active torsions:
REMARK  status: ('A' for Active; 'I' for Inactive)
REMARK    1  A    between atoms: C_1  and  O_2
REMARK    2  A    between atoms: O_2  and  C_3
REMARK    3  A    between atoms: C_3  and  C_5
REMARK    4  A    between atoms: C_5  and  N_6
REMARK    5  A    between atoms: C_5  and  C_29
REMARK    6  A    between atoms: C_7  and  C_9
REMARK    7  A    between atoms: C_9  and  C_10
REMARK    8  A    between atoms: C_10  and  C_11
REMARK    9  A    between atoms: C_12  and  C_13
REMARK   10  A    between atoms: C_17  and  C_18
REMARK   11  A    between atoms: C_27  and  C_28
REMARK   12  A    between atoms: C_29  and  C_30
REMARK   13  A    between atoms: C_29  and  C_31
REMARK                            x       y       z     vdW  Elec       q    Type
REMARK                         _______ _______ _______ _____ _____    ______ ____
ROOT
ATOM      1  C   UNL     1       2.565   5.853  19.481  0.00  0.00    +0.000 A 
ATOM      2  C   UNL     1       2.874   4.384  19.785  0.00  0.00    +0.000 A 
ATOM      3  C   UNL     1       2.386   3.747  21.074  0.00  0.00    +0.000 C 
ATOM      4  N   UNL     1       3.539   3.580  19.008  0.00  0.00    +0.000 NA
ATOM      5  C   UNL     1       4.035   4.104  17.860  0.00  0.00    +0.000 A 
ATOM      6  C   UNL     1       4.783   3.533  16.860  0.00  0.00    +0.000 A 
ATOM      7  C   UNL     1       5.039   4.562  15.926  0.00  0.00    +0.000 A 
ATOM      8  N   UNL     1       4.470   5.710  16.324  0.00  0.00    +0.000 NA
ATOM      9  N   UNL     1       3.854   5.433  17.505  0.00  0.00    +0.000 N 
ATOM     10  C   UNL     1       3.112   6.310  18.322  0.00  0.00    +0.000 A 
ATOM     11  C   UNL     1       3.021   7.730  17.836  0.00  0.00    +0.000 C 
ENDROOT
BRANCH   7  12
ATOM     12  C   UNL     1       5.802   4.474  14.674  0.00  0.00    +0.000 A 
ATOM     13  C   UNL     1       5.367   3.647  13.622  0.00  0.00    +0.000 A 
ATOM     14  C   UNL     1       6.100   3.545  12.433  0.00  0.00    +0.000 A 
ATOM     15  C   UNL     1       7.277   4.273  12.284  0.00  0.00    +0.000 A 
ATOM     16  C   UNL     1       7.706   5.097  13.316  0.00  0.00    +0.000 A 
ATOM     17  F   UNL     1       8.838   5.797  13.171  0.00  0.00    +0.000 F 
ATOM     18  C   UNL     1       6.985   5.206  14.501  0.00  0.00    +0.000 A 
ENDBRANCH   7  12
BRANCH   1  19
ATOM     19  C   UNL     1       1.724   6.619  20.487  0.00  0.00    +0.000 C 
BRANCH  19  20
ATOM     20  C   UNL     1       1.869   8.141  20.581  0.00  0.00    +0.000 C 
BRANCH  20  22
ATOM     21  N   UNL     1       0.354   9.886  19.905  0.00  0.00    +0.000 N 
ATOM     22  C   UNL     1       0.526   8.820  20.757  0.00  0.00    +0.000 C 
ATOM     23  O   UNL     1      -0.292   8.491  21.608  0.00  0.00    +0.000 OA
ATOM     24  H   UNL     1       0.934   9.953  19.076  0.00  0.00    +0.000 HD
BRANCH  21  25
ATOM     25  C   UNL     1      -0.847  10.723  19.944  0.00  0.00    +0.000 C 
BRANCH  25  26
ATOM     26  C   UNL     1      -0.514  12.182  20.331  0.00  0.00    +0.000 C 
ATOM     27  C   UNL     1      -1.071  12.521  21.720  0.00  0.00    +0.000 C 
ATOM     28  C   UNL     1       0.984  12.500  20.290  0.00  0.00    +0.000 C 
ENDBRANCH  25  26
BRANCH  25  29
ATOM     29  C   UNL     1      -1.560  10.639  18.590  0.00  0.00    +0.000 C 
ATOM     30  O   UNL     1      -1.130  10.017  17.624  0.00  0.00    +0.000 OA
BRANCH  29  32
ATOM     31  C   UNL     1      -3.412  11.404  17.364  0.00  0.00    +0.000 C 
ATOM     32  O   UNL     1      -2.702  11.379  18.604  0.00  0.00    +0.000 OA
ENDBRANCH  29  32
ENDBRANCH  25  29
ENDBRANCH  21  25
ENDBRANCH  20  22
ENDBRANCH  19  20
ENDBRANCH   1  19
TORSDOF 8
ENDMDL
MODEL 6
REMARK VINA RESULT:      -7.1      2.027      2.843
REMARK  Name = 
REMARK  13 active torsions:
REMARK  status: ('A' for Active; 'I' for Inactive)
REMARK    1  A    between atoms: C_1  and  O_2
REMARK    2  A    between atoms: O_2  and  C_3
REMARK    3  A    between atoms: C_3  and  C_5
REMARK    4  A    between atoms: C_5  and  N_6
REMARK    5  A    between atoms: C_5  and  C_29
REMARK    6  A    between atoms: C_7  and  C_9
REMARK    7  A    between atoms: C_9  and  C_10
REMARK    8  A    between atoms: C_10  and  C_11
REMARK    9  A    between atoms: C_12  and  C_13
REMARK   10  A    between atoms: C_17  and  C_18
REMARK   11  A    between atoms: C_27  and  C_28
REMARK   12  A    between atoms: C_29  and  C_30
REMARK   13  A    between atoms: C_29  and  C_31
REMARK                            x       y       z     vdW  Elec       q    Type
REMARK                         _______ _______ _______ _____ _____    ______ ____
ROOT
ATOM      1  C   UNL     1       0.126  11.098  20.872  0.00  0.00    +0.000 A 
ATOM      2  C   UNL     1      -0.083  11.531  19.418  0.00  0.00    +0.000 A 
ATOM      3  C   UNL     1      -0.853  12.800  19.096  0.00  0.00    +0.000 C 
ATOM      4  N   UNL     1       0.364  10.896  18.373  0.00  0.00    +0.000 NA
ATOM      5  C   UNL     1       1.026   9.734  18.596  0.00  0.00    +0.000 A 
ATOM      6  C   UNL     1       1.589   8.838  17.722  0.00  0.00    +0.000 A 
ATOM      7  C   UNL     1       2.117   7.794  18.515  0.00  0.00    +0.000 A 
ATOM      8  N   UNL     1       1.898   8.038  19.817  0.00  0.00    +0.000 NA
ATOM      9  N   UNL     1       1.234   9.224  19.869  0.00  0.00    +0.000 N 
ATOM     10  C   UNL     1       0.782   9.913  21.012  0.00  0.00    +0.000 A 
ATOM     11  C   UNL     1       1.044   9.233  22.328  0.00  0.00    +0.000 C 
ENDROOT
BRANCH   7  12
ATOM     12  C   UNL     1       2.820   6.586  18.065  0.00  0.00    +0.000 A 
ATOM     13  C   UNL     1       4.143   6.657  17.593  0.00  0.00    +0.000 A 
ATOM     14  C   UNL     1       4.813   5.511  17.145  0.00  0.00    +0.000 A 
ATOM     15  C   UNL     1       4.164   4.280  17.167  0.00  0.00    +0.000 A 
ATOM     16  C   UNL     1       2.861   4.204  17.641  0.00  0.00    +0.000 A 
ATOM     17  F   UNL     1       2.237   3.019  17.662  0.00  0.00    +0.000 F 
ATOM     18  C   UNL     1       2.187   5.336  18.088  0.00  0.00    +0.000 A 
ENDBRANCH   7  12
BRANCH   1  19
ATOM     19  C   UNL     1      -0.423  12.001  21.962  0.00  0.00    +0.000 C 
BRANCH  19  20
ATOM     20  C   UNL     1      -1.288  11.396  23.073  0.00  0.00    +0.000 C 
BRANCH  20  22
ATOM     21  N   UNL     1      -2.954  12.698  21.922  0.00  0.00    +0.000 N 
ATOM     22  C   UNL     1      -2.695  11.955  23.051  0.00  0.00    +0.000 C 
ATOM     23  O   UNL     1      -3.495  11.813  23.968  0.00  0.00    +0.000 OA
ATOM     24  H   UNL     1      -2.366  12.575  21.106  0.00  0.00    +0.000 HD
BRANCH  21  25
ATOM     25  C   UNL     1      -4.233  13.382  21.721  0.00  0.00    +0.000 C 
BRANCH  25  26
ATOM     26  C   UNL     1      -4.038  14.790  21.115  0.00  0.00    +0.000 C 
ATOM     27  C   UNL     1      -4.959  15.812  21.795  0.00  0.00    +0.000 C 
ATOM     28  C   UNL     1      -2.590  15.289  21.175  0.00  0.00    +0.000 C 
ENDBRANCH  25  26
BRANCH  25  29
ATOM     29  C   UNL     1      -5.139  12.505  20.850  0.00  0.00    +0.000 C 
ATOM     30  O   UNL     1      -6.117  11.894  21.272  0.00  0.00    +0.000 OA
BRANCH  29  32
ATOM     31  C   UNL     1      -5.694  12.599  18.570  0.00  0.00    +0.000 C 
ATOM     32  O   UNL     1      -4.681  12.468  19.569  0.00  0.00    +0.000 OA
ENDBRANCH  29  32
ENDBRANCH  25  29
ENDBRANCH  21  25
ENDBRANCH  20  22
ENDBRANCH  19  20
ENDBRANCH   1  19
TORSDOF 8
ENDMDL
MODEL 7
REMARK VINA RESULT:      -7.0      5.055      9.528
REMARK  Name = 
REMARK  13 active torsions:
REMARK  status: ('A' for Active; 'I' for Inactive)
REMARK    1  A    between atoms: C_1  and  O_2
REMARK    2  A    between atoms: O_2  and  C_3
REMARK    3  A    between atoms: C_3  and  C_5
REMARK    4  A    between atoms: C_5  and  N_6
REMARK    5  A    between atoms: C_5  and  C_29
REMARK    6  A    between atoms: C_7  and  C_9
REMARK    7  A    between atoms: C_9  and  C_10
REMARK    8  A    between atoms: C_10  and  C_11
REMARK    9  A    between atoms: C_12  and  C_13
REMARK   10  A    between atoms: C_17  and  C_18
REMARK   11  A    between atoms: C_27  and  C_28
REMARK   12  A    between atoms: C_29  and  C_30
REMARK   13  A    between atoms: C_29  and  C_31
REMARK                            x       y       z     vdW  Elec       q    Type
REMARK                         _______ _______ _______ _____ _____    ______ ____
ROOT
ATOM      1  C   UNL     1       1.488   8.295  19.237  0.00  0.00    +0.000 A 
ATOM      2  C   UNL     1       1.444   7.470  20.527  0.00  0.00    +0.000 A 
ATOM      3  C   UNL     1       2.015   6.063  20.559  0.00  0.00    +0.000 C 
ATOM      4  N   UNL     1       0.950   7.874  21.661  0.00  0.00    +0.000 NA
ATOM      5  C   UNL     1       0.389   9.109  21.683  0.00  0.00    +0.000 A 
ATOM      6  C   UNL     1      -0.224   9.800  22.698  0.00  0.00    +0.000 A 
ATOM      7  C   UNL     1      -0.645  11.028  22.138  0.00  0.00    +0.000 A 
ATOM      8  N   UNL     1      -0.301  11.095  20.843  0.00  0.00    +0.000 NA
ATOM      9  N   UNL     1       0.333   9.925  20.562  0.00  0.00    +0.000 N 
ATOM     10  C   UNL     1       0.889   9.514  19.334  0.00  0.00    +0.000 A 
ATOM     11  C   UNL     1       0.731  10.480  18.193  0.00  0.00    +0.000 C 
ENDROOT
BRANCH   7  12
ATOM     12  C   UNL     1      -1.356  12.127  22.805  0.00  0.00    +0.000 A 
ATOM     13  C   UNL     1      -0.763  13.396  22.931  0.00  0.00    +0.000 A 
ATOM     14  C   UNL     1      -1.429  14.442  23.582  0.00  0.00    +0.000 A 
ATOM     15  C   UNL     1      -2.698  14.228  24.113  0.00  0.00    +0.000 A 
ATOM     16  C   UNL     1      -3.290  12.979  23.983  0.00  0.00    +0.000 A 
ATOM     17  F   UNL     1      -4.511  12.774  24.494  0.00  0.00    +0.000 F 
ATOM     18  C   UNL     1      -2.638  11.933  23.339  0.00  0.00    +0.000 A 
ENDBRANCH   7  12
BRANCH   1  19
ATOM     19  C   UNL     1       2.157   7.673  18.024  0.00  0.00    +0.000 C 
BRANCH  19  20
ATOM     20  C   UNL     1       3.642   7.945  17.765  0.00  0.00    +0.000 C 
BRANCH  20  22
ATOM     21  N   UNL     1       4.450   5.714  18.174  0.00  0.00    +0.000 N 
ATOM     22  C   UNL     1       4.350   6.715  17.235  0.00  0.00    +0.000 C 
ATOM     23  O   UNL     1       4.835   6.644  16.112  0.00  0.00    +0.000 OA
ATOM     24  H   UNL     1       3.829   5.727  18.975  0.00  0.00    +0.000 HD
BRANCH  21  25
ATOM     25  C   UNL     1       5.150   4.458  17.896  0.00  0.00    +0.000 C 
BRANCH  25  26
ATOM     26  C   UNL     1       6.653   4.554  18.242  0.00  0.00    +0.000 C 
ATOM     27  C   UNL     1       7.502   4.674  16.970  0.00  0.00    +0.000 C 
ATOM     28  C   UNL     1       6.991   5.707  19.192  0.00  0.00    +0.000 C 
ENDBRANCH  25  26
BRANCH  25  29
ATOM     29  C   UNL     1       4.458   3.321  18.655  0.00  0.00    +0.000 C 
ATOM     30  O   UNL     1       4.866   2.853  19.714  0.00  0.00    +0.000 OA
BRANCH  29  32
ATOM     31  C   UNL     1       2.501   2.024  18.715  0.00  0.00    +0.000 C 
ATOM     32  O   UNL     1       3.366   2.884  17.970  0.00  0.00    +0.000 OA
ENDBRANCH  29  32
ENDBRANCH  25  29
ENDBRANCH  21  25
ENDBRANCH  20  22
ENDBRANCH  19  20
ENDBRANCH   1  19
TORSDOF 8
ENDMDL
MODEL 8
REMARK VINA RESULT:      -7.0      2.586      3.291
REMARK  Name = 
REMARK  13 active torsions:
REMARK  status: ('A' for Active; 'I' for Inactive)
REMARK    1  A    between atoms: C_1  and  O_2
REMARK    2  A    between atoms: O_2  and  C_3
REMARK    3  A    between atoms: C_3  and  C_5
REMARK    4  A    between atoms: C_5  and  N_6
REMARK    5  A    between atoms: C_5  and  C_29
REMARK    6  A    between atoms: C_7  and  C_9
REMARK    7  A    between atoms: C_9  and  C_10
REMARK    8  A    between atoms: C_10  and  C_11
REMARK    9  A    between atoms: C_12  and  C_13
REMARK   10  A    between atoms: C_17  and  C_18
REMARK   11  A    between atoms: C_27  and  C_28
REMARK   12  A    between atoms: C_29  and  C_30
REMARK   13  A    between atoms: C_29  and  C_31
REMARK                            x       y       z     vdW  Elec       q    Type
REMARK                         _______ _______ _______ _____ _____    ______ ____
ROOT
ATOM      1  C   UNL     1      -0.108  11.232  21.227  0.00  0.00    +0.000 A 
ATOM      2  C   UNL     1      -0.343  11.754  19.806  0.00  0.00    +0.000 A 
ATOM      3  C   UNL     1      -1.162  13.011  19.574  0.00  0.00    +0.000 C 
ATOM      4  N   UNL     1       0.120  11.207  18.719  0.00  0.00    +0.000 NA
ATOM      5  C   UNL     1       0.827  10.059  18.860  0.00  0.00    +0.000 A 
ATOM      6  C   UNL     1       1.417   9.245  17.925  0.00  0.00    +0.000 A 
ATOM      7  C   UNL     1       1.989   8.171  18.644  0.00  0.00    +0.000 A 
ATOM      8  N   UNL     1       1.770   8.319  19.960  0.00  0.00    +0.000 NA
ATOM      9  N   UNL     1       1.062   9.473  20.095  0.00  0.00    +0.000 N 
ATOM     10  C   UNL     1       0.592  10.066  21.284  0.00  0.00    +0.000 A 
ATOM     11  C   UNL     1       0.888   9.310  22.550  0.00  0.00    +0.000 C 
ENDROOT
BRANCH   7  12
ATOM     12  C   UNL     1       2.734   7.024  18.111  0.00  0.00    +0.000 A 
ATOM     13  C   UNL     1       2.247   5.713  18.267  0.00  0.00    +0.000 A 
ATOM     14  C   UNL     1       2.963   4.614  17.776  0.00  0.00    +0.000 A 
ATOM     15  C   UNL     1       4.174   4.816  17.120  0.00  0.00    +0.000 A 
ATOM     16  C   UNL     1       4.654   6.108  16.956  0.00  0.00    +0.000 A 
ATOM     17  F   UNL     1       5.819   6.302  16.324  0.00  0.00    +0.000 F 
ATOM     18  C   UNL     1       3.951   7.207  17.440  0.00  0.00    +0.000 A 
ENDBRANCH   7  12
BRANCH   1  19
ATOM     19  C   UNL     1      -0.684  12.038  22.377  0.00  0.00    +0.000 C 
BRANCH  19  20
ATOM     20  C   UNL     1      -2.032  11.629  22.979  0.00  0.00    +0.000 C 
BRANCH  20  22
ATOM     21  N   UNL     1      -4.060  12.338  21.892  0.00  0.00    +0.000 N 
ATOM     22  C   UNL     1      -3.079  12.707  22.784  0.00  0.00    +0.000 C 
ATOM     23  O   UNL     1      -3.025  13.808  23.316  0.00  0.00    +0.000 OA
ATOM     24  H   UNL     1      -4.192  11.354  21.684  0.00  0.00    +0.000 HD
BRANCH  21  25
ATOM     25  C   UNL     1      -5.140  13.249  21.507  0.00  0.00    +0.000 C 
BRANCH  25  26
ATOM     26  C   UNL     1      -5.222  13.421  19.974  0.00  0.00    +0.000 C 
ATOM     27  C   UNL     1      -4.869  12.112  19.255  0.00  0.00    +0.000 C 
ATOM     28  C   UNL     1      -6.585  13.920  19.484  0.00  0.00    +0.000 C 
ENDBRANCH  25  26
BRANCH  25  29
ATOM     29  C   UNL     1      -6.459  12.739  22.098  0.00  0.00    +0.000 C 
ATOM     30  O   UNL     1      -6.836  11.572  22.034  0.00  0.00    +0.000 OA
BRANCH  29  32
ATOM     31  C   UNL     1      -6.554  14.334  23.820  0.00  0.00    +0.000 C 
ATOM     32  O   UNL     1      -7.159  13.763  22.658  0.00  0.00    +0.000 OA
ENDBRANCH  29  32
ENDBRANCH  25  29
ENDBRANCH  21  25
ENDBRANCH  20  22
ENDBRANCH  19  20
ENDBRANCH   1  19
TORSDOF 8
ENDMDL
MODEL 9
REMARK VINA RESULT:      -6.9      3.135      4.188
REMARK  Name = 
REMARK  13 active torsions:
REMARK  status: ('A' for Active; 'I' for Inactive)
REMARK    1  A    between atoms: C_1  and  O_2
REMARK    2  A    between atoms: O_2  and  C_3
REMARK    3  A    between atoms: C_3  and  C_5
REMARK    4  A    between atoms: C_5  and  N_6
REMARK    5  A    between atoms: C_5  and  C_29
REMARK    6  A    between atoms: C_7  and  C_9
REMARK    7  A    between atoms: C_9  and  C_10
REMARK    8  A    between atoms: C_10  and  C_11
REMARK    9  A    between atoms: C_12  and  C_13
REMARK   10  A    between atoms: C_17  and  C_18
REMARK   11  A    between atoms: C_27  and  C_28
REMARK   12  A    between atoms: C_29  and  C_30
REMARK   13  A    between atoms: C_29  and  C_31
REMARK                            x       y       z     vdW  Elec       q    Type
REMARK                         _______ _______ _______ _____ _____    ______ ____
ROOT
ATOM      1  C   UNL     1      -0.276  10.757  20.758  0.00  0.00    +0.000 A 
ATOM      2  C   UNL     1      -0.417  11.249  19.315  0.00  0.00    +0.000 A 
ATOM      3  C   UNL     1      -1.304  12.438  18.991  0.00  0.00    +0.000 C 
ATOM      4  N   UNL     1       0.186  10.733  18.283  0.00  0.00    +0.000 NA
ATOM      5  C   UNL     1       0.962   9.644  18.504  0.00  0.00    +0.000 A 
ATOM      6  C   UNL     1       1.696   8.871  17.640  0.00  0.00    +0.000 A 
ATOM      7  C   UNL     1       2.279   7.850  18.424  0.00  0.00    +0.000 A 
ATOM      8  N   UNL     1       1.929   7.989  19.712  0.00  0.00    +0.000 NA
ATOM      9  N   UNL     1       1.125   9.086  19.764  0.00  0.00    +0.000 N 
ATOM     10  C   UNL     1       0.503   9.650  20.897  0.00  0.00    +0.000 A 
ATOM     11  C   UNL     1       0.738   8.927  22.195  0.00  0.00    +0.000 C 
ENDROOT
BRANCH   7  12
ATOM     12  C   UNL     1       3.156   6.759  17.977  0.00  0.00    +0.000 A 
ATOM     13  C   UNL     1       2.810   5.416  18.209  0.00  0.00    +0.000 A 
ATOM     14  C   UNL     1       3.651   4.373  17.801  0.00  0.00    +0.000 A 
ATOM     15  C   UNL     1       4.848   4.665  17.154  0.00  0.00    +0.000 A 
ATOM     16  C   UNL     1       5.190   5.989  16.915  0.00  0.00    +0.000 A 
ATOM     17  F   UNL     1       6.341   6.270  16.292  0.00  0.00    +0.000 F 
ATOM     18  C   UNL     1       4.361   7.033  17.316  0.00  0.00    +0.000 A 
ENDBRANCH   7  12
BRANCH   1  19
ATOM     19  C   UNL     1      -1.015  11.525  21.840  0.00  0.00    +0.000 C 
BRANCH  19  20
ATOM     20  C   UNL     1      -0.439  12.852  22.344  0.00  0.00    +0.000 C 
BRANCH  20  22
ATOM     21  N   UNL     1      -2.709  13.227  23.056  0.00  0.00    +0.000 N 
ATOM     22  C   UNL     1      -1.392  13.548  23.295  0.00  0.00    +0.000 C 
ATOM     23  O   UNL     1      -1.033  14.355  24.144  0.00  0.00    +0.000 OA
ATOM     24  H   UNL     1      -2.924  12.388  22.529  0.00  0.00    +0.000 HD
BRANCH  21  25
ATOM     25  C   UNL     1      -3.804  13.831  23.817  0.00  0.00    +0.000 C 
BRANCH  25  26
ATOM     26  C   UNL     1      -4.465  14.993  23.042  0.00  0.00    +0.000 C 
ATOM     27  C   UNL     1      -4.223  16.333  23.749  0.00  0.00    +0.000 C 
ATOM     28  C   UNL     1      -4.008  15.096  21.583  0.00  0.00    +0.000 C 
ENDBRANCH  25  26
BRANCH  25  29
ATOM     29  C   UNL     1      -4.815  12.742  24.189  0.00  0.00    +0.000 C 
ATOM     30  O   UNL     1      -4.712  12.014  25.172  0.00  0.00    +0.000 OA
BRANCH  29  32
ATOM     31  C   UNL     1      -7.125  12.556  23.802  0.00  0.00    +0.000 C 
ATOM     32  O   UNL     1      -5.807  12.673  23.260  0.00  0.00    +0.000 OA
ENDBRANCH  29  32
ENDBRANCH  25  29
ENDBRANCH  21  25
ENDBRANCH  20  22
ENDBRANCH  19  20
ENDBRANCH   1  19
TORSDOF 8
ENDMDL
