MODEL 1
REMARK VINA RESULT:      -7.6      0.000      0.000
REMARK  Name = 
REMARK  3 active torsions:
REMARK  status: ('A' for Active; 'I' for Inactive)
REMARK    1  A    between atoms: C_2  and  C_8
REMARK    2  A    between atoms: N_3  and  C_4
REMARK    3  A    between atoms: C_19  and  C_20
REMARK                            x       y       z     vdW  Elec       q    Type
REMARK                         _______ _______ _______ _____ _____    ______ ____
ROOT
ATOM      1  C   UNL     1      -5.853  11.926  19.928  0.00  0.00    +0.000 A 
ATOM      2  C   UNL     1      -6.994  11.951  20.753  0.00  0.00    +0.000 A 
ATOM      3  N   UNL     1      -6.740  12.375  21.994  0.00  0.00    +0.000 NA
ATOM      4  N   UNL     1      -5.405  12.604  21.995  0.00  0.00    +0.000 N 
ATOM      5  C   UNL     1      -4.591  12.917  23.078  0.00  0.00    +0.000 A 
ATOM      6  C   UNL     1      -3.279  13.105  22.902  0.00  0.00    +0.000 A 
ATOM      7  C   UNL     1      -2.775  13.074  21.489  0.00  0.00    +0.000 A 
ATOM      8  N   UNL     1      -1.481  13.432  21.208  0.00  0.00    +0.000 N 
ATOM      9  C   UNL     1      -1.179  14.582  20.369  0.00  0.00    +0.000 C 
ATOM     10  C   UNL     1       0.225  14.287  19.881  0.00  0.00    +0.000 C 
ATOM     11  C   UNL     1       0.875  13.654  21.107  0.00  0.00    +0.000 C 
ATOM     12  C   UNL     1      -0.267  12.879  21.810  0.00  0.00    +0.000 C 
ATOM     13  N   UNL     1      -3.545  12.757  20.468  0.00  0.00    +0.000 NA
ATOM     14  C   UNL     1      -4.852  12.451  20.725  0.00  0.00    +0.000 A 
ENDROOT
BRANCH  12  15
ATOM     15  C   UNL     1      -0.109  11.388  21.599  0.00  0.00    +0.000 A 
ATOM     16  C   UNL     1       0.554  10.839  20.489  0.00  0.00    +0.000 A 
ATOM     17  C   UNL     1       0.770   9.464  20.409  0.00  0.00    +0.000 A 
ATOM     18  F   UNL     1       1.389   8.960  19.337  0.00  0.00    +0.000 F 
ATOM     19  C   UNL     1       0.369   8.613  21.433  0.00  0.00    +0.000 A 
ATOM     20  C   UNL     1      -0.312   9.136  22.530  0.00  0.00    +0.000 A 
ATOM     21  C   UNL     1      -0.559  10.508  22.592  0.00  0.00    +0.000 A 
ATOM     22  F   UNL     1      -1.237  10.987  23.646  0.00  0.00    +0.000 F 
ENDBRANCH  12  15
BRANCH   1  24
ATOM     23  O   UNL     1      -6.702  11.540  17.779  0.00  0.00    +0.000 OA
ATOM     24  C   UNL     1      -5.758  11.457  18.559  0.00  0.00    +0.000 C 
ATOM     25  N   UNL     1      -4.544  10.894  18.223  0.00  0.00    +0.000 N 
ATOM     26  H   UNL     1      -3.837  10.902  18.958  0.00  0.00    +0.000 HD
BRANCH  25  27
ATOM     27  C   UNL     1      -4.245  10.366  16.890  0.00  0.00    +0.000 C 
ATOM     28  C   UNL     1      -3.833  11.455  15.867  0.00  0.00    +0.000 C 
ATOM     29  C   UNL     1      -2.805  10.447  15.318  0.00  0.00    +0.000 C 
ATOM     30  C   UNL     1      -2.823   9.782  16.711  0.00  0.00    +0.000 C 
ENDBRANCH  25  27
ENDBRANCH   1  24
TORSDOF 3
ENDMDL
MODEL 2
REMARK VINA RESULT:      -7.1      2.534      4.123
REMARK  Name = 
REMARK  3 active torsions:
REMARK  status: ('A' for Active; 'I' for Inactive)
REMARK    1  A    between atoms: C_2  and  C_8
REMARK    2  A    between atoms: N_3  and  C_4
REMARK    3  A    between atoms: C_19  and  C_20
REMARK                            x       y       z     vdW  Elec       q    Type
REMARK                         _______ _______ _______ _____ _____    ______ ____
ROOT
ATOM      1  C   UNL     1      -5.382  13.334  22.689  0.00  0.00    +0.000 A 
ATOM      2  C   UNL     1      -5.605  12.782  23.965  0.00  0.00    +0.000 A 
ATOM      3  N   UNL     1      -4.530  12.174  24.474  0.00  0.00    +0.000 NA
ATOM      4  N   UNL     1      -3.593  12.300  23.504  0.00  0.00    +0.000 N 
ATOM      5  C   UNL     1      -2.332  11.716  23.452  0.00  0.00    +0.000 A 
ATOM      6  C   UNL     1      -1.528  11.943  22.407  0.00  0.00    +0.000 A 
ATOM      7  C   UNL     1      -2.010  12.931  21.385  0.00  0.00    +0.000 A 
ATOM      8  N   UNL     1      -1.175  13.351  20.382  0.00  0.00    +0.000 N 
ATOM      9  C   UNL     1      -0.775  14.745  20.265  0.00  0.00    +0.000 C 
ATOM     10  C   UNL     1      -0.368  14.862  18.810  0.00  0.00    +0.000 C 
ATOM     11  C   UNL     1       0.318  13.524  18.550  0.00  0.00    +0.000 C 
ATOM     12  C   UNL     1      -0.442  12.507  19.438  0.00  0.00    +0.000 C 
ATOM     13  N   UNL     1      -3.213  13.465  21.428  0.00  0.00    +0.000 NA
ATOM     14  C   UNL     1      -4.039  13.099  22.453  0.00  0.00    +0.000 A 
ENDROOT
BRANCH  12  15
ATOM     15  C   UNL     1      -1.336  11.624  18.592  0.00  0.00    +0.000 A 
ATOM     16  C   UNL     1      -2.621  12.009  18.177  0.00  0.00    +0.000 A 
ATOM     17  C   UNL     1      -3.349  11.204  17.304  0.00  0.00    +0.000 A 
ATOM     18  F   UNL     1      -4.577  11.581  16.935  0.00  0.00    +0.000 F 
ATOM     19  C   UNL     1      -2.813  10.025  16.798  0.00  0.00    +0.000 A 
ATOM     20  C   UNL     1      -1.550   9.613  17.216  0.00  0.00    +0.000 A 
ATOM     21  C   UNL     1      -0.836  10.404  18.118  0.00  0.00    +0.000 A 
ATOM     22  F   UNL     1       0.369   9.976  18.526  0.00  0.00    +0.000 F 
ENDBRANCH  12  15
BRANCH   1  24
ATOM     23  O   UNL     1      -7.001  14.958  22.210  0.00  0.00    +0.000 OA
ATOM     24  C   UNL     1      -6.342  13.995  21.827  0.00  0.00    +0.000 C 
ATOM     25  N   UNL     1      -6.470  13.442  20.570  0.00  0.00    +0.000 N 
ATOM     26  H   UNL     1      -5.851  12.655  20.371  0.00  0.00    +0.000 HD
BRANCH  25  27
ATOM     27  C   UNL     1      -7.381  13.966  19.550  0.00  0.00    +0.000 C 
ATOM     28  C   UNL     1      -6.741  15.040  18.635  0.00  0.00    +0.000 C 
ATOM     29  C   UNL     1      -7.522  14.407  17.467  0.00  0.00    +0.000 C 
ATOM     30  C   UNL     1      -7.527  13.094  18.279  0.00  0.00    +0.000 C 
ENDBRANCH  25  27
ENDBRANCH   1  24
TORSDOF 3
ENDMDL
MODEL 3
REMARK VINA RESULT:      -6.9      2.646      5.792
REMARK  Name = 
REMARK  3 active torsions:
REMARK  status: ('A' for Active; 'I' for Inactive)
REMARK    1  A    between atoms: C_2  and  C_8
REMARK    2  A    between atoms: N_3  and  C_4
REMARK    3  A    between atoms: C_19  and  C_20
REMARK                            x       y       z     vdW  Elec       q    Type
REMARK                         _______ _______ _______ _____ _____    ______ ____
ROOT
ATOM      1  C   UNL     1      -1.208  16.059  20.978  0.00  0.00    +0.000 A 
ATOM      2  C   UNL     1      -0.337  17.163  20.899  0.00  0.00    +0.000 A 
ATOM      3  N   UNL     1       0.715  16.951  20.104  0.00  0.00    +0.000 NA
ATOM      4  N   UNL     1       0.551  15.676  19.677  0.00  0.00    +0.000 N 
ATOM      5  C   UNL     1       1.441  14.899  18.944  0.00  0.00    +0.000 A 
ATOM      6  C   UNL     1       1.120  13.644  18.608  0.00  0.00    +0.000 A 
ATOM      7  C   UNL     1      -0.264  13.183  18.961  0.00  0.00    +0.000 A 
ATOM      8  N   UNL     1      -0.730  11.979  18.499  0.00  0.00    +0.000 N 
ATOM      9  C   UNL     1      -1.876  11.905  17.604  0.00  0.00    +0.000 C 
ATOM     10  C   UNL     1      -2.369  10.485  17.799  0.00  0.00    +0.000 C 
ATOM     11  C   UNL     1      -1.069   9.700  17.945  0.00  0.00    +0.000 C 
ATOM     12  C   UNL     1      -0.094  10.671  18.658  0.00  0.00    +0.000 C 
ATOM     13  N   UNL     1      -1.095  13.915  19.674  0.00  0.00    +0.000 NA
ATOM     14  C   UNL     1      -0.666  15.142  20.096  0.00  0.00    +0.000 A 
ENDROOT
BRANCH  12  15
ATOM     15  C   UNL     1       0.104  10.263  20.103  0.00  0.00    +0.000 A 
ATOM     16  C   UNL     1      -0.646  10.804  21.160  0.00  0.00    +0.000 A 
ATOM     17  C   UNL     1      -0.500  10.304  22.452  0.00  0.00    +0.000 A 
ATOM     18  F   UNL     1      -1.211  10.844  23.448  0.00  0.00    +0.000 F 
ATOM     19  C   UNL     1       0.359   9.244  22.721  0.00  0.00    +0.000 A 
ATOM     20  C   UNL     1       1.129   8.711  21.690  0.00  0.00    +0.000 A 
ATOM     21  C   UNL     1       1.008   9.236  20.402  0.00  0.00    +0.000 A 
ATOM     22  F   UNL     1       1.777   8.723  19.430  0.00  0.00    +0.000 F 
ENDBRANCH  12  15
BRANCH   1  24
ATOM     23  O   UNL     1      -3.110  16.884  22.069  0.00  0.00    +0.000 OA
ATOM     24  C   UNL     1      -2.397  15.923  21.797  0.00  0.00    +0.000 C 
ATOM     25  N   UNL     1      -2.639  14.646  22.259  0.00  0.00    +0.000 N 
ATOM     26  H   UNL     1      -1.980  13.933  21.946  0.00  0.00    +0.000 HD
BRANCH  25  27
ATOM     27  C   UNL     1      -3.790  14.298  23.095  0.00  0.00    +0.000 C 
ATOM     28  C   UNL     1      -4.319  12.861  22.861  0.00  0.00    +0.000 C 
ATOM     29  C   UNL     1      -4.554  12.778  24.382  0.00  0.00    +0.000 C 
ATOM     30  C   UNL     1      -3.452  13.847  24.537  0.00  0.00    +0.000 C 
ENDBRANCH  25  27
ENDBRANCH   1  24
TORSDOF 3
ENDMDL
MODEL 4
REMARK VINA RESULT:      -6.8      3.088      6.143
REMARK  Name = 
REMARK  3 active torsions:
REMARK  status: ('A' for Active; 'I' for Inactive)
REMARK    1  A    between atoms: C_2  and  C_8
REMARK    2  A    between atoms: N_3  and  C_4
REMARK    3  A    between atoms: C_19  and  C_20
REMARK                            x       y       z     vdW  Elec       q    Type
REMARK                         _______ _______ _______ _____ _____    ______ ____
ROOT
ATOM      1  C   UNL     1       0.161  15.139  22.258  0.00  0.00    +0.000 A 
ATOM      2  C   UNL     1       1.130  16.161  22.209  0.00  0.00    +0.000 A 
ATOM      3  N   UNL     1       1.860  16.145  21.090  0.00  0.00    +0.000 NA
ATOM      4  N   UNL     1       1.385  15.077  20.405  0.00  0.00    +0.000 N 
ATOM      5  C   UNL     1       1.892  14.515  19.238  0.00  0.00    +0.000 A 
ATOM      6  C   UNL     1       1.299  13.447  18.692  0.00  0.00    +0.000 A 
ATOM      7  C   UNL     1       0.024  12.981  19.333  0.00  0.00    +0.000 A 
ATOM      8  N   UNL     1      -0.735  12.010  18.733  0.00  0.00    +0.000 N 
ATOM      9  C   UNL     1      -2.089  12.284  18.274  0.00  0.00    +0.000 C 
ATOM     10  C   UNL     1      -2.715  10.905  18.219  0.00  0.00    +0.000 C 
ATOM     11  C   UNL     1      -1.565  10.039  17.713  0.00  0.00    +0.000 C 
ATOM     12  C   UNL     1      -0.289  10.682  18.310  0.00  0.00    +0.000 C 
ATOM     13  N   UNL     1      -0.441  13.503  20.449  0.00  0.00    +0.000 NA
ATOM     14  C   UNL     1       0.276  14.511  21.030  0.00  0.00    +0.000 A 
ENDROOT
BRANCH  12  15
ATOM     15  C   UNL     1       0.256   9.835  19.441  0.00  0.00    +0.000 A 
ATOM     16  C   UNL     1      -0.333   9.788  20.715  0.00  0.00    +0.000 A 
ATOM     17  C   UNL     1       0.144   8.902  21.678  0.00  0.00    +0.000 A 
ATOM     18  F   UNL     1      -0.421   8.885  22.890  0.00  0.00    +0.000 F 
ATOM     19  C   UNL     1       1.185   8.024  21.394  0.00  0.00    +0.000 A 
ATOM     20  C   UNL     1       1.798   8.072  20.145  0.00  0.00    +0.000 A 
ATOM     21  C   UNL     1       1.342   8.985  19.192  0.00  0.00    +0.000 A 
ATOM     22  F   UNL     1       1.964   9.030  18.004  0.00  0.00    +0.000 F 
ENDBRANCH  12  15
BRANCH   1  24
ATOM     23  O   UNL     1      -0.528  15.199  24.496  0.00  0.00    +0.000 OA
ATOM     24  C   UNL     1      -0.743  14.825  23.346  0.00  0.00    +0.000 C 
ATOM     25  N   UNL     1      -1.835  14.061  22.990  0.00  0.00    +0.000 N 
ATOM     26  H   UNL     1      -1.907  13.833  21.999  0.00  0.00    +0.000 HD
BRANCH  25  27
ATOM     27  C   UNL     1      -2.868  13.643  23.941  0.00  0.00    +0.000 C 
ATOM     28  C   UNL     1      -4.264  14.250  23.651  0.00  0.00    +0.000 C 
ATOM     29  C   UNL     1      -4.860  12.889  24.057  0.00  0.00    +0.000 C 
ATOM     30  C   UNL     1      -3.507  12.261  23.662  0.00  0.00    +0.000 C 
ENDBRANCH  25  27
ENDBRANCH   1  24
TORSDOF 3
ENDMDL
MODEL 5
REMARK VINA RESULT:      -6.7      2.735      5.810
REMARK  Name = 
REMARK  3 active torsions:
REMARK  status: ('A' for Active; 'I' for Inactive)
REMARK    1  A    between atoms: C_2  and  C_8
REMARK    2  A    between atoms: N_3  and  C_4
REMARK    3  A    between atoms: C_19  and  C_20
REMARK                            x       y       z     vdW  Elec       q    Type
REMARK                         _______ _______ _______ _____ _____    ______ ____
ROOT
ATOM      1  C   UNL     1      -1.259  15.115  22.018  0.00  0.00    +0.000 A 
ATOM      2  C   UNL     1      -0.552  16.329  21.928  0.00  0.00    +0.000 A 
ATOM      3  N   UNL     1       0.083  16.487  20.763  0.00  0.00    +0.000 NA
ATOM      4  N   UNL     1      -0.185  15.344  20.087  0.00  0.00    +0.000 N 
ATOM      5  C   UNL     1       0.354  14.920  18.877  0.00  0.00    +0.000 A 
ATOM      6  C   UNL     1      -0.019  13.749  18.348  0.00  0.00    +0.000 A 
ATOM      7  C   UNL     1      -1.108  13.002  19.060  0.00  0.00    +0.000 A 
ATOM      8  N   UNL     1      -1.668  11.888  18.490  0.00  0.00    +0.000 N 
ATOM      9  C   UNL     1      -3.077  11.851  18.127  0.00  0.00    +0.000 C 
ATOM     10  C   UNL     1      -3.378  10.366  18.083  0.00  0.00    +0.000 C 
ATOM     11  C   UNL     1      -2.100   9.787  17.483  0.00  0.00    +0.000 C 
ATOM     12  C   UNL     1      -0.963  10.699  18.009  0.00  0.00    +0.000 C 
ATOM     13  N   UNL     1      -1.600  13.397  20.216  0.00  0.00    +0.000 NA
ATOM     14  C   UNL     1      -1.091  14.537  20.772  0.00  0.00    +0.000 A 
ENDROOT
BRANCH  12  15
ATOM     15  C   UNL     1      -0.164   9.990  19.082  0.00  0.00    +0.000 A 
ATOM     16  C   UNL     1      -0.624   9.831  20.400  0.00  0.00    +0.000 A 
ATOM     17  C   UNL     1       0.104   9.069  21.311  0.00  0.00    +0.000 A 
ATOM     18  F   UNL     1      -0.343   8.944  22.565  0.00  0.00    +0.000 F 
ATOM     19  C   UNL     1       1.275   8.422  20.933  0.00  0.00    +0.000 A 
ATOM     20  C   UNL     1       1.760   8.587  19.638  0.00  0.00    +0.000 A 
ATOM     21  C   UNL     1       1.049   9.380  18.736  0.00  0.00    +0.000 A 
ATOM     22  F   UNL     1       1.547   9.544  17.501  0.00  0.00    +0.000 F 
ENDBRANCH  12  15
BRANCH   1  24
ATOM     23  O   UNL     1      -1.428  14.282  24.201  0.00  0.00    +0.000 OA
ATOM     24  C   UNL     1      -1.992  14.596  23.156  0.00  0.00    +0.000 C 
ATOM     25  N   UNL     1      -3.350  14.462  22.959  0.00  0.00    +0.000 N 
ATOM     26  H   UNL     1      -3.696  14.776  22.052  0.00  0.00    +0.000 HD
BRANCH  25  27
ATOM     27  C   UNL     1      -4.267  13.962  23.986  0.00  0.00    +0.000 C 
ATOM     28  C   UNL     1      -5.726  13.798  23.493  0.00  0.00    +0.000 C 
ATOM     29  C   UNL     1      -5.791  12.512  24.339  0.00  0.00    +0.000 C 
ATOM     30  C   UNL     1      -4.256  12.429  24.197  0.00  0.00    +0.000 C 
ENDBRANCH  25  27
ENDBRANCH   1  24
TORSDOF 3
ENDMDL
MODEL 6
REMARK VINA RESULT:      -6.6      3.529      6.800
REMARK  Name = 
REMARK  3 active torsions:
REMARK  status: ('A' for Active; 'I' for Inactive)
REMARK    1  A    between atoms: C_2  and  C_8
REMARK    2  A    between atoms: N_3  and  C_4
REMARK    3  A    between atoms: C_19  and  C_20
REMARK                            x       y       z     vdW  Elec       q    Type
REMARK                         _______ _______ _______ _____ _____    ______ ____
ROOT
ATOM      1  C   UNL     1       1.377  16.048  20.525  0.00  0.00    +0.000 A 
ATOM      2  C   UNL     1       2.596  16.687  20.230  0.00  0.00    +0.000 A 
ATOM      3  N   UNL     1       3.356  16.005  19.369  0.00  0.00    +0.000 NA
ATOM      4  N   UNL     1       2.639  14.883  19.117  0.00  0.00    +0.000 N 
ATOM      5  C   UNL     1       3.033  13.759  18.400  0.00  0.00    +0.000 A 
ATOM      6  C   UNL     1       2.195  12.727  18.251  0.00  0.00    +0.000 A 
ATOM      7  C   UNL     1       0.805  12.903  18.789  0.00  0.00    +0.000 A 
ATOM      8  N   UNL     1      -0.163  11.969  18.522  0.00  0.00    +0.000 N 
ATOM      9  C   UNL     1      -1.353  12.309  17.757  0.00  0.00    +0.000 C 
ATOM     10  C   UNL     1      -2.341  11.236  18.169  0.00  0.00    +0.000 C 
ATOM     11  C   UNL     1      -1.457   9.998  18.283  0.00  0.00    +0.000 C 
ATOM     12  C   UNL     1      -0.087  10.530  18.776  0.00  0.00    +0.000 C 
ATOM     13  N   UNL     1       0.442  13.961  19.485  0.00  0.00    +0.000 NA
ATOM     14  C   UNL     1       1.380  14.929  19.712  0.00  0.00    +0.000 A 
ENDROOT
BRANCH  12  15
ATOM     15  C   UNL     1       0.127  10.180  20.234  0.00  0.00    +0.000 A 
ATOM     16  C   UNL     1      -0.630  10.742  21.275  0.00  0.00    +0.000 A 
ATOM     17  C   UNL     1      -0.466  10.294  22.584  0.00  0.00    +0.000 A 
ATOM     18  F   UNL     1      -1.185  10.854  23.563  0.00  0.00    +0.000 F 
ATOM     19  C   UNL     1       0.418   9.265  22.886  0.00  0.00    +0.000 A 
ATOM     20  C   UNL     1       1.196   8.711  21.872  0.00  0.00    +0.000 A 
ATOM     21  C   UNL     1       1.056   9.185  20.566  0.00  0.00    +0.000 A 
ATOM     22  F   UNL     1       1.832   8.654  19.609  0.00  0.00    +0.000 F 
ENDBRANCH  12  15
BRANCH   1  24
ATOM     23  O   UNL     1       0.180  17.655  21.739  0.00  0.00    +0.000 OA
ATOM     24  C   UNL     1       0.357  16.472  21.465  0.00  0.00    +0.000 C 
ATOM     25  N   UNL     1      -0.367  15.446  22.037  0.00  0.00    +0.000 N 
ATOM     26  H   UNL     1      -0.133  14.508  21.710  0.00  0.00    +0.000 HD
BRANCH  25  27
ATOM     27  C   UNL     1      -1.444  15.664  23.005  0.00  0.00    +0.000 C 
ATOM     28  C   UNL     1      -2.285  14.396  23.298  0.00  0.00    +0.000 C 
ATOM     29  C   UNL     1      -2.329  14.853  24.768  0.00  0.00    +0.000 C 
ATOM     30  C   UNL     1      -1.018  15.621  24.492  0.00  0.00    +0.000 C 
ENDBRANCH  25  27
ENDBRANCH   1  24
TORSDOF 3
ENDMDL
MODEL 7
REMARK VINA RESULT:      -6.6      9.295     12.112
REMARK  Name = 
REMARK  3 active torsions:
REMARK  status: ('A' for Active; 'I' for Inactive)
REMARK    1  A    between atoms: C_2  and  C_8
REMARK    2  A    between atoms: N_3  and  C_4
REMARK    3  A    between atoms: C_19  and  C_20
REMARK                            x       y       z     vdW  Elec       q    Type
REMARK                         _______ _______ _______ _____ _____    ______ ____
ROOT
ATOM      1  C   UNL     1       6.792  17.067  21.434  0.00  0.00    +0.000 A 
ATOM      2  C   UNL     1       6.651  17.320  22.812  0.00  0.00    +0.000 A 
ATOM      3  N   UNL     1       7.757  17.061  23.514  0.00  0.00    +0.000 NA
ATOM      4  N   UNL     1       8.632  16.600  22.587  0.00  0.00    +0.000 N 
ATOM      5  C   UNL     1       9.889  16.045  22.800  0.00  0.00    +0.000 A 
ATOM      6  C   UNL     1      10.626  15.630  21.763  0.00  0.00    +0.000 A 
ATOM      7  C   UNL     1      10.077  15.903  20.393  0.00  0.00    +0.000 A 
ATOM      8  N   UNL     1      10.847  15.671  19.282  0.00  0.00    +0.000 N 
ATOM      9  C   UNL     1      11.235  16.755  18.391  0.00  0.00    +0.000 C 
ATOM     10  C   UNL     1      11.550  16.034  17.096  0.00  0.00    +0.000 C 
ATOM     11  C   UNL     1      12.222  14.754  17.584  0.00  0.00    +0.000 C 
ATOM     12  C   UNL     1      11.522  14.423  18.926  0.00  0.00    +0.000 C 
ATOM     13  N   UNL     1       8.878  16.410  20.197  0.00  0.00    +0.000 NA
ATOM     14  C   UNL     1       8.118  16.698  21.296  0.00  0.00    +0.000 A 
ENDROOT
BRANCH  12  15
ATOM     15  C   UNL     1      10.580  13.248  18.760  0.00  0.00    +0.000 A 
ATOM     16  C   UNL     1       9.462  13.278  17.910  0.00  0.00    +0.000 A 
ATOM     17  C   UNL     1       8.701  12.129  17.711  0.00  0.00    +0.000 A 
ATOM     18  F   UNL     1       7.630  12.183  16.911  0.00  0.00    +0.000 F 
ATOM     19  C   UNL     1       9.045  10.925  18.315  0.00  0.00    +0.000 A 
ATOM     20  C   UNL     1      10.135  10.880  19.179  0.00  0.00    +0.000 A 
ATOM     21  C   UNL     1      10.877  12.041  19.406  0.00  0.00    +0.000 A 
ATOM     22  F   UNL     1      11.909  11.981  20.262  0.00  0.00    +0.000 F 
ENDBRANCH  12  15
BRANCH   1  24
ATOM     23  O   UNL     1       5.636  18.191  19.734  0.00  0.00    +0.000 OA
ATOM     24  C   UNL     1       5.778  17.171  20.403  0.00  0.00    +0.000 C 
ATOM     25  N   UNL     1       4.981  16.055  20.259  0.00  0.00    +0.000 N 
ATOM     26  H   UNL     1       5.214  15.267  20.864  0.00  0.00    +0.000 HD
BRANCH  25  27
ATOM     27  C   UNL     1       3.904  15.957  19.270  0.00  0.00    +0.000 C 
ATOM     28  C   UNL     1       4.332  15.272  17.948  0.00  0.00    +0.000 C 
ATOM     29  C   UNL     1       2.946  14.598  17.934  0.00  0.00    +0.000 C 
ATOM     30  C   UNL     1       2.927  14.774  19.468  0.00  0.00    +0.000 C 
ENDBRANCH  25  27
ENDBRANCH   1  24
TORSDOF 3
ENDMDL
MODEL 8
REMARK VINA RESULT:      -6.6      8.314     11.099
REMARK  Name = 
REMARK  3 active torsions:
REMARK  status: ('A' for Active; 'I' for Inactive)
REMARK    1  A    between atoms: C_2  and  C_8
REMARK    2  A    between atoms: N_3  and  C_4
REMARK    3  A    between atoms: C_19  and  C_20
REMARK                            x       y       z     vdW  Elec       q    Type
REMARK                         _______ _______ _______ _____ _____    ______ ____
ROOT
ATOM      1  C   UNL     1       5.406  14.743  22.936  0.00  0.00    +0.000 A 
ATOM      2  C   UNL     1       5.371  14.502  24.323  0.00  0.00    +0.000 A 
ATOM      3  N   UNL     1       6.577  14.536  24.897  0.00  0.00    +0.000 NA
ATOM      4  N   UNL     1       7.423  14.774  23.865  0.00  0.00    +0.000 N 
ATOM      5  C   UNL     1       8.813  14.759  23.879  0.00  0.00    +0.000 A 
ATOM      6  C   UNL     1       9.500  15.011  22.759  0.00  0.00    +0.000 A 
ATOM      7  C   UNL     1       8.702  15.415  21.554  0.00  0.00    +0.000 A 
ATOM      8  N   UNL     1       9.337  15.860  20.422  0.00  0.00    +0.000 N 
ATOM      9  C   UNL     1       9.138  17.213  19.926  0.00  0.00    +0.000 C 
ATOM     10  C   UNL     1       9.526  17.101  18.466  0.00  0.00    +0.000 C 
ATOM     11  C   UNL     1      10.708  16.138  18.510  0.00  0.00    +0.000 C 
ATOM     12  C   UNL     1      10.391  15.170  19.678  0.00  0.00    +0.000 C 
ATOM     13  N   UNL     1       7.385  15.408  21.540  0.00  0.00    +0.000 NA
ATOM     14  C   UNL     1       6.736  15.020  22.678  0.00  0.00    +0.000 A 
ENDROOT
BRANCH  12  15
ATOM     15  C   UNL     1       9.973  13.814  19.148  0.00  0.00    +0.000 A 
ATOM     16  C   UNL     1       8.901  13.637  18.259  0.00  0.00    +0.000 A 
ATOM     17  C   UNL     1       8.638  12.381  17.716  0.00  0.00    +0.000 A 
ATOM     18  F   UNL     1       7.602  12.231  16.885  0.00  0.00    +0.000 F 
ATOM     19  C   UNL     1       9.445  11.288  18.010  0.00  0.00    +0.000 A 
ATOM     20  C   UNL     1      10.499  11.437  18.908  0.00  0.00    +0.000 A 
ATOM     21  C   UNL     1      10.739  12.689  19.479  0.00  0.00    +0.000 A 
ATOM     22  F   UNL     1      11.745  12.804  20.360  0.00  0.00    +0.000 F 
ENDBRANCH  12  15
BRANCH   1  24
ATOM     23  O   UNL     1       3.140  14.541  22.374  0.00  0.00    +0.000 OA
ATOM     24  C   UNL     1       4.298  14.709  22.001  0.00  0.00    +0.000 C 
ATOM     25  N   UNL     1       4.653  14.854  20.677  0.00  0.00    +0.000 N 
ATOM     26  H   UNL     1       5.647  15.006  20.502  0.00  0.00    +0.000 HD
BRANCH  25  27
ATOM     27  C   UNL     1       3.683  14.854  19.579  0.00  0.00    +0.000 C 
ATOM     28  C   UNL     1       3.378  16.264  19.017  0.00  0.00    +0.000 C 
ATOM     29  C   UNL     1       3.340  15.620  17.618  0.00  0.00    +0.000 C 
ATOM     30  C   UNL     1       4.259  14.516  18.183  0.00  0.00    +0.000 C 
ENDBRANCH  25  27
ENDBRANCH   1  24
TORSDOF 3
ENDMDL
MODEL 9
REMARK VINA RESULT:      -6.6      3.891      7.154
REMARK  Name = 
REMARK  3 active torsions:
REMARK  status: ('A' for Active; 'I' for Inactive)
REMARK    1  A    between atoms: C_2  and  C_8
REMARK    2  A    between atoms: N_3  and  C_4
REMARK    3  A    between atoms: C_19  and  C_20
REMARK                            x       y       z     vdW  Elec       q    Type
REMARK                         _______ _______ _______ _____ _____    ______ ____
ROOT
ATOM      1  C   UNL     1      -1.029  11.822  19.676  0.00  0.00    +0.000 A 
ATOM      2  C   UNL     1      -0.758  10.584  19.062  0.00  0.00    +0.000 A 
ATOM      3  N   UNL     1       0.466  10.513  18.532  0.00  0.00    +0.000 NA
ATOM      4  N   UNL     1       0.998  11.735  18.774  0.00  0.00    +0.000 N 
ATOM      5  C   UNL     1       2.200  12.253  18.303  0.00  0.00    +0.000 A 
ATOM      6  C   UNL     1       2.575  13.493  18.635  0.00  0.00    +0.000 A 
ATOM      7  C   UNL     1       1.701  14.224  19.612  0.00  0.00    +0.000 A 
ATOM      8  N   UNL     1       2.106  15.424  20.137  0.00  0.00    +0.000 N 
ATOM      9  C   UNL     1       2.343  15.584  21.564  0.00  0.00    +0.000 C 
ATOM     10  C   UNL     1       2.212  17.080  21.766  0.00  0.00    +0.000 C 
ATOM     11  C   UNL     1       2.856  17.642  20.503  0.00  0.00    +0.000 C 
ATOM     12  C   UNL     1       2.523  16.613  19.393  0.00  0.00    +0.000 C 
ATOM     13  N   UNL     1       0.554  13.739  20.038  0.00  0.00    +0.000 NA
ATOM     14  C   UNL     1       0.161  12.517  19.566  0.00  0.00    +0.000 A 
ENDROOT
BRANCH  12  15
ATOM     15  C   UNL     1       1.455  17.155  18.466  0.00  0.00    +0.000 A 
ATOM     16  C   UNL     1       0.113  17.308  18.851  0.00  0.00    +0.000 A 
ATOM     17  C   UNL     1      -0.798  17.921  17.994  0.00  0.00    +0.000 A 
ATOM     18  F   UNL     1      -2.075  18.041  18.373  0.00  0.00    +0.000 F 
ATOM     19  C   UNL     1      -0.399  18.423  16.760  0.00  0.00    +0.000 A 
ATOM     20  C   UNL     1       0.922  18.260  16.350  0.00  0.00    +0.000 A 
ATOM     21  C   UNL     1       1.826  17.615  17.195  0.00  0.00    +0.000 A 
ATOM     22  F   UNL     1       3.088  17.447  16.770  0.00  0.00    +0.000 F 
ENDBRANCH  12  15
BRANCH   1  24
ATOM     23  O   UNL     1      -3.324  12.294  19.647  0.00  0.00    +0.000 OA
ATOM     24  C   UNL     1      -2.272  12.260  20.280  0.00  0.00    +0.000 C 
ATOM     25  N   UNL     1      -2.169  12.653  21.598  0.00  0.00    +0.000 N 
ATOM     26  H   UNL     1      -1.242  12.558  22.013  0.00  0.00    +0.000 HD
BRANCH  25  27
ATOM     27  C   UNL     1      -3.309  13.122  22.390  0.00  0.00    +0.000 C 
ATOM     28  C   UNL     1      -3.464  12.397  23.750  0.00  0.00    +0.000 C 
ATOM     29  C   UNL     1      -3.867  13.758  24.347  0.00  0.00    +0.000 C 
ATOM     30  C   UNL     1      -3.065  14.415  23.204  0.00  0.00    +0.000 C 
ENDBRANCH  25  27
ENDBRANCH   1  24
TORSDOF 3
ENDMDL
