MODEL 1
REMARK VINA RESULT:      -8.7      0.000      0.000
REMARK  Name = 
REMARK  3 active torsions:
REMARK  status: ('A' for Active; 'I' for Inactive)
REMARK    1  A    between atoms: C_8  and  C_9
REMARK    2  A    between atoms: C_9  and  O_10
REMARK    3  A    between atoms: N_19  and  C_20
REMARK                            x       y       z     vdW  Elec       q    Type
REMARK                         _______ _______ _______ _____ _____    ______ ____
ROOT
ATOM      1  C   UNL     1       3.107   5.171  19.599  0.00  0.00    +0.000 C 
ATOM      2  C   UNL     1       2.080   4.110  19.264  0.00  0.00    +0.000 A 
ATOM      3  C   UNL     1       0.818   3.847  19.778  0.00  0.00    +0.000 A 
ATOM      4  C   UNL     1       0.159   2.672  19.374  0.00  0.00    +0.000 A 
ATOM      5  C   UNL     1       0.749   1.779  18.462  0.00  0.00    +0.000 A 
ATOM      6  C   UNL     1       2.006   2.050  17.935  0.00  0.00    +0.000 A 
ATOM      7  C   UNL     1       2.633   3.209  18.358  0.00  0.00    +0.000 A 
ATOM      8  C   UNL     1       3.973   3.657  18.001  0.00  0.00    +0.000 C 
ATOM      9  O   UNL     1       4.651   3.047  17.187  0.00  0.00    +0.000 OA
ATOM     10  N   UNL     1       4.243   4.806  18.738  0.00  0.00    +0.000 N 
ENDROOT
BRANCH   1  18
ATOM     11  O   UNL     1       0.040  11.214  22.138  0.00  0.00    +0.000 OA
ATOM     12  C   UNL     1       0.542  10.612  21.193  0.00  0.00    +0.000 C 
ATOM     13  C   UNL     1       0.692  11.216  19.797  0.00  0.00    +0.000 C 
ATOM     14  O   UNL     1       0.853  10.351  18.683  0.00  0.00    +0.000 OA
ATOM     15  C   UNL     1       1.483   9.173  18.974  0.00  0.00    +0.000 A 
ATOM     16  C   UNL     1       1.929   8.428  17.890  0.00  0.00    +0.000 A 
ATOM     17  C   UNL     1       2.518   7.177  18.095  0.00  0.00    +0.000 A 
ATOM     18  C   UNL     1       2.665   6.632  19.391  0.00  0.00    +0.000 A 
ATOM     19  C   UNL     1       2.219   7.414  20.478  0.00  0.00    +0.000 A 
ATOM     20  C   UNL     1       1.622   8.663  20.265  0.00  0.00    +0.000 A 
ATOM     21  N   UNL     1       1.095   9.370  21.348  0.00  0.00    +0.000 N 
ATOM     22  H   UNL     1       1.066   8.969  22.276  0.00  0.00    +0.000 HD
ENDBRANCH   1  18
BRANCH  10  23
ATOM     23  C   UNL     1       5.428   5.581  18.595  0.00  0.00    +0.000 A 
ATOM     24  C   UNL     1       6.557   5.312  19.383  0.00  0.00    +0.000 A 
ATOM     25  C   UNL     1       7.753   5.992  19.166  0.00  0.00    +0.000 A 
ATOM     26  F   UNL     1       8.829   5.671  19.896  0.00  0.00    +0.000 F 
ATOM     27  C   UNL     1       7.857   6.965  18.189  0.00  0.00    +0.000 A 
ATOM     28  C   UNL     1       6.735   7.262  17.438  0.00  0.00    +0.000 A 
ATOM     29  F   UNL     1       6.808   8.209  16.493  0.00  0.00    +0.000 F 
ATOM     30  C   UNL     1       5.530   6.591  17.629  0.00  0.00    +0.000 A 
ENDBRANCH  10  23
BRANCH   1  31
ATOM     31  O   UNL     1       3.493   4.945  20.955  0.00  0.00    +0.000 OA
ATOM     32  H   UNL     1       4.135   4.216  20.934  0.00  0.00    +0.000 HD
ENDBRANCH   1  31
TORSDOF 3
ENDMDL
MODEL 2
REMARK VINA RESULT:      -8.3      2.689      5.233
REMARK  Name = 
REMARK  3 active torsions:
REMARK  status: ('A' for Active; 'I' for Inactive)
REMARK    1  A    between atoms: C_8  and  C_9
REMARK    2  A    between atoms: C_9  and  O_10
REMARK    3  A    between atoms: N_19  and  C_20
REMARK                            x       y       z     vdW  Elec       q    Type
REMARK                         _______ _______ _______ _____ _____    ______ ____
ROOT
ATOM      1  C   UNL     1       3.680   6.009  18.150  0.00  0.00    +0.000 C 
ATOM      2  C   UNL     1       5.115   6.483  18.048  0.00  0.00    +0.000 A 
ATOM      3  C   UNL     1       5.689   7.564  17.393  0.00  0.00    +0.000 A 
ATOM      4  C   UNL     1       7.092   7.652  17.343  0.00  0.00    +0.000 A 
ATOM      5  C   UNL     1       7.908   6.678  17.944  0.00  0.00    +0.000 A 
ATOM      6  C   UNL     1       7.334   5.603  18.613  0.00  0.00    +0.000 A 
ATOM      7  C   UNL     1       5.951   5.540  18.639  0.00  0.00    +0.000 A 
ATOM      8  C   UNL     1       5.137   4.475  19.210  0.00  0.00    +0.000 C 
ATOM      9  O   UNL     1       5.645   3.545  19.819  0.00  0.00    +0.000 OA
ATOM     10  N   UNL     1       3.807   4.758  18.915  0.00  0.00    +0.000 N 
ENDROOT
BRANCH   1  18
ATOM     11  O   UNL     1       0.289  12.402  18.166  0.00  0.00    +0.000 OA
ATOM     12  C   UNL     1       0.511  11.332  18.729  0.00  0.00    +0.000 C 
ATOM     13  C   UNL     1      -0.098  10.951  20.077  0.00  0.00    +0.000 C 
ATOM     14  O   UNL     1       0.527   9.943  20.858  0.00  0.00    +0.000 OA
ATOM     15  C   UNL     1       1.182   8.992  20.125  0.00  0.00    +0.000 A 
ATOM     16  C   UNL     1       1.553   7.838  20.804  0.00  0.00    +0.000 A 
ATOM     17  C   UNL     1       2.290   6.847  20.149  0.00  0.00    +0.000 A 
ATOM     18  C   UNL     1       2.688   6.991  18.801  0.00  0.00    +0.000 A 
ATOM     19  C   UNL     1       2.286   8.164  18.126  0.00  0.00    +0.000 A 
ATOM     20  C   UNL     1       1.554   9.157  18.791  0.00  0.00    +0.000 A 
ATOM     21  N   UNL     1       1.260  10.353  18.134  0.00  0.00    +0.000 N 
ATOM     22  H   UNL     1       1.626  10.554  17.213  0.00  0.00    +0.000 HD
ENDBRANCH   1  18
BRANCH  10  23
ATOM     23  C   UNL     1       2.707   3.985  19.383  0.00  0.00    +0.000 A 
ATOM     24  C   UNL     1       1.847   3.346  18.478  0.00  0.00    +0.000 A 
ATOM     25  C   UNL     1       0.841   2.496  18.934  0.00  0.00    +0.000 A 
ATOM     26  F   UNL     1       0.074   1.855  18.043  0.00  0.00    +0.000 F 
ATOM     27  C   UNL     1       0.646   2.278  20.285  0.00  0.00    +0.000 A 
ATOM     28  C   UNL     1       1.465   2.939  21.181  0.00  0.00    +0.000 A 
ATOM     29  F   UNL     1       1.287   2.753  22.496  0.00  0.00    +0.000 F 
ATOM     30  C   UNL     1       2.483   3.786  20.751  0.00  0.00    +0.000 A 
ENDBRANCH  10  23
BRANCH   1  31
ATOM     31  O   UNL     1       3.271   5.674  16.824  0.00  0.00    +0.000 OA
ATOM     32  H   UNL     1       4.068   5.736  16.272  0.00  0.00    +0.000 HD
ENDBRANCH   1  31
TORSDOF 3
ENDMDL
MODEL 3
REMARK VINA RESULT:      -8.3      5.955      9.304
REMARK  Name = 
REMARK  3 active torsions:
REMARK  status: ('A' for Active; 'I' for Inactive)
REMARK    1  A    between atoms: C_8  and  C_9
REMARK    2  A    between atoms: C_9  and  O_10
REMARK    3  A    between atoms: N_19  and  C_20
REMARK                            x       y       z     vdW  Elec       q    Type
REMARK                         _______ _______ _______ _____ _____    ______ ____
ROOT
ATOM      1  C   UNL     1      -0.428  11.680  20.463  0.00  0.00    +0.000 C 
ATOM      2  C   UNL     1       0.452  10.478  20.190  0.00  0.00    +0.000 A 
ATOM      3  C   UNL     1       1.019   9.993  19.019  0.00  0.00    +0.000 A 
ATOM      4  C   UNL     1       1.661   8.742  19.052  0.00  0.00    +0.000 A 
ATOM      5  C   UNL     1       1.743   7.992  20.238  0.00  0.00    +0.000 A 
ATOM      6  C   UNL     1       1.188   8.484  21.414  0.00  0.00    +0.000 A 
ATOM      7  C   UNL     1       0.556   9.714  21.348  0.00  0.00    +0.000 A 
ATOM      8  C   UNL     1      -0.157  10.387  22.427  0.00  0.00    +0.000 C 
ATOM      9  O   UNL     1      -0.178   9.927  23.559  0.00  0.00    +0.000 OA
ATOM     10  N   UNL     1      -0.734  11.537  21.896  0.00  0.00    +0.000 N 
ENDROOT
BRANCH   1  18
ATOM     11  O   UNL     1      -0.944  18.166  17.295  0.00  0.00    +0.000 OA
ATOM     12  C   UNL     1      -0.264  17.358  17.923  0.00  0.00    +0.000 C 
ATOM     13  C   UNL     1       1.182  17.621  18.338  0.00  0.00    +0.000 C 
ATOM     14  O   UNL     1       2.025  16.520  18.646  0.00  0.00    +0.000 OA
ATOM     15  C   UNL     1       1.367  15.438  19.160  0.00  0.00    +0.000 A 
ATOM     16  C   UNL     1       2.157  14.459  19.749  0.00  0.00    +0.000 A 
ATOM     17  C   UNL     1       1.572  13.285  20.235  0.00  0.00    +0.000 A 
ATOM     18  C   UNL     1       0.182  13.055  20.132  0.00  0.00    +0.000 A 
ATOM     19  C   UNL     1      -0.604  14.070  19.544  0.00  0.00    +0.000 A 
ATOM     20  C   UNL     1      -0.010  15.240  19.052  0.00  0.00    +0.000 A 
ATOM     21  N   UNL     1      -0.793  16.181  18.382  0.00  0.00    +0.000 N 
ATOM     22  H   UNL     1      -1.767  16.007  18.175  0.00  0.00    +0.000 HD
ENDBRANCH   1  18
BRANCH  10  23
ATOM     23  C   UNL     1      -1.441  12.501  22.669  0.00  0.00    +0.000 A 
ATOM     24  C   UNL     1      -2.790  12.302  22.996  0.00  0.00    +0.000 A 
ATOM     25  C   UNL     1      -3.452  13.185  23.847  0.00  0.00    +0.000 A 
ATOM     26  F   UNL     1      -4.723  12.935  24.188  0.00  0.00    +0.000 F 
ATOM     27  C   UNL     1      -2.809  14.290  24.373  0.00  0.00    +0.000 A 
ATOM     28  C   UNL     1      -1.491  14.512  24.019  0.00  0.00    +0.000 A 
ATOM     29  F   UNL     1      -0.851  15.584  24.505  0.00  0.00    +0.000 F 
ATOM     30  C   UNL     1      -0.805  13.640  23.177  0.00  0.00    +0.000 A 
ENDBRANCH  10  23
BRANCH   1  31
ATOM     31  O   UNL     1      -1.637  11.469  19.734  0.00  0.00    +0.000 OA
ATOM     32  H   UNL     1      -1.996  12.353  19.548  0.00  0.00    +0.000 HD
ENDBRANCH   1  31
TORSDOF 3
ENDMDL
MODEL 4
REMARK VINA RESULT:      -8.2      0.231      1.512
REMARK  Name = 
REMARK  3 active torsions:
REMARK  status: ('A' for Active; 'I' for Inactive)
REMARK    1  A    between atoms: C_8  and  C_9
REMARK    2  A    between atoms: C_9  and  O_10
REMARK    3  A    between atoms: N_19  and  C_20
REMARK                            x       y       z     vdW  Elec       q    Type
REMARK                         _______ _______ _______ _____ _____    ______ ____
ROOT
ATOM      1  C   UNL     1       3.176   5.168  19.541  0.00  0.00    +0.000 C 
ATOM      2  C   UNL     1       2.111   4.128  19.266  0.00  0.00    +0.000 A 
ATOM      3  C   UNL     1       0.851   3.926  19.813  0.00  0.00    +0.000 A 
ATOM      4  C   UNL     1       0.148   2.758  19.468  0.00  0.00    +0.000 A 
ATOM      5  C   UNL     1       0.693   1.810  18.584  0.00  0.00    +0.000 A 
ATOM      6  C   UNL     1       1.949   2.019  18.025  0.00  0.00    +0.000 A 
ATOM      7  C   UNL     1       2.619   3.173  18.390  0.00  0.00    +0.000 A 
ATOM      8  C   UNL     1       3.966   3.563  17.993  0.00  0.00    +0.000 C 
ATOM      9  O   UNL     1       4.610   2.898  17.194  0.00  0.00    +0.000 OA
ATOM     10  N   UNL     1       4.285   4.732  18.677  0.00  0.00    +0.000 N 
ENDROOT
BRANCH   1  18
ATOM     11  O   UNL     1      -0.163  11.228  21.663  0.00  0.00    +0.000 OA
ATOM     12  C   UNL     1       0.458  10.624  20.792  0.00  0.00    +0.000 C 
ATOM     13  C   UNL     1       0.799  11.230  19.431  0.00  0.00    +0.000 C 
ATOM     14  O   UNL     1       1.102  10.367  18.346  0.00  0.00    +0.000 OA
ATOM     15  C   UNL     1       1.679   9.183  18.716  0.00  0.00    +0.000 A 
ATOM     16  C   UNL     1       2.261   8.437  17.699  0.00  0.00    +0.000 A 
ATOM     17  C   UNL     1       2.809   7.181  17.977  0.00  0.00    +0.000 A 
ATOM     18  C   UNL     1       2.776   6.632  19.279  0.00  0.00    +0.000 A 
ATOM     19  C   UNL     1       2.193   7.415  20.300  0.00  0.00    +0.000 A 
ATOM     20  C   UNL     1       1.639   8.670  20.012  0.00  0.00    +0.000 A 
ATOM     21  N   UNL     1       0.976   9.377  21.016  0.00  0.00    +0.000 N 
ATOM     22  H   UNL     1       0.819   8.975  21.931  0.00  0.00    +0.000 HD
ENDBRANCH   1  18
BRANCH  10  23
ATOM     23  C   UNL     1       5.491   5.462  18.483  0.00  0.00    +0.000 A 
ATOM     24  C   UNL     1       5.559   6.488  17.528  0.00  0.00    +0.000 A 
ATOM     25  C   UNL     1       6.700   7.279  17.416  0.00  0.00    +0.000 A 
ATOM     26  F   UNL     1       6.711   8.288  16.535  0.00  0.00    +0.000 F 
ATOM     27  C   UNL     1       7.803   7.063  18.221  0.00  0.00    +0.000 A 
ATOM     28  C   UNL     1       7.755   6.026  19.135  0.00  0.00    +0.000 A 
ATOM     29  F   UNL     1       8.817   5.790  19.917  0.00  0.00    +0.000 F 
ATOM     30  C   UNL     1       6.624   5.227  19.272  0.00  0.00    +0.000 A 
ENDBRANCH  10  23
BRANCH   1  31
ATOM     31  O   UNL     1       3.579   4.985  20.898  0.00  0.00    +0.000 OA
ATOM     32  H   UNL     1       3.215   5.739  21.391  0.00  0.00    +0.000 HD
ENDBRANCH   1  31
TORSDOF 3
ENDMDL
MODEL 5
REMARK VINA RESULT:      -8.2      2.672      5.074
REMARK  Name = 
REMARK  3 active torsions:
REMARK  status: ('A' for Active; 'I' for Inactive)
REMARK    1  A    between atoms: C_8  and  C_9
REMARK    2  A    between atoms: C_9  and  O_10
REMARK    3  A    between atoms: N_19  and  C_20
REMARK                            x       y       z     vdW  Elec       q    Type
REMARK                         _______ _______ _______ _____ _____    ______ ____
ROOT
ATOM      1  C   UNL     1       3.771   5.964  18.132  0.00  0.00    +0.000 C 
ATOM      2  C   UNL     1       5.186   6.494  18.035  0.00  0.00    +0.000 A 
ATOM      3  C   UNL     1       5.718   7.601  17.388  0.00  0.00    +0.000 A 
ATOM      4  C   UNL     1       7.117   7.743  17.340  0.00  0.00    +0.000 A 
ATOM      5  C   UNL     1       7.969   6.798  17.937  0.00  0.00    +0.000 A 
ATOM      6  C   UNL     1       7.436   5.697  18.598  0.00  0.00    +0.000 A 
ATOM      7  C   UNL     1       6.058   5.581  18.622  0.00  0.00    +0.000 A 
ATOM      8  C   UNL     1       5.284   4.481  19.185  0.00  0.00    +0.000 C 
ATOM      9  O   UNL     1       5.827   3.567  19.789  0.00  0.00    +0.000 OA
ATOM     10  N   UNL     1       3.945   4.714  18.889  0.00  0.00    +0.000 N 
ENDROOT
BRANCH   1  18
ATOM     11  O   UNL     1       0.116  12.210  18.169  0.00  0.00    +0.000 OA
ATOM     12  C   UNL     1       0.384  11.150  18.729  0.00  0.00    +0.000 C 
ATOM     13  C   UNL     1      -0.205  10.741  20.079  0.00  0.00    +0.000 C 
ATOM     14  O   UNL     1       0.464   9.759  20.856  0.00  0.00    +0.000 OA
ATOM     15  C   UNL     1       1.156   8.838  20.120  0.00  0.00    +0.000 A 
ATOM     16  C   UNL     1       1.577   7.699  20.795  0.00  0.00    +0.000 A 
ATOM     17  C   UNL     1       2.353   6.741  20.137  0.00  0.00    +0.000 A 
ATOM     18  C   UNL     1       2.740   6.903  18.787  0.00  0.00    +0.000 A 
ATOM     19  C   UNL     1       2.288   8.059  18.116  0.00  0.00    +0.000 A 
ATOM     20  C   UNL     1       1.517   9.020  18.785  0.00  0.00    +0.000 A 
ATOM     21  N   UNL     1       1.171  10.204  18.131  0.00  0.00    +0.000 N 
ATOM     22  H   UNL     1       1.526  10.421  17.209  0.00  0.00    +0.000 HD
ENDBRANCH   1  18
BRANCH  10  23
ATOM     23  C   UNL     1       2.875   3.896  19.351  0.00  0.00    +0.000 A 
ATOM     24  C   UNL     1       2.655   3.717  20.725  0.00  0.00    +0.000 A 
ATOM     25  C   UNL     1       1.543   3.013  21.180  0.00  0.00    +0.000 A 
ATOM     26  F   UNL     1       1.329   2.910  22.498  0.00  0.00    +0.000 F 
ATOM     27  C   UNL     1       0.640   2.451  20.296  0.00  0.00    +0.000 A 
ATOM     28  C   UNL     1       0.877   2.589  18.941  0.00  0.00    +0.000 A 
ATOM     29  F   UNL     1       0.023   2.042  18.065  0.00  0.00    +0.000 F 
ATOM     30  C   UNL     1       1.976   3.296  18.461  0.00  0.00    +0.000 A 
ENDBRANCH  10  23
BRANCH   1  31
ATOM     31  O   UNL     1       3.376   5.622  16.804  0.00  0.00    +0.000 OA
ATOM     32  H   UNL     1       2.432   5.845  16.737  0.00  0.00    +0.000 HD
ENDBRANCH   1  31
TORSDOF 3
ENDMDL
MODEL 6
REMARK VINA RESULT:      -8.2      5.837      9.151
REMARK  Name = 
REMARK  3 active torsions:
REMARK  status: ('A' for Active; 'I' for Inactive)
REMARK    1  A    between atoms: C_8  and  C_9
REMARK    2  A    between atoms: C_9  and  O_10
REMARK    3  A    between atoms: N_19  and  C_20
REMARK                            x       y       z     vdW  Elec       q    Type
REMARK                         _______ _______ _______ _____ _____    ______ ____
ROOT
ATOM      1  C   UNL     1      -0.354  11.509  20.505  0.00  0.00    +0.000 C 
ATOM      2  C   UNL     1       0.534  10.322  20.198  0.00  0.00    +0.000 A 
ATOM      3  C   UNL     1       1.099   9.870  19.013  0.00  0.00    +0.000 A 
ATOM      4  C   UNL     1       1.751   8.624  19.011  0.00  0.00    +0.000 A 
ATOM      5  C   UNL     1       1.844   7.845  20.178  0.00  0.00    +0.000 A 
ATOM      6  C   UNL     1       1.292   8.304  21.368  0.00  0.00    +0.000 A 
ATOM      7  C   UNL     1       0.650   9.530  21.336  0.00  0.00    +0.000 A 
ATOM      8  C   UNL     1      -0.062  10.170  22.435  0.00  0.00    +0.000 C 
ATOM      9  O   UNL     1      -0.075   9.681  23.555  0.00  0.00    +0.000 OA
ATOM     10  N   UNL     1      -0.651  11.329  21.936  0.00  0.00    +0.000 N 
ENDROOT
BRANCH   1  18
ATOM     11  O   UNL     1      -0.889  18.026  17.406  0.00  0.00    +0.000 OA
ATOM     12  C   UNL     1      -0.213  17.220  18.039  0.00  0.00    +0.000 C 
ATOM     13  C   UNL     1       1.220  17.499  18.491  0.00  0.00    +0.000 C 
ATOM     14  O   UNL     1       2.070  16.407  18.806  0.00  0.00    +0.000 OA
ATOM     15  C   UNL     1       1.417  15.308  19.292  0.00  0.00    +0.000 A 
ATOM     16  C   UNL     1       2.206  14.333  19.887  0.00  0.00    +0.000 A 
ATOM     17  C   UNL     1       1.628  13.146  20.345  0.00  0.00    +0.000 A 
ATOM     18  C   UNL     1       0.244  12.897  20.206  0.00  0.00    +0.000 A 
ATOM     19  C   UNL     1      -0.542  13.908  19.612  0.00  0.00    +0.000 A 
ATOM     20  C   UNL     1       0.046  15.093  19.148  0.00  0.00    +0.000 A 
ATOM     21  N   UNL     1      -0.735  16.031  18.471  0.00  0.00    +0.000 N 
ATOM     22  H   UNL     1      -1.702  15.845  18.239  0.00  0.00    +0.000 HD
ENDBRANCH   1  18
BRANCH  10  23
ATOM     23  C   UNL     1      -1.362  12.267  22.736  0.00  0.00    +0.000 A 
ATOM     24  C   UNL     1      -0.757  13.467  23.136  0.00  0.00    +0.000 A 
ATOM     25  C   UNL     1      -1.487  14.436  23.821  0.00  0.00    +0.000 A 
ATOM     26  F   UNL     1      -0.896  15.596  24.137  0.00  0.00    +0.000 F 
ATOM     27  C   UNL     1      -2.816  14.236  24.145  0.00  0.00    +0.000 A 
ATOM     28  C   UNL     1      -3.404  13.036  23.789  0.00  0.00    +0.000 A 
ATOM     29  F   UNL     1      -4.687  12.814  24.104  0.00  0.00    +0.000 F 
ATOM     30  C   UNL     1      -2.698  12.056  23.097  0.00  0.00    +0.000 A 
ENDBRANCH  10  23
BRANCH   1  31
ATOM     31  O   UNL     1      -1.565  11.308  19.777  0.00  0.00    +0.000 OA
ATOM     32  H   UNL     1      -1.372  11.562  18.859  0.00  0.00    +0.000 HD
ENDBRANCH   1  31
TORSDOF 3
ENDMDL
MODEL 7
REMARK VINA RESULT:      -8.1      2.557      5.111
REMARK  Name = 
REMARK  3 active torsions:
REMARK  status: ('A' for Active; 'I' for Inactive)
REMARK    1  A    between atoms: C_8  and  C_9
REMARK    2  A    between atoms: C_9  and  O_10
REMARK    3  A    between atoms: N_19  and  C_20
REMARK                            x       y       z     vdW  Elec       q    Type
REMARK                         _______ _______ _______ _____ _____    ______ ____
ROOT
ATOM      1  C   UNL     1       4.085   6.201  18.053  0.00  0.00    +0.000 C 
ATOM      2  C   UNL     1       5.543   6.609  18.076  0.00  0.00    +0.000 A 
ATOM      3  C   UNL     1       6.244   7.582  17.378  0.00  0.00    +0.000 A 
ATOM      4  C   UNL     1       7.645   7.614  17.493  0.00  0.00    +0.000 A 
ATOM      5  C   UNL     1       8.334   6.692  18.299  0.00  0.00    +0.000 A 
ATOM      6  C   UNL     1       7.632   5.726  19.011  0.00  0.00    +0.000 A 
ATOM      7  C   UNL     1       6.255   5.715  18.871  0.00  0.00    +0.000 A 
ATOM      8  C   UNL     1       5.326   4.756  19.456  0.00  0.00    +0.000 C 
ATOM      9  O   UNL     1       5.710   3.888  20.226  0.00  0.00    +0.000 OA
ATOM     10  N   UNL     1       4.056   5.047  18.966  0.00  0.00    +0.000 N 
ENDROOT
BRANCH   1  18
ATOM     11  O   UNL     1      -0.586   8.941  22.853  0.00  0.00    +0.000 OA
ATOM     12  C   UNL     1      -0.073   9.003  21.739  0.00  0.00    +0.000 C 
ATOM     13  C   UNL     1      -0.436  10.067  20.705  0.00  0.00    +0.000 C 
ATOM     14  O   UNL     1      -0.157   9.822  19.334  0.00  0.00    +0.000 OA
ATOM     15  C   UNL     1       0.928   9.020  19.117  0.00  0.00    +0.000 A 
ATOM     16  C   UNL     1       1.422   8.988  17.819  0.00  0.00    +0.000 A 
ATOM     17  C   UNL     1       2.483   8.139  17.494  0.00  0.00    +0.000 A 
ATOM     18  C   UNL     1       3.071   7.288  18.457  0.00  0.00    +0.000 A 
ATOM     19  C   UNL     1       2.565   7.349  19.773  0.00  0.00    +0.000 A 
ATOM     20  C   UNL     1       1.495   8.197  20.090  0.00  0.00    +0.000 A 
ATOM     21  N   UNL     1       0.944   8.162  21.372  0.00  0.00    +0.000 N 
ATOM     22  H   UNL     1       1.248   7.486  22.060  0.00  0.00    +0.000 HD
ENDBRANCH   1  18
BRANCH  10  23
ATOM     23  C   UNL     1       2.872   4.376  19.380  0.00  0.00    +0.000 A 
ATOM     24  C   UNL     1       1.961   3.885  18.433  0.00  0.00    +0.000 A 
ATOM     25  C   UNL     1       0.861   3.128  18.830  0.00  0.00    +0.000 A 
ATOM     26  F   UNL     1       0.044   2.623  17.898  0.00  0.00    +0.000 F 
ATOM     27  C   UNL     1       0.622   2.860  20.166  0.00  0.00    +0.000 A 
ATOM     28  C   UNL     1       1.494   3.377  21.105  0.00  0.00    +0.000 A 
ATOM     29  F   UNL     1       1.275   3.141  22.406  0.00  0.00    +0.000 F 
ATOM     30  C   UNL     1       2.605   4.129  20.733  0.00  0.00    +0.000 A 
ENDBRANCH  10  23
BRANCH   1  31
ATOM     31  O   UNL     1       3.820   5.723  16.734  0.00  0.00    +0.000 OA
ATOM     32  H   UNL     1       3.239   4.951  16.838  0.00  0.00    +0.000 HD
ENDBRANCH   1  31
TORSDOF 3
ENDMDL
MODEL 8
REMARK VINA RESULT:      -8.0      5.644      9.382
REMARK  Name = 
REMARK  3 active torsions:
REMARK  status: ('A' for Active; 'I' for Inactive)
REMARK    1  A    between atoms: C_8  and  C_9
REMARK    2  A    between atoms: C_9  and  O_10
REMARK    3  A    between atoms: N_19  and  C_20
REMARK                            x       y       z     vdW  Elec       q    Type
REMARK                         _______ _______ _______ _____ _____    ______ ____
ROOT
ATOM      1  C   UNL     1      -0.312  13.207  19.325  0.00  0.00    +0.000 C 
ATOM      2  C   UNL     1       0.149  14.650  19.298  0.00  0.00    +0.000 A 
ATOM      3  C   UNL     1      -0.332  15.763  18.623  0.00  0.00    +0.000 A 
ATOM      4  C   UNL     1       0.418  16.952  18.669  0.00  0.00    +0.000 A 
ATOM      5  C   UNL     1       1.625  17.029  19.385  0.00  0.00    +0.000 A 
ATOM      6  C   UNL     1       2.099  15.919  20.074  0.00  0.00    +0.000 A 
ATOM      7  C   UNL     1       1.344  14.761  20.004  0.00  0.00    +0.000 A 
ATOM      8  C   UNL     1       1.679  13.464  20.578  0.00  0.00    +0.000 C 
ATOM      9  O   UNL     1       2.671  13.316  21.276  0.00  0.00    +0.000 OA
ATOM     10  N   UNL     1       0.704  12.559  20.171  0.00  0.00    +0.000 N 
ENDROOT
BRANCH   1  18
ATOM     11  O   UNL     1      -7.022  10.717  18.258  0.00  0.00    +0.000 OA
ATOM     12  C   UNL     1      -6.225  11.300  18.989  0.00  0.00    +0.000 C 
ATOM     13  C   UNL     1      -6.597  11.854  20.363  0.00  0.00    +0.000 C 
ATOM     14  O   UNL     1      -5.793  12.873  20.938  0.00  0.00    +0.000 OA
ATOM     15  C   UNL     1      -4.477  12.823  20.570  0.00  0.00    +0.000 A 
ATOM     16  C   UNL     1      -3.597  13.595  21.318  0.00  0.00    +0.000 A 
ATOM     17  C   UNL     1      -2.246  13.660  20.964  0.00  0.00    +0.000 A 
ATOM     18  C   UNL     1      -1.742  12.963  19.842  0.00  0.00    +0.000 A 
ATOM     19  C   UNL     1      -2.651  12.172  19.106  0.00  0.00    +0.000 A 
ATOM     20  C   UNL     1      -4.005  12.119  19.462  0.00  0.00    +0.000 A 
ATOM     21  N   UNL     1      -4.902  11.415  18.657  0.00  0.00    +0.000 N 
ATOM     22  H   UNL     1      -4.614  11.002  17.780  0.00  0.00    +0.000 HD
ENDBRANCH   1  18
BRANCH  10  23
ATOM     23  C   UNL     1       0.646  11.205  20.604  0.00  0.00    +0.000 A 
ATOM     24  C   UNL     1       1.135  10.173  19.790  0.00  0.00    +0.000 A 
ATOM     25  C   UNL     1       1.186   8.862  20.258  0.00  0.00    +0.000 A 
ATOM     26  F   UNL     1       1.713   7.909  19.478  0.00  0.00    +0.000 F 
ATOM     27  C   UNL     1       0.735   8.536  21.524  0.00  0.00    +0.000 A 
ATOM     28  C   UNL     1       0.214   9.543  22.314  0.00  0.00    +0.000 A 
ATOM     29  F   UNL     1      -0.241   9.249  23.539  0.00  0.00    +0.000 F 
ATOM     30  C   UNL     1       0.160  10.862  21.872  0.00  0.00    +0.000 A 
ENDBRANCH  10  23
BRANCH   1  31
ATOM     31  O   UNL     1      -0.159  12.710  17.996  0.00  0.00    +0.000 OA
ATOM     32  H   UNL     1      -0.311  13.467  17.406  0.00  0.00    +0.000 HD
ENDBRANCH   1  31
TORSDOF 3
ENDMDL
MODEL 9
REMARK VINA RESULT:      -7.8      5.479      8.725
REMARK  Name = 
REMARK  3 active torsions:
REMARK  status: ('A' for Active; 'I' for Inactive)
REMARK    1  A    between atoms: C_8  and  C_9
REMARK    2  A    between atoms: C_9  and  O_10
REMARK    3  A    between atoms: N_19  and  C_20
REMARK                            x       y       z     vdW  Elec       q    Type
REMARK                         _______ _______ _______ _____ _____    ______ ____
ROOT
ATOM      1  C   UNL     1      -0.183  11.188  19.589  0.00  0.00    +0.000 C 
ATOM      2  C   UNL     1       0.753  10.014  19.391  0.00  0.00    +0.000 A 
ATOM      3  C   UNL     1       1.407   9.530  18.266  0.00  0.00    +0.000 A 
ATOM      4  C   UNL     1       2.089   8.303  18.362  0.00  0.00    +0.000 A 
ATOM      5  C   UNL     1       2.124   7.577  19.565  0.00  0.00    +0.000 A 
ATOM      6  C   UNL     1       1.482   8.069  20.695  0.00  0.00    +0.000 A 
ATOM      7  C   UNL     1       0.813   9.274  20.568  0.00  0.00    +0.000 A 
ATOM      8  C   UNL     1       0.013   9.939  21.589  0.00  0.00    +0.000 C 
ATOM      9  O   UNL     1      -0.061   9.497  22.726  0.00  0.00    +0.000 OA
ATOM     10  N   UNL     1      -0.570  11.059  21.003  0.00  0.00    +0.000 N 
ENDROOT
BRANCH   1  18
ATOM     11  O   UNL     1       5.059  16.117  20.352  0.00  0.00    +0.000 OA
ATOM     12  C   UNL     1       3.957  15.823  19.897  0.00  0.00    +0.000 C 
ATOM     13  C   UNL     1       3.099  16.790  19.083  0.00  0.00    +0.000 C 
ATOM     14  O   UNL     1       1.702  16.557  18.980  0.00  0.00    +0.000 OA
ATOM     15  C   UNL     1       1.348  15.238  19.044  0.00  0.00    +0.000 A 
ATOM     16  C   UNL     1       0.050  14.928  18.657  0.00  0.00    +0.000 A 
ATOM     17  C   UNL     1      -0.418  13.615  18.761  0.00  0.00    +0.000 A 
ATOM     18  C   UNL     1       0.397  12.578  19.269  0.00  0.00    +0.000 A 
ATOM     19  C   UNL     1       1.717  12.912  19.641  0.00  0.00    +0.000 A 
ATOM     20  C   UNL     1       2.177  14.232  19.542  0.00  0.00    +0.000 A 
ATOM     21  N   UNL     1       3.450  14.557  20.014  0.00  0.00    +0.000 N 
ATOM     22  H   UNL     1       4.024  13.878  20.496  0.00  0.00    +0.000 HD
ENDBRANCH   1  18
BRANCH  10  23
ATOM     23  C   UNL     1      -1.356  12.009  21.714  0.00  0.00    +0.000 A 
ATOM     24  C   UNL     1      -2.733  12.120  21.472  0.00  0.00    +0.000 A 
ATOM     25  C   UNL     1      -3.524  12.967  22.246  0.00  0.00    +0.000 A 
ATOM     26  F   UNL     1      -4.845  13.006  22.029  0.00  0.00    +0.000 F 
ATOM     27  C   UNL     1      -2.974  13.737  23.254  0.00  0.00    +0.000 A 
ATOM     28  C   UNL     1      -1.610  13.661  23.467  0.00  0.00    +0.000 A 
ATOM     29  F   UNL     1      -1.053  14.408  24.430  0.00  0.00    +0.000 F 
ATOM     30  C   UNL     1      -0.800  12.817  22.713  0.00  0.00    +0.000 A 
ENDBRANCH  10  23
BRANCH   1  31
ATOM     31  O   UNL     1      -1.338  10.922  18.792  0.00  0.00    +0.000 OA
ATOM     32  H   UNL     1      -2.086  10.872  19.410  0.00  0.00    +0.000 HD
ENDBRANCH   1  31
TORSDOF 3
ENDMDL
