MODEL 1
REMARK VINA RESULT:      -7.0      0.000      0.000
REMARK  Name = 
REMARK  3 active torsions:
REMARK  status: ('A' for Active; 'I' for Inactive)
REMARK    1  A    between atoms: C_1  and  C_2
REMARK    2  A    between atoms: C_6  and  C_7
REMARK    3  A    between atoms: C_11  and  C_12
REMARK                            x       y       z     vdW  Elec       q    Type
REMARK                         _______ _______ _______ _____ _____    ______ ____
ROOT
ATOM      1  C   UNL     1       4.523   5.329  16.999  0.00  0.00    +0.000 C 
ATOM      2  N   UNL     1       3.714   6.327  17.239  0.00  0.00    +0.000 NA
ATOM      3  N   UNL     1       2.745   5.836  18.103  0.00  0.00    +0.000 N 
ATOM      4  C   UNL     1       2.735   4.374  18.108  0.00  0.00    +0.000 C 
ATOM      5  C   UNL     1       2.899   3.710  19.452  0.00  0.00    +0.000 C 
ATOM      6  N   UNL     1       4.053   3.140  19.694  0.00  0.00    +0.000 NA
ATOM      7  C   UNL     1       4.882   3.343  18.497  0.00  0.00    +0.000 C 
ATOM      8  N   UNL     1       4.071   4.133  17.603  0.00  0.00    +0.000 N 
ATOM      9  H   UNL     1       1.820   6.228  17.881  0.00  0.00    +0.000 HD
ENDROOT
BRANCH   1  15
ATOM     10  C   UNL     1       7.333   6.745  17.657  0.00  0.00    +0.000 C 
ATOM     11  C   UNL     1       6.926   5.988  16.448  0.00  0.00    +0.000 A 
ATOM     12  N   UNL     1       7.854   5.828  15.426  0.00  0.00    +0.000 NA
ATOM     13  N   UNL     1       7.363   5.129  14.415  0.00  0.00    +0.000 NA
ATOM     14  S   UNL     1       5.784   4.658  14.663  0.00  0.00    +0.000 S 
ATOM     15  C   UNL     1       5.703   5.376  16.215  0.00  0.00    +0.000 A 
ENDBRANCH   1  15
BRANCH   5  16
ATOM     16  C   UNL     1       1.711   3.628  20.398  0.00  0.00    +0.000 C 
ATOM     17 CL   UNL     1       2.114   2.692  21.860  0.00  0.00    +0.000 Cl
ATOM     18 CL   UNL     1       1.291   5.292  20.896  0.00  0.00    +0.000 Cl
ATOM     19 CL   UNL     1       0.334   2.881  19.572  0.00  0.00    +0.000 Cl
ENDBRANCH   5  16
TORSDOF 2
ENDMDL
MODEL 2
REMARK VINA RESULT:      -7.0      0.156      1.205
REMARK  Name = 
REMARK  3 active torsions:
REMARK  status: ('A' for Active; 'I' for Inactive)
REMARK    1  A    between atoms: C_1  and  C_2
REMARK    2  A    between atoms: C_6  and  C_7
REMARK    3  A    between atoms: C_11  and  C_12
REMARK                            x       y       z     vdW  Elec       q    Type
REMARK                         _______ _______ _______ _____ _____    ______ ____
ROOT
ATOM      1  C   UNL     1       4.503   5.289  17.037  0.00  0.00    +0.000 C 
ATOM      2  N   UNL     1       3.705   6.284  17.324  0.00  0.00    +0.000 NA
ATOM      3  N   UNL     1       2.724   5.761  18.156  0.00  0.00    +0.000 N 
ATOM      4  C   UNL     1       2.695   4.301  18.084  0.00  0.00    +0.000 C 
ATOM      5  C   UNL     1       2.842   3.565  19.392  0.00  0.00    +0.000 C 
ATOM      6  N   UNL     1       3.987   2.968  19.610  0.00  0.00    +0.000 NA
ATOM      7  C   UNL     1       4.826   3.223  18.431  0.00  0.00    +0.000 C 
ATOM      8  N   UNL     1       4.031   4.069  17.574  0.00  0.00    +0.000 N 
ATOM      9  H   UNL     1       1.806   6.176  17.949  0.00  0.00    +0.000 HD
ENDROOT
BRANCH   1  15
ATOM     10  C   UNL     1       7.279   6.758  17.723  0.00  0.00    +0.000 C 
ATOM     11  C   UNL     1       6.897   5.997  16.508  0.00  0.00    +0.000 A 
ATOM     12  N   UNL     1       7.836   5.858  15.494  0.00  0.00    +0.000 NA
ATOM     13  N   UNL     1       7.368   5.152  14.477  0.00  0.00    +0.000 NA
ATOM     14  S   UNL     1       5.797   4.650  14.710  0.00  0.00    +0.000 S 
ATOM     15  C   UNL     1       5.689   5.362  16.263  0.00  0.00    +0.000 A 
ENDBRANCH   1  15
BRANCH   5  16
ATOM     16  C   UNL     1       1.647   3.450  20.326  0.00  0.00    +0.000 C 
ATOM     17 CL   UNL     1       1.060   5.057  20.825  0.00  0.00    +0.000 Cl
ATOM     18 CL   UNL     1       0.334   2.625  19.437  0.00  0.00    +0.000 Cl
ATOM     19 CL   UNL     1       2.091   2.506  21.757  0.00  0.00    +0.000 Cl
ENDBRANCH   5  16
TORSDOF 2
ENDMDL
MODEL 3
REMARK VINA RESULT:      -7.0      0.091      1.180
REMARK  Name = 
REMARK  3 active torsions:
REMARK  status: ('A' for Active; 'I' for Inactive)
REMARK    1  A    between atoms: C_1  and  C_2
REMARK    2  A    between atoms: C_6  and  C_7
REMARK    3  A    between atoms: C_11  and  C_12
REMARK                            x       y       z     vdW  Elec       q    Type
REMARK                         _______ _______ _______ _____ _____    ______ ____
ROOT
ATOM      1  C   UNL     1       4.536   5.385  16.992  0.00  0.00    +0.000 C 
ATOM      2  N   UNL     1       3.767   6.408  17.253  0.00  0.00    +0.000 NA
ATOM      3  N   UNL     1       2.795   5.943  18.129  0.00  0.00    +0.000 N 
ATOM      4  C   UNL     1       2.732   4.482  18.120  0.00  0.00    +0.000 C 
ATOM      5  C   UNL     1       2.894   3.799  19.455  0.00  0.00    +0.000 C 
ATOM      6  N   UNL     1       4.030   3.187  19.673  0.00  0.00    +0.000 NA
ATOM      7  C   UNL     1       4.847   3.372  18.465  0.00  0.00    +0.000 C 
ATOM      8  N   UNL     1       4.051   4.199  17.591  0.00  0.00    +0.000 N 
ATOM      9  H   UNL     1       1.881   6.370  17.925  0.00  0.00    +0.000 HD
ENDROOT
BRANCH   1  15
ATOM     10  C   UNL     1       7.387   6.742  17.594  0.00  0.00    +0.000 C 
ATOM     11  C   UNL     1       6.945   5.984  16.398  0.00  0.00    +0.000 A 
ATOM     12  N   UNL     1       7.853   5.793  15.364  0.00  0.00    +0.000 NA
ATOM     13  N   UNL     1       7.331   5.096  14.367  0.00  0.00    +0.000 NA
ATOM     14  S   UNL     1       5.746   4.663  14.643  0.00  0.00    +0.000 S 
ATOM     15  C   UNL     1       5.705   5.397  16.189  0.00  0.00    +0.000 A 
ENDBRANCH   1  15
BRANCH   5  16
ATOM     16  C   UNL     1       1.718   3.750  20.419  0.00  0.00    +0.000 C 
ATOM     17 CL   UNL     1       0.313   2.938  19.683  0.00  0.00    +0.000 Cl
ATOM     18 CL   UNL     1       2.223   2.809  21.852  0.00  0.00    +0.000 Cl
ATOM     19 CL   UNL     1       1.271   5.394  20.905  0.00  0.00    +0.000 Cl
ENDBRANCH   5  16
TORSDOF 2
ENDMDL
MODEL 4
REMARK VINA RESULT:      -6.9      1.188      1.548
REMARK  Name = 
REMARK  3 active torsions:
REMARK  status: ('A' for Active; 'I' for Inactive)
REMARK    1  A    between atoms: C_1  and  C_2
REMARK    2  A    between atoms: C_6  and  C_7
REMARK    3  A    between atoms: C_11  and  C_12
REMARK                            x       y       z     vdW  Elec       q    Type
REMARK                         _______ _______ _______ _____ _____    ______ ____
ROOT
ATOM      1  C   UNL     1       4.405   5.469  17.316  0.00  0.00    +0.000 C 
ATOM      2  N   UNL     1       3.379   6.275  17.386  0.00  0.00    +0.000 NA
ATOM      3  N   UNL     1       2.389   5.576  18.065  0.00  0.00    +0.000 N 
ATOM      4  C   UNL     1       2.678   4.143  18.090  0.00  0.00    +0.000 C 
ATOM      5  C   UNL     1       2.725   3.496  19.452  0.00  0.00    +0.000 C 
ATOM      6  N   UNL     1       3.907   3.169  19.911  0.00  0.00    +0.000 NA
ATOM      7  C   UNL     1       4.882   3.565  18.885  0.00  0.00    +0.000 C 
ATOM      8  N   UNL     1       4.105   4.192  17.844  0.00  0.00    +0.000 N 
ATOM      9  H   UNL     1       1.460   5.775  17.669  0.00  0.00    +0.000 HD
ENDROOT
BRANCH   1  15
ATOM     10  C   UNL     1       5.830   4.226  14.717  0.00  0.00    +0.000 C 
ATOM     11  C   UNL     1       6.335   5.253  15.661  0.00  0.00    +0.000 A 
ATOM     12  N   UNL     1       7.593   5.798  15.432  0.00  0.00    +0.000 NA
ATOM     13  N   UNL     1       7.914   6.704  16.341  0.00  0.00    +0.000 NA
ATOM     14  S   UNL     1       6.725   6.915  17.489  0.00  0.00    +0.000 S 
ATOM     15  C   UNL     1       5.675   5.775  16.763  0.00  0.00    +0.000 A 
ENDBRANCH   1  15
BRANCH   5  16
ATOM     16  C   UNL     1       1.426   3.151  20.164  0.00  0.00    +0.000 C 
ATOM     17 CL   UNL     1       1.737   2.286  21.690  0.00  0.00    +0.000 Cl
ATOM     18 CL   UNL     1       0.588   4.683  20.548  0.00  0.00    +0.000 Cl
ATOM     19 CL   UNL     1       0.409   2.157  19.109  0.00  0.00    +0.000 Cl
ENDBRANCH   5  16
TORSDOF 2
ENDMDL
MODEL 5
REMARK VINA RESULT:      -6.9      1.191      1.969
REMARK  Name = 
REMARK  3 active torsions:
REMARK  status: ('A' for Active; 'I' for Inactive)
REMARK    1  A    between atoms: C_1  and  C_2
REMARK    2  A    between atoms: C_6  and  C_7
REMARK    3  A    between atoms: C_11  and  C_12
REMARK                            x       y       z     vdW  Elec       q    Type
REMARK                         _______ _______ _______ _____ _____    ______ ____
ROOT
ATOM      1  C   UNL     1       4.424   5.548  17.381  0.00  0.00    +0.000 C 
ATOM      2  N   UNL     1       3.435   6.390  17.529  0.00  0.00    +0.000 NA
ATOM      3  N   UNL     1       2.437   5.694  18.197  0.00  0.00    +0.000 N 
ATOM      4  C   UNL     1       2.665   4.252  18.132  0.00  0.00    +0.000 C 
ATOM      5  C   UNL     1       2.723   3.525  19.451  0.00  0.00    +0.000 C 
ATOM      6  N   UNL     1       3.903   3.122  19.854  0.00  0.00    +0.000 NA
ATOM      7  C   UNL     1       4.864   3.537  18.822  0.00  0.00    +0.000 C 
ATOM      8  N   UNL     1       4.085   4.256  17.844  0.00  0.00    +0.000 N 
ATOM      9  H   UNL     1       1.506   5.955  17.843  0.00  0.00    +0.000 HD
ENDROOT
BRANCH   1  15
ATOM     10  C   UNL     1       5.815   4.230  14.800  0.00  0.00    +0.000 C 
ATOM     11  C   UNL     1       6.335   5.279  15.711  0.00  0.00    +0.000 A 
ATOM     12  N   UNL     1       7.593   5.812  15.455  0.00  0.00    +0.000 NA
ATOM     13  N   UNL     1       7.928   6.739  16.336  0.00  0.00    +0.000 NA
ATOM     14  S   UNL     1       6.752   6.987  17.491  0.00  0.00    +0.000 S 
ATOM     15  C   UNL     1       5.689   5.833  16.806  0.00  0.00    +0.000 A 
ENDBRANCH   1  15
BRANCH   5  16
ATOM     16  C   UNL     1       1.431   3.193  20.183  0.00  0.00    +0.000 C 
ATOM     17 CL   UNL     1       0.501   4.668  20.550  0.00  0.00    +0.000 Cl
ATOM     18 CL   UNL     1       0.444   2.159  19.111  0.00  0.00    +0.000 Cl
ATOM     19 CL   UNL     1       1.797   2.328  21.684  0.00  0.00    +0.000 Cl
ENDBRANCH   5  16
TORSDOF 2
ENDMDL
MODEL 6
REMARK VINA RESULT:      -6.8      1.188      1.911
REMARK  Name = 
REMARK  3 active torsions:
REMARK  status: ('A' for Active; 'I' for Inactive)
REMARK    1  A    between atoms: C_1  and  C_2
REMARK    2  A    between atoms: C_6  and  C_7
REMARK    3  A    between atoms: C_11  and  C_12
REMARK                            x       y       z     vdW  Elec       q    Type
REMARK                         _______ _______ _______ _____ _____    ______ ____
ROOT
ATOM      1  C   UNL     1       4.400   5.471  17.311  0.00  0.00    +0.000 C 
ATOM      2  N   UNL     1       3.369   6.272  17.361  0.00  0.00    +0.000 NA
ATOM      3  N   UNL     1       2.378   5.580  18.046  0.00  0.00    +0.000 N 
ATOM      4  C   UNL     1       2.674   4.150  18.097  0.00  0.00    +0.000 C 
ATOM      5  C   UNL     1       2.717   3.526  19.470  0.00  0.00    +0.000 C 
ATOM      6  N   UNL     1       3.897   3.213  19.942  0.00  0.00    +0.000 NA
ATOM      7  C   UNL     1       4.877   3.595  18.915  0.00  0.00    +0.000 C 
ATOM      8  N   UNL     1       4.103   4.201  17.859  0.00  0.00    +0.000 N 
ATOM      9  H   UNL     1       1.451   5.768  17.642  0.00  0.00    +0.000 HD
ENDROOT
BRANCH   1  15
ATOM     10  C   UNL     1       5.808   4.254  14.690  0.00  0.00    +0.000 C 
ATOM     11  C   UNL     1       6.325   5.261  15.648  0.00  0.00    +0.000 A 
ATOM     12  N   UNL     1       7.587   5.799  15.426  0.00  0.00    +0.000 NA
ATOM     13  N   UNL     1       7.918   6.688  16.348  0.00  0.00    +0.000 NA
ATOM     14  S   UNL     1       6.733   6.893  17.501  0.00  0.00    +0.000 S 
ATOM     15  C   UNL     1       5.671   5.773  16.759  0.00  0.00    +0.000 A 
ENDBRANCH   1  15
BRANCH   5  16
ATOM     16  C   UNL     1       1.415   3.187  20.180  0.00  0.00    +0.000 C 
ATOM     17 CL   UNL     1       0.386   2.136  19.174  0.00  0.00    +0.000 Cl
ATOM     18 CL   UNL     1       1.822   2.304  21.680  0.00  0.00    +0.000 Cl
ATOM     19 CL   UNL     1       0.541   4.676  20.575  0.00  0.00    +0.000 Cl
ENDBRANCH   5  16
TORSDOF 2
ENDMDL
MODEL 7
REMARK VINA RESULT:      -6.5      1.033      1.797
REMARK  Name = 
REMARK  3 active torsions:
REMARK  status: ('A' for Active; 'I' for Inactive)
REMARK    1  A    between atoms: C_1  and  C_2
REMARK    2  A    between atoms: C_6  and  C_7
REMARK    3  A    between atoms: C_11  and  C_12
REMARK                            x       y       z     vdW  Elec       q    Type
REMARK                         _______ _______ _______ _____ _____    ______ ____
ROOT
ATOM      1  C   UNL     1       5.166   3.755  16.858  0.00  0.00    +0.000 C 
ATOM      2  N   UNL     1       4.863   2.484  16.862  0.00  0.00    +0.000 NA
ATOM      3  N   UNL     1       3.920   2.318  17.868  0.00  0.00    +0.000 N 
ATOM      4  C   UNL     1       3.911   3.463  18.776  0.00  0.00    +0.000 C 
ATOM      5  C   UNL     1       2.584   4.153  18.967  0.00  0.00    +0.000 C 
ATOM      6  N   UNL     1       2.437   5.323  18.397  0.00  0.00    +0.000 NA
ATOM      7  C   UNL     1       3.699   5.613  17.701  0.00  0.00    +0.000 C 
ATOM      8  N   UNL     1       4.525   4.449  17.910  0.00  0.00    +0.000 N 
ATOM      9  H   UNL     1       4.066   1.430  18.366  0.00  0.00    +0.000 HD
ENDROOT
BRANCH   1  15
ATOM     10  C   UNL     1       7.417   5.968  17.467  0.00  0.00    +0.000 C 
ATOM     11  C   UNL     1       7.014   5.375  16.168  0.00  0.00    +0.000 A 
ATOM     12  N   UNL     1       7.676   5.789  15.019  0.00  0.00    +0.000 NA
ATOM     13  N   UNL     1       7.224   5.176  13.937  0.00  0.00    +0.000 NA
ATOM     14  S   UNL     1       5.996   4.100  14.271  0.00  0.00    +0.000 S 
ATOM     15  C   UNL     1       6.046   4.405  15.955  0.00  0.00    +0.000 A 
ENDBRANCH   1  15
BRANCH   5  16
ATOM     16  C   UNL     1       1.542   3.534  19.887  0.00  0.00    +0.000 C 
ATOM     17 CL   UNL     1       2.311   2.658  21.235  0.00  0.00    +0.000 Cl
ATOM     18 CL   UNL     1       0.556   4.859  20.569  0.00  0.00    +0.000 Cl
ATOM     19 CL   UNL     1       0.511   2.427  18.967  0.00  0.00    +0.000 Cl
ENDBRANCH   5  16
TORSDOF 2
ENDMDL
MODEL 8
REMARK VINA RESULT:      -6.5      1.114      1.655
REMARK  Name = 
REMARK  3 active torsions:
REMARK  status: ('A' for Active; 'I' for Inactive)
REMARK    1  A    between atoms: C_1  and  C_2
REMARK    2  A    between atoms: C_6  and  C_7
REMARK    3  A    between atoms: C_11  and  C_12
REMARK                            x       y       z     vdW  Elec       q    Type
REMARK                         _______ _______ _______ _____ _____    ______ ____
ROOT
ATOM      1  C   UNL     1       5.601   4.594  17.883  0.00  0.00    +0.000 C 
ATOM      2  N   UNL     1       6.035   4.106  19.014  0.00  0.00    +0.000 NA
ATOM      3  N   UNL     1       4.904   3.820  19.768  0.00  0.00    +0.000 N 
ATOM      4  C   UNL     1       3.728   4.505  19.234  0.00  0.00    +0.000 C 
ATOM      5  C   UNL     1       2.546   3.633  18.893  0.00  0.00    +0.000 C 
ATOM      6  N   UNL     1       2.306   3.432  17.621  0.00  0.00    +0.000 NA
ATOM      7  C   UNL     1       3.337   4.168  16.877  0.00  0.00    +0.000 C 
ATOM      8  N   UNL     1       4.195   4.745  17.883  0.00  0.00    +0.000 N 
ATOM      9  H   UNL     1       5.060   4.036  20.761  0.00  0.00    +0.000 HD
ENDROOT
BRANCH   1  15
ATOM     10  C   UNL     1       7.445   7.201  17.509  0.00  0.00    +0.000 C 
ATOM     11  C   UNL     1       7.188   6.091  16.559  0.00  0.00    +0.000 A 
ATOM     12  N   UNL     1       7.817   6.124  15.320  0.00  0.00    +0.000 NA
ATOM     13  N   UNL     1       7.507   5.073  14.578  0.00  0.00    +0.000 NA
ATOM     14  S   UNL     1       6.456   4.031  15.342  0.00  0.00    +0.000 S 
ATOM     15  C   UNL     1       6.397   4.972  16.771  0.00  0.00    +0.000 A 
ENDBRANCH   1  15
BRANCH   5  16
ATOM     16  C   UNL     1       1.636   3.135  20.005  0.00  0.00    +0.000 C 
ATOM     17 CL   UNL     1       2.575   2.385  21.321  0.00  0.00    +0.000 Cl
ATOM     18 CL   UNL     1       0.763   4.545  20.673  0.00  0.00    +0.000 Cl
ATOM     19 CL   UNL     1       0.478   1.963  19.355  0.00  0.00    +0.000 Cl
ENDBRANCH   5  16
TORSDOF 2
ENDMDL
MODEL 9
REMARK VINA RESULT:      -6.4      1.040      2.167
REMARK  Name = 
REMARK  3 active torsions:
REMARK  status: ('A' for Active; 'I' for Inactive)
REMARK    1  A    between atoms: C_1  and  C_2
REMARK    2  A    between atoms: C_6  and  C_7
REMARK    3  A    between atoms: C_11  and  C_12
REMARK                            x       y       z     vdW  Elec       q    Type
REMARK                         _______ _______ _______ _____ _____    ______ ____
ROOT
ATOM      1  C   UNL     1       5.162   3.748  16.869  0.00  0.00    +0.000 C 
ATOM      2  N   UNL     1       4.855   2.478  16.884  0.00  0.00    +0.000 NA
ATOM      3  N   UNL     1       3.915   2.323  17.895  0.00  0.00    +0.000 N 
ATOM      4  C   UNL     1       3.913   3.475  18.795  0.00  0.00    +0.000 C 
ATOM      5  C   UNL     1       2.589   4.170  18.986  0.00  0.00    +0.000 C 
ATOM      6  N   UNL     1       2.444   5.336  18.406  0.00  0.00    +0.000 NA
ATOM      7  C   UNL     1       3.703   5.617  17.703  0.00  0.00    +0.000 C 
ATOM      8  N   UNL     1       4.527   4.452  17.918  0.00  0.00    +0.000 N 
ATOM      9  H   UNL     1       4.061   1.438  18.401  0.00  0.00    +0.000 HD
ENDROOT
BRANCH   1  15
ATOM     10  C   UNL     1       7.434   5.945  17.454  0.00  0.00    +0.000 C 
ATOM     11  C   UNL     1       7.017   5.351  16.160  0.00  0.00    +0.000 A 
ATOM     12  N   UNL     1       7.674   5.756  15.005  0.00  0.00    +0.000 NA
ATOM     13  N   UNL     1       7.208   5.143  13.928  0.00  0.00    +0.000 NA
ATOM     14  S   UNL     1       5.974   4.079  14.275  0.00  0.00    +0.000 S 
ATOM     15  C   UNL     1       6.040   4.388  15.958  0.00  0.00    +0.000 A 
ENDBRANCH   1  15
BRANCH   5  16
ATOM     16  C   UNL     1       1.549   3.562  19.914  0.00  0.00    +0.000 C 
ATOM     17 CL   UNL     1       0.483   4.815  20.598  0.00  0.00    +0.000 Cl
ATOM     18 CL   UNL     1       0.547   2.436  18.953  0.00  0.00    +0.000 Cl
ATOM     19 CL   UNL     1       2.354   2.683  21.224  0.00  0.00    +0.000 Cl
ENDBRANCH   5  16
TORSDOF 2
ENDMDL
