MODEL 1
REMARK VINA RESULT:      -6.7      0.000      0.000
REMARK  Name = 
REMARK  2 active torsions:
REMARK  status: ('A' for Active; 'I' for Inactive)
REMARK    1  A    between atoms: C_2  and  C_9
REMARK    2  A    between atoms: N_3  and  N_4
REMARK                            x       y       z     vdW  Elec       q    Type
REMARK                         _______ _______ _______ _____ _____    ______ ____
ROOT
ATOM      1  O   UNL     1       5.811   4.000  18.732  0.00  0.00    +0.000 OA
ATOM      2  C   UNL     1       4.772   4.376  18.200  0.00  0.00    +0.000 C 
ATOM      3  N   UNL     1       4.675   4.725  16.876  0.00  0.00    +0.000 N 
ATOM      4  H   UNL     1       3.840   5.140  16.483  0.00  0.00    +0.000 HD
ENDROOT
BRANCH   2   5
ATOM      5  C   UNL     1       3.528   4.431  19.020  0.00  0.00    +0.000 A 
ATOM      6  C   UNL     1       3.158   5.705  19.487  0.00  0.00    +0.000 A 
ATOM      7  C   UNL     1       2.006   5.873  20.249  0.00  0.00    +0.000 A 
ATOM      8 BR   UNL     1       1.536   7.591  20.879  0.00  0.00    +0.000 Br
ATOM      9  C   UNL     1       1.195   4.783  20.552  0.00  0.00    +0.000 A 
ATOM     10  C   UNL     1       1.548   3.514  20.088  0.00  0.00    +0.000 A 
ATOM     11  C   UNL     1       2.708   3.329  19.325  0.00  0.00    +0.000 A 
ATOM     12 CL   UNL     1       3.018   1.718  18.782  0.00  0.00    +0.000 Cl
ENDBRANCH   2   5
BRANCH   3  13
ATOM     13  N   UNL     1       5.776   4.766  16.088  0.00  0.00    +0.000 N 
ATOM     14  C   UNL     1       5.911   4.080  14.925  0.00  0.00    +0.000 A 
ATOM     15  N   UNL     1       7.014   4.473  14.326  0.00  0.00    +0.000 NA
ATOM     16  N   UNL     1       7.595   5.449  15.115  0.00  0.00    +0.000 NA
ATOM     17  C   UNL     1       6.826   5.620  16.170  0.00  0.00    +0.000 A 
ENDBRANCH   3  13
TORSDOF 2
ENDMDL
MODEL 2
REMARK VINA RESULT:      -6.4      3.814      6.202
REMARK  Name = 
REMARK  2 active torsions:
REMARK  status: ('A' for Active; 'I' for Inactive)
REMARK    1  A    between atoms: C_2  and  C_9
REMARK    2  A    between atoms: N_3  and  N_4
REMARK                            x       y       z     vdW  Elec       q    Type
REMARK                         _______ _______ _______ _____ _____    ______ ____
ROOT
ATOM      1  O   UNL     1       4.005   5.316  19.631  0.00  0.00    +0.000 OA
ATOM      2  C   UNL     1       4.306   4.352  18.935  0.00  0.00    +0.000 C 
ATOM      3  N   UNL     1       3.697   3.125  19.024  0.00  0.00    +0.000 N 
ATOM      4  H   UNL     1       4.034   2.313  18.523  0.00  0.00    +0.000 HD
ENDROOT
BRANCH   2   5
ATOM      5  C   UNL     1       5.372   4.520  17.905  0.00  0.00    +0.000 A 
ATOM      6  C   UNL     1       5.013   4.169  16.591  0.00  0.00    +0.000 A 
ATOM      7  C   UNL     1       5.926   4.300  15.549  0.00  0.00    +0.000 A 
ATOM      8 BR   UNL     1       5.429   3.808  13.794  0.00  0.00    +0.000 Br
ATOM      9  C   UNL     1       7.206   4.792  15.790  0.00  0.00    +0.000 A 
ATOM     10  C   UNL     1       7.571   5.150  17.089  0.00  0.00    +0.000 A 
ATOM     11  C   UNL     1       6.665   5.018  18.149  0.00  0.00    +0.000 A 
ATOM     12 CL   UNL     1       7.223   5.527  19.703  0.00  0.00    +0.000 Cl
ENDBRANCH   2   5
BRANCH   3  13
ATOM     13  N   UNL     1       2.771   2.880  19.980  0.00  0.00    +0.000 N 
ATOM     14  C   UNL     1       3.063   2.579  21.271  0.00  0.00    +0.000 A 
ATOM     15  N   UNL     1       1.948   2.574  21.969  0.00  0.00    +0.000 NA
ATOM     16  N   UNL     1       0.914   2.896  21.109  0.00  0.00    +0.000 NA
ATOM     17  C   UNL     1       1.432   3.089  19.914  0.00  0.00    +0.000 A 
ENDBRANCH   3  13
TORSDOF 2
ENDMDL
MODEL 3
REMARK VINA RESULT:      -6.3      3.857      6.251
REMARK  Name = 
REMARK  2 active torsions:
REMARK  status: ('A' for Active; 'I' for Inactive)
REMARK    1  A    between atoms: C_2  and  C_9
REMARK    2  A    between atoms: N_3  and  N_4
REMARK                            x       y       z     vdW  Elec       q    Type
REMARK                         _______ _______ _______ _____ _____    ______ ____
ROOT
ATOM      1  O   UNL     1       3.723   2.236  17.745  0.00  0.00    +0.000 OA
ATOM      2  C   UNL     1       4.183   3.311  18.117  0.00  0.00    +0.000 C 
ATOM      3  N   UNL     1       3.820   3.934  19.285  0.00  0.00    +0.000 N 
ATOM      4  H   UNL     1       4.125   4.870  19.519  0.00  0.00    +0.000 HD
ENDROOT
BRANCH   2   5
ATOM      5  C   UNL     1       5.224   3.972  17.278  0.00  0.00    +0.000 A 
ATOM      6  C   UNL     1       5.189   3.665  15.905  0.00  0.00    +0.000 A 
ATOM      7  C   UNL     1       6.104   4.237  15.027  0.00  0.00    +0.000 A 
ATOM      8 BR   UNL     1       6.050   3.799  13.191  0.00  0.00    +0.000 Br
ATOM      9  C   UNL     1       7.062   5.133  15.493  0.00  0.00    +0.000 A 
ATOM     10  C   UNL     1       7.103   5.452  16.852  0.00  0.00    +0.000 A 
ATOM     11  C   UNL     1       6.191   4.879  17.748  0.00  0.00    +0.000 A 
ATOM     12 CL   UNL     1       6.321   5.378  19.397  0.00  0.00    +0.000 Cl
ENDBRANCH   2   5
BRANCH   3  13
ATOM     13  N   UNL     1       2.834   3.428  20.062  0.00  0.00    +0.000 N 
ATOM     14  C   UNL     1       3.043   2.726  21.204  0.00  0.00    +0.000 A 
ATOM     15  N   UNL     1       1.887   2.535  21.802  0.00  0.00    +0.000 NA
ATOM     16  N   UNL     1       0.911   3.144  21.035  0.00  0.00    +0.000 NA
ATOM     17  C   UNL     1       1.505   3.688  19.993  0.00  0.00    +0.000 A 
ENDBRANCH   3  13
TORSDOF 2
ENDMDL
MODEL 4
REMARK VINA RESULT:      -6.3      3.974      6.343
REMARK  Name = 
REMARK  2 active torsions:
REMARK  status: ('A' for Active; 'I' for Inactive)
REMARK    1  A    between atoms: C_2  and  C_9
REMARK    2  A    between atoms: N_3  and  N_4
REMARK                            x       y       z     vdW  Elec       q    Type
REMARK                         _______ _______ _______ _____ _____    ______ ____
ROOT
ATOM      1  O   UNL     1       3.390   4.918  17.512  0.00  0.00    +0.000 OA
ATOM      2  C   UNL     1       4.260   4.069  17.348  0.00  0.00    +0.000 C 
ATOM      3  N   UNL     1       4.283   2.862  18.001  0.00  0.00    +0.000 N 
ATOM      4  H   UNL     1       5.066   2.225  17.938  0.00  0.00    +0.000 HD
ENDROOT
BRANCH   2   5
ATOM      5  C   UNL     1       5.343   4.338  16.359  0.00  0.00    +0.000 A 
ATOM      6  C   UNL     1       5.120   3.852  15.058  0.00  0.00    +0.000 A 
ATOM      7  C   UNL     1       6.059   4.060  14.053  0.00  0.00    +0.000 A 
ATOM      8 BR   UNL     1       5.746   3.384  12.317  0.00  0.00    +0.000 Br
ATOM      9  C   UNL     1       7.230   4.764  14.317  0.00  0.00    +0.000 A 
ATOM     10  C   UNL     1       7.460   5.259  15.602  0.00  0.00    +0.000 A 
ATOM     11  C   UNL     1       6.526   5.052  16.625  0.00  0.00    +0.000 A 
ATOM     12 CL   UNL     1       6.909   5.741  18.163  0.00  0.00    +0.000 Cl
ENDBRANCH   2   5
BRANCH   3  13
ATOM     13  N   UNL     1       3.372   2.577  18.961  0.00  0.00    +0.000 N 
ATOM     14  C   UNL     1       3.514   2.899  20.272  0.00  0.00    +0.000 A 
ATOM     15  N   UNL     1       2.386   2.641  20.897  0.00  0.00    +0.000 NA
ATOM     16  N   UNL     1       1.490   2.157  19.962  0.00  0.00    +0.000 NA
ATOM     17  C   UNL     1       2.100   2.136  18.796  0.00  0.00    +0.000 A 
ENDBRANCH   3  13
TORSDOF 2
ENDMDL
MODEL 5
REMARK VINA RESULT:      -6.3      3.861      6.200
REMARK  Name = 
REMARK  2 active torsions:
REMARK  status: ('A' for Active; 'I' for Inactive)
REMARK    1  A    between atoms: C_2  and  C_9
REMARK    2  A    between atoms: N_3  and  N_4
REMARK                            x       y       z     vdW  Elec       q    Type
REMARK                         _______ _______ _______ _____ _____    ______ ____
ROOT
ATOM      1  O   UNL     1       2.956   5.342  17.738  0.00  0.00    +0.000 OA
ATOM      2  C   UNL     1       3.779   4.440  17.854  0.00  0.00    +0.000 C 
ATOM      3  N   UNL     1       3.587   3.326  18.633  0.00  0.00    +0.000 N 
ATOM      4  H   UNL     1       4.320   2.650  18.805  0.00  0.00    +0.000 HD
ENDROOT
BRANCH   2   5
ATOM      5  C   UNL     1       5.053   4.532  17.084  0.00  0.00    +0.000 A 
ATOM      6  C   UNL     1       4.972   4.185  15.723  0.00  0.00    +0.000 A 
ATOM      7  C   UNL     1       6.097   4.249  14.908  0.00  0.00    +0.000 A 
ATOM      8 BR   UNL     1       5.970   3.762  13.087  0.00  0.00    +0.000 Br
ATOM      9  C   UNL     1       7.320   4.669  15.424  0.00  0.00    +0.000 A 
ATOM     10  C   UNL     1       7.412   5.024  16.772  0.00  0.00    +0.000 A 
ATOM     11  C   UNL     1       6.288   4.959  17.606  0.00  0.00    +0.000 A 
ATOM     12 CL   UNL     1       6.521   5.456  19.244  0.00  0.00    +0.000 Cl
ENDBRANCH   2   5
BRANCH   3  13
ATOM     13  N   UNL     1       2.487   3.207  19.412  0.00  0.00    +0.000 N 
ATOM     14  C   UNL     1       1.300   2.702  18.991  0.00  0.00    +0.000 A 
ATOM     15  N   UNL     1       0.504   2.564  20.028  0.00  0.00    +0.000 NA
ATOM     16  N   UNL     1       1.202   2.976  21.149  0.00  0.00    +0.000 NA
ATOM     17  C   UNL     1       2.402   3.350  20.758  0.00  0.00    +0.000 A 
ENDBRANCH   3  13
TORSDOF 2
ENDMDL
MODEL 6
REMARK VINA RESULT:      -6.3      3.630      6.220
REMARK  Name = 
REMARK  2 active torsions:
REMARK  status: ('A' for Active; 'I' for Inactive)
REMARK    1  A    between atoms: C_2  and  C_9
REMARK    2  A    between atoms: N_3  and  N_4
REMARK                            x       y       z     vdW  Elec       q    Type
REMARK                         _______ _______ _______ _____ _____    ______ ____
ROOT
ATOM      1  O   UNL     1       5.075   3.493  19.069  0.00  0.00    +0.000 OA
ATOM      2  C   UNL     1       4.609   3.984  18.046  0.00  0.00    +0.000 C 
ATOM      3  N   UNL     1       3.276   4.260  17.868  0.00  0.00    +0.000 N 
ATOM      4  H   UNL     1       2.897   4.558  16.979  0.00  0.00    +0.000 HD
ENDROOT
BRANCH   2   5
ATOM      5  C   UNL     1       5.540   4.337  16.936  0.00  0.00    +0.000 A 
ATOM      6  C   UNL     1       5.172   3.879  15.658  0.00  0.00    +0.000 A 
ATOM      7  C   UNL     1       5.960   4.164  14.548  0.00  0.00    +0.000 A 
ATOM      8 BR   UNL     1       5.455   3.524  12.844  0.00  0.00    +0.000 Br
ATOM      9  C   UNL     1       7.122   4.919  14.683  0.00  0.00    +0.000 A 
ATOM     10  C   UNL     1       7.495   5.386  15.945  0.00  0.00    +0.000 A 
ATOM     11  C   UNL     1       6.714   5.101  17.073  0.00  0.00    +0.000 A 
ATOM     12 CL   UNL     1       7.262   5.764  18.571  0.00  0.00    +0.000 Cl
ENDBRANCH   2   5
BRANCH   3  13
ATOM     13  N   UNL     1       2.365   3.904  18.804  0.00  0.00    +0.000 N 
ATOM     14  C   UNL     1       1.930   4.718  19.798  0.00  0.00    +0.000 A 
ATOM     15  N   UNL     1       0.929   4.133  20.419  0.00  0.00    +0.000 NA
ATOM     16  N   UNL     1       0.703   2.919  19.798  0.00  0.00    +0.000 NA
ATOM     17  C   UNL     1       1.573   2.803  18.817  0.00  0.00    +0.000 A 
ENDBRANCH   3  13
TORSDOF 2
ENDMDL
MODEL 7
REMARK VINA RESULT:      -6.2      2.080      2.361
REMARK  Name = 
REMARK  2 active torsions:
REMARK  status: ('A' for Active; 'I' for Inactive)
REMARK    1  A    between atoms: C_2  and  C_9
REMARK    2  A    between atoms: N_3  and  N_4
REMARK                            x       y       z     vdW  Elec       q    Type
REMARK                         _______ _______ _______ _____ _____    ______ ____
ROOT
ATOM      1  O   UNL     1       6.046   4.725  18.435  0.00  0.00    +0.000 OA
ATOM      2  C   UNL     1       4.947   4.944  17.937  0.00  0.00    +0.000 C 
ATOM      3  N   UNL     1       4.712   4.967  16.584  0.00  0.00    +0.000 N 
ATOM      4  H   UNL     1       3.826   5.259  16.191  0.00  0.00    +0.000 HD
ENDROOT
BRANCH   2   5
ATOM      5  C   UNL     1       3.783   5.166  18.842  0.00  0.00    +0.000 A 
ATOM      6  C   UNL     1       3.464   4.100  19.703  0.00  0.00    +0.000 A 
ATOM      7  C   UNL     1       2.406   4.206  20.600  0.00  0.00    +0.000 A 
ATOM      8 BR   UNL     1       1.985   2.756  21.735  0.00  0.00    +0.000 Br
ATOM      9  C   UNL     1       1.653   5.375  20.668  0.00  0.00    +0.000 A 
ATOM     10  C   UNL     1       1.964   6.443  19.824  0.00  0.00    +0.000 A 
ATOM     11  C   UNL     1       3.023   6.348  18.912  0.00  0.00    +0.000 A 
ATOM     12 CL   UNL     1       3.330   7.749  17.947  0.00  0.00    +0.000 Cl
ENDBRANCH   2   5
BRANCH   3  13
ATOM     13  N   UNL     1       5.731   4.841  15.703  0.00  0.00    +0.000 N 
ATOM     14  C   UNL     1       5.649   4.168  14.527  0.00  0.00    +0.000 A 
ATOM     15  N   UNL     1       6.747   4.385  13.836  0.00  0.00    +0.000 NA
ATOM     16  N   UNL     1       7.548   5.234  14.577  0.00  0.00    +0.000 NA
ATOM     17  C   UNL     1       6.912   5.508  15.697  0.00  0.00    +0.000 A 
ENDBRANCH   3  13
TORSDOF 2
ENDMDL
MODEL 8
REMARK VINA RESULT:      -6.2      4.043      6.155
REMARK  Name = 
REMARK  2 active torsions:
REMARK  status: ('A' for Active; 'I' for Inactive)
REMARK    1  A    between atoms: C_2  and  C_9
REMARK    2  A    between atoms: N_3  and  N_4
REMARK                            x       y       z     vdW  Elec       q    Type
REMARK                         _______ _______ _______ _____ _____    ______ ____
ROOT
ATOM      1  O   UNL     1       2.498   3.129  17.767  0.00  0.00    +0.000 OA
ATOM      2  C   UNL     1       3.255   3.983  18.219  0.00  0.00    +0.000 C 
ATOM      3  N   UNL     1       3.487   4.165  19.559  0.00  0.00    +0.000 N 
ATOM      4  H   UNL     1       4.025   4.944  19.917  0.00  0.00    +0.000 HD
ENDROOT
BRANCH   2   5
ATOM      5  C   UNL     1       3.996   4.857  17.265  0.00  0.00    +0.000 A 
ATOM      6  C   UNL     1       4.721   4.191  16.260  0.00  0.00    +0.000 A 
ATOM      7  C   UNL     1       5.437   4.909  15.308  0.00  0.00    +0.000 A 
ATOM      8 BR   UNL     1       6.416   3.994  13.977  0.00  0.00    +0.000 Br
ATOM      9  C   UNL     1       5.438   6.301  15.330  0.00  0.00    +0.000 A 
ATOM     10  C   UNL     1       4.718   6.975  16.318  0.00  0.00    +0.000 A 
ATOM     11  C   UNL     1       3.996   6.264  17.286  0.00  0.00    +0.000 A 
ATOM     12 CL   UNL     1       3.118   7.210  18.434  0.00  0.00    +0.000 Cl
ENDBRANCH   2   5
BRANCH   3  13
ATOM     13  N   UNL     1       2.799   3.455  20.484  0.00  0.00    +0.000 N 
ATOM     14  C   UNL     1       3.307   2.408  21.181  0.00  0.00    +0.000 A 
ATOM     15  N   UNL     1       2.446   2.059  22.112  0.00  0.00    +0.000 NA
ATOM     16  N   UNL     1       1.363   2.914  22.023  0.00  0.00    +0.000 NA
ATOM     17  C   UNL     1       1.599   3.758  21.040  0.00  0.00    +0.000 A 
ENDBRANCH   3  13
TORSDOF 2
ENDMDL
MODEL 9
REMARK VINA RESULT:      -6.2      2.252      2.534
REMARK  Name = 
REMARK  2 active torsions:
REMARK  status: ('A' for Active; 'I' for Inactive)
REMARK    1  A    between atoms: C_2  and  C_9
REMARK    2  A    between atoms: N_3  and  N_4
REMARK                            x       y       z     vdW  Elec       q    Type
REMARK                         _______ _______ _______ _____ _____    ______ ____
ROOT
ATOM      1  O   UNL     1       3.592   3.779  16.728  0.00  0.00    +0.000 OA
ATOM      2  C   UNL     1       3.948   4.683  17.477  0.00  0.00    +0.000 C 
ATOM      3  N   UNL     1       5.077   5.440  17.278  0.00  0.00    +0.000 N 
ATOM      4  H   UNL     1       5.414   6.103  17.964  0.00  0.00    +0.000 HD
ENDROOT
BRANCH   2   5
ATOM      5  C   UNL     1       3.097   5.012  18.656  0.00  0.00    +0.000 A 
ATOM      6  C   UNL     1       2.798   3.938  19.514  0.00  0.00    +0.000 A 
ATOM      7  C   UNL     1       2.024   4.136  20.653  0.00  0.00    +0.000 A 
ATOM      8 BR   UNL     1       1.621   2.677  21.783  0.00  0.00    +0.000 Br
ATOM      9  C   UNL     1       1.541   5.403  20.966  0.00  0.00    +0.000 A 
ATOM     10  C   UNL     1       1.837   6.479  20.126  0.00  0.00    +0.000 A 
ATOM     11  C   UNL     1       2.611   6.294  18.973  0.00  0.00    +0.000 A 
ATOM     12 CL   UNL     1       2.936   7.707  18.034  0.00  0.00    +0.000 Cl
ENDBRANCH   2   5
BRANCH   3  13
ATOM     13  N   UNL     1       5.933   5.154  16.269  0.00  0.00    +0.000 N 
ATOM     14  C   UNL     1       5.747   5.526  14.977  0.00  0.00    +0.000 A 
ATOM     15  N   UNL     1       6.835   5.247  14.294  0.00  0.00    +0.000 NA
ATOM     16  N   UNL     1       7.752   4.697  15.171  0.00  0.00    +0.000 NA
ATOM     17  C   UNL     1       7.192   4.659  16.362  0.00  0.00    +0.000 A 
ENDBRANCH   3  13
TORSDOF 2
ENDMDL
