MODEL 1
REMARK VINA RESULT:      -9.6      0.000      0.000
REMARK  Name = 
REMARK  8 active torsions:
REMARK  status: ('A' for Active; 'I' for Inactive)
REMARK    1  A    between atoms: C_1  and  C_2
REMARK    2  A    between atoms: C_5  and  C_6
REMARK    3  A    between atoms: C_7  and  S_8
REMARK    4  A    between atoms: S_8  and  N_11
REMARK    5  A    between atoms: C_15  and  C_17
REMARK    6  A    between atoms: C_17  and  C_18
REMARK    7  A    between atoms: C_18  and  C_19
REMARK    8  A    between atoms: C_21  and  O_22
REMARK                            x       y       z     vdW  Elec       q    Type
REMARK                         _______ _______ _______ _____ _____    ______ ____
ROOT
ATOM      1  N   UNL     1       2.759   4.288  18.684  0.00  0.00    +0.000 NA
ATOM      2  C   UNL     1       2.002   4.345  19.956  0.00  0.00    +0.000 C 
ATOM      3  C   UNL     1       2.177   5.680  20.700  0.00  0.00    +0.000 C 
ATOM      4  N   UNL     1       2.066   6.847  19.817  0.00  0.00    +0.000 N 
ATOM      5  C   UNL     1       1.514   8.027  20.312  0.00  0.00    +0.000 C 
ATOM      6  O   UNL     1       1.021   8.106  21.436  0.00  0.00    +0.000 OA
ATOM      7  C   UNL     1       2.901   6.773  18.613  0.00  0.00    +0.000 C 
ATOM      8  C   UNL     1       2.655   5.486  17.829  0.00  0.00    +0.000 C 
ENDROOT
BRANCH   1   9
ATOM      9  S   UNL     1       4.077   3.274  18.513  0.00  0.00    +0.000 S 
ATOM     10  O   UNL     1       3.597   2.083  17.839  0.00  0.00    +0.000 OA
ATOM     11  O   UNL     1       4.775   3.186  19.777  0.00  0.00    +0.000 OA
BRANCH   9  18
ATOM     12  C   UNL     1       6.015   3.856  13.696  0.00  0.00    +0.000 C 
ATOM     13  C   UNL     1       6.017   4.333  15.119  0.00  0.00    +0.000 A 
ATOM     14  C   UNL     1       6.986   5.231  15.571  0.00  0.00    +0.000 A 
ATOM     15  C   UNL     1       7.036   5.601  16.917  0.00  0.00    +0.000 A 
ATOM     16  C   UNL     1       6.138   5.066  17.855  0.00  0.00    +0.000 A 
ATOM     17  C   UNL     1       6.311   5.458  19.295  0.00  0.00    +0.000 C 
ATOM     18  C   UNL     1       5.168   4.151  17.397  0.00  0.00    +0.000 A 
ATOM     19  C   UNL     1       5.097   3.809  16.035  0.00  0.00    +0.000 A 
ENDBRANCH   9  18
ENDBRANCH   1   9
BRANCH   5  20
ATOM     20  C   UNL     1       1.520   9.209  19.362  0.00  0.00    +0.000 C 
BRANCH  20  21
ATOM     21  C   UNL     1       0.919  10.478  19.953  0.00  0.00    +0.000 C 
BRANCH  21  22
ATOM     22  C   UNL     1      -0.434  10.696  19.324  0.00  0.00    +0.000 A 
ATOM     23  N   UNL     1      -1.229  11.633  19.867  0.00  0.00    +0.000 NA
ATOM     24  C   UNL     1      -2.347  11.892  19.179  0.00  0.00    +0.000 A 
ATOM     25  C   UNL     1      -2.722  11.302  17.983  0.00  0.00    +0.000 A 
ATOM     26  C   UNL     1      -3.891  11.617  17.253  0.00  0.00    +0.000 A 
ATOM     27  C   UNL     1      -4.160  10.969  16.050  0.00  0.00    +0.000 A 
ATOM     28  C   UNL     1      -3.277  10.004  15.587  0.00  0.00    +0.000 A 
ATOM     29  C   UNL     1      -2.125   9.699  16.323  0.00  0.00    +0.000 A 
ATOM     30  C   UNL     1      -1.824  10.340  17.518  0.00  0.00    +0.000 A 
ATOM     31  N   UNL     1      -0.691  10.040  18.174  0.00  0.00    +0.000 NA
BRANCH  24  32
ATOM     32  O   UNL     1      -3.118  12.852  19.764  0.00  0.00    +0.000 OA
ATOM     33  H   UNL     1      -4.008  12.521  19.544  0.00  0.00    +0.000 HD
ENDBRANCH  24  32
ENDBRANCH  21  22
ENDBRANCH  20  21
ENDBRANCH   5  20
TORSDOF 6
ENDMDL
MODEL 2
REMARK VINA RESULT:      -9.2      1.076      1.811
REMARK  Name = 
REMARK  8 active torsions:
REMARK  status: ('A' for Active; 'I' for Inactive)
REMARK    1  A    between atoms: C_1  and  C_2
REMARK    2  A    between atoms: C_5  and  C_6
REMARK    3  A    between atoms: C_7  and  S_8
REMARK    4  A    between atoms: S_8  and  N_11
REMARK    5  A    between atoms: C_15  and  C_17
REMARK    6  A    between atoms: C_17  and  C_18
REMARK    7  A    between atoms: C_18  and  C_19
REMARK    8  A    between atoms: C_21  and  O_22
REMARK                            x       y       z     vdW  Elec       q    Type
REMARK                         _______ _______ _______ _____ _____    ______ ____
ROOT
ATOM      1  N   UNL     1       2.695   4.091  18.829  0.00  0.00    +0.000 NA
ATOM      2  C   UNL     1       2.251   4.346  20.219  0.00  0.00    +0.000 C 
ATOM      3  C   UNL     1       2.531   5.785  20.685  0.00  0.00    +0.000 C 
ATOM      4  N   UNL     1       2.164   6.793  19.683  0.00  0.00    +0.000 N 
ATOM      5  C   UNL     1       1.686   8.032  20.105  0.00  0.00    +0.000 C 
ATOM      6  O   UNL     1       1.462   8.288  21.286  0.00  0.00    +0.000 OA
ATOM      7  C   UNL     1       2.701   6.533  18.342  0.00  0.00    +0.000 C 
ATOM      8  C   UNL     1       2.341   5.134  17.847  0.00  0.00    +0.000 C 
ENDROOT
BRANCH   1   9
ATOM      9  S   UNL     1       3.985   3.075  18.512  0.00  0.00    +0.000 S 
ATOM     10  O   UNL     1       3.453   1.957  17.757  0.00  0.00    +0.000 OA
ATOM     11  O   UNL     1       4.733   2.864  19.732  0.00  0.00    +0.000 OA
BRANCH   9  18
ATOM     12  C   UNL     1       5.986   3.837  13.747  0.00  0.00    +0.000 C 
ATOM     13  C   UNL     1       5.930   4.294  15.175  0.00  0.00    +0.000 A 
ATOM     14  C   UNL     1       6.834   5.240  15.660  0.00  0.00    +0.000 A 
ATOM     15  C   UNL     1       6.835   5.593  17.011  0.00  0.00    +0.000 A 
ATOM     16  C   UNL     1       5.950   4.993  17.922  0.00  0.00    +0.000 A 
ATOM     17  C   UNL     1       6.070   5.375  19.370  0.00  0.00    +0.000 C 
ATOM     18  C   UNL     1       5.046   4.030  17.431  0.00  0.00    +0.000 A 
ATOM     19  C   UNL     1       5.023   3.704  16.064  0.00  0.00    +0.000 A 
ENDBRANCH   9  18
ENDBRANCH   1   9
BRANCH   5  20
ATOM     20  C   UNL     1       1.417   9.045  19.009  0.00  0.00    +0.000 C 
BRANCH  20  21
ATOM     21  C   UNL     1       1.002  10.417  19.525  0.00  0.00    +0.000 C 
BRANCH  21  22
ATOM     22  C   UNL     1      -0.362  10.738  18.965  0.00  0.00    +0.000 A 
ATOM     23  N   UNL     1      -0.749  10.081  17.858  0.00  0.00    +0.000 NA
ATOM     24  C   UNL     1      -2.021  10.288  17.496  0.00  0.00    +0.000 A 
ATOM     25  C   UNL     1      -2.939  11.082  18.164  0.00  0.00    +0.000 A 
ATOM     26  C   UNL     1      -4.289  11.258  17.785  0.00  0.00    +0.000 A 
ATOM     27  C   UNL     1      -5.128  12.071  18.543  0.00  0.00    +0.000 A 
ATOM     28  C   UNL     1      -4.620  12.715  19.661  0.00  0.00    +0.000 A 
ATOM     29  C   UNL     1      -3.279  12.536  20.023  0.00  0.00    +0.000 A 
ATOM     30  C   UNL     1      -2.423  11.718  19.294  0.00  0.00    +0.000 A 
ATOM     31  N   UNL     1      -1.153  11.548  19.697  0.00  0.00    +0.000 NA
BRANCH  24  32
ATOM     32  O   UNL     1      -2.370   9.598  16.374  0.00  0.00    +0.000 OA
ATOM     33  H   UNL     1      -1.490   9.408  16.002  0.00  0.00    +0.000 HD
ENDBRANCH  24  32
ENDBRANCH  21  22
ENDBRANCH  20  21
ENDBRANCH   5  20
TORSDOF 6
ENDMDL
MODEL 3
REMARK VINA RESULT:      -8.9      2.107      3.025
REMARK  Name = 
REMARK  8 active torsions:
REMARK  status: ('A' for Active; 'I' for Inactive)
REMARK    1  A    between atoms: C_1  and  C_2
REMARK    2  A    between atoms: C_5  and  C_6
REMARK    3  A    between atoms: C_7  and  S_8
REMARK    4  A    between atoms: S_8  and  N_11
REMARK    5  A    between atoms: C_15  and  C_17
REMARK    6  A    between atoms: C_17  and  C_18
REMARK    7  A    between atoms: C_18  and  C_19
REMARK    8  A    between atoms: C_21  and  O_22
REMARK                            x       y       z     vdW  Elec       q    Type
REMARK                         _______ _______ _______ _____ _____    ______ ____
ROOT
ATOM      1  N   UNL     1       2.798   4.186  18.730  0.00  0.00    +0.000 NA
ATOM      2  C   UNL     1       2.145   4.292  20.055  0.00  0.00    +0.000 C 
ATOM      3  C   UNL     1       2.358   5.661  20.723  0.00  0.00    +0.000 C 
ATOM      4  N   UNL     1       2.157   6.785  19.801  0.00  0.00    +0.000 N 
ATOM      5  C   UNL     1       1.627   7.979  20.286  0.00  0.00    +0.000 C 
ATOM      6  O   UNL     1       1.225   8.103  21.441  0.00  0.00    +0.000 OA
ATOM      7  C   UNL     1       2.894   6.668  18.537  0.00  0.00    +0.000 C 
ATOM      8  C   UNL     1       2.607   5.343  17.833  0.00  0.00    +0.000 C 
ENDROOT
BRANCH   1   9
ATOM      9  S   UNL     1       4.116   3.183  18.497  0.00  0.00    +0.000 S 
ATOM     10  O   UNL     1       3.625   2.018  17.786  0.00  0.00    +0.000 OA
ATOM     11  O   UNL     1       4.835   3.048  19.745  0.00  0.00    +0.000 OA
BRANCH   9  18
ATOM     12  C   UNL     1       6.039   3.894  13.693  0.00  0.00    +0.000 C 
ATOM     13  C   UNL     1       6.030   4.346  15.123  0.00  0.00    +0.000 A 
ATOM     14  C   UNL     1       6.978   5.258  15.592  0.00  0.00    +0.000 A 
ATOM     15  C   UNL     1       7.020   5.606  16.943  0.00  0.00    +0.000 A 
ATOM     16  C   UNL     1       6.134   5.033  17.871  0.00  0.00    +0.000 A 
ATOM     17  C   UNL     1       6.298   5.404  19.318  0.00  0.00    +0.000 C 
ATOM     18  C   UNL     1       5.186   4.104  17.397  0.00  0.00    +0.000 A 
ATOM     19  C   UNL     1       5.123   3.785  16.030  0.00  0.00    +0.000 A 
ENDBRANCH   9  18
ENDBRANCH   1   9
BRANCH   5  20
ATOM     20  C   UNL     1       1.537   9.117  19.288  0.00  0.00    +0.000 C 
BRANCH  20  21
ATOM     21  C   UNL     1       0.157   9.757  19.203  0.00  0.00    +0.000 C 
BRANCH  21  22
ATOM     22  C   UNL     1       0.337  11.234  18.961  0.00  0.00    +0.000 A 
ATOM     23  N   UNL     1      -0.704  12.040  19.229  0.00  0.00    +0.000 NA
ATOM     24  C   UNL     1      -0.441  13.349  19.146  0.00  0.00    +0.000 A 
ATOM     25  C   UNL     1       0.786  13.915  18.837  0.00  0.00    +0.000 A 
ATOM     26  C   UNL     1       1.051  15.302  18.791  0.00  0.00    +0.000 A 
ATOM     27  C   UNL     1       2.331  15.759  18.483  0.00  0.00    +0.000 A 
ATOM     28  C   UNL     1       3.332  14.840  18.208  0.00  0.00    +0.000 A 
ATOM     29  C   UNL     1       3.053  13.467  18.253  0.00  0.00    +0.000 A 
ATOM     30  C   UNL     1       1.790  12.983  18.573  0.00  0.00    +0.000 A 
ATOM     31  N   UNL     1       1.576  11.659  18.637  0.00  0.00    +0.000 NA
BRANCH  24  32
ATOM     32  O   UNL     1      -1.524  14.126  19.431  0.00  0.00    +0.000 OA
ATOM     33  H   UNL     1      -1.899  13.636  20.185  0.00  0.00    +0.000 HD
ENDBRANCH  24  32
ENDBRANCH  21  22
ENDBRANCH  20  21
ENDBRANCH   5  20
TORSDOF 6
ENDMDL
MODEL 4
REMARK VINA RESULT:      -8.9      1.445      2.373
REMARK  Name = 
REMARK  8 active torsions:
REMARK  status: ('A' for Active; 'I' for Inactive)
REMARK    1  A    between atoms: C_1  and  C_2
REMARK    2  A    between atoms: C_5  and  C_6
REMARK    3  A    between atoms: C_7  and  S_8
REMARK    4  A    between atoms: S_8  and  N_11
REMARK    5  A    between atoms: C_15  and  C_17
REMARK    6  A    between atoms: C_17  and  C_18
REMARK    7  A    between atoms: C_18  and  C_19
REMARK    8  A    between atoms: C_21  and  O_22
REMARK                            x       y       z     vdW  Elec       q    Type
REMARK                         _______ _______ _______ _____ _____    ______ ____
ROOT
ATOM      1  N   UNL     1       2.828   4.083  18.755  0.00  0.00    +0.000 NA
ATOM      2  C   UNL     1       2.412   4.399  20.141  0.00  0.00    +0.000 C 
ATOM      3  C   UNL     1       2.656   5.869  20.521  0.00  0.00    +0.000 C 
ATOM      4  N   UNL     1       2.230   6.809  19.478  0.00  0.00    +0.000 N 
ATOM      5  C   UNL     1       1.721   8.053  19.846  0.00  0.00    +0.000 C 
ATOM      6  O   UNL     1       1.521   8.365  21.018  0.00  0.00    +0.000 OA
ATOM      7  C   UNL     1       2.739   6.494  18.138  0.00  0.00    +0.000 C 
ATOM      8  C   UNL     1       2.414   5.060  17.729  0.00  0.00    +0.000 C 
ENDROOT
BRANCH   1   9
ATOM      9  S   UNL     1       4.143   3.093  18.455  0.00  0.00    +0.000 S 
ATOM     10  O   UNL     1       3.639   1.954  17.712  0.00  0.00    +0.000 OA
ATOM     11  O   UNL     1       4.889   2.913  19.681  0.00  0.00    +0.000 OA
BRANCH   9  18
ATOM     12  C   UNL     1       6.100   3.882  13.677  0.00  0.00    +0.000 C 
ATOM     13  C   UNL     1       6.051   4.335  15.106  0.00  0.00    +0.000 A 
ATOM     14  C   UNL     1       6.951   5.288  15.586  0.00  0.00    +0.000 A 
ATOM     15  C   UNL     1       6.959   5.639  16.938  0.00  0.00    +0.000 A 
ATOM     16  C   UNL     1       6.086   5.029  17.854  0.00  0.00    +0.000 A 
ATOM     17  C   UNL     1       6.213   5.409  19.303  0.00  0.00    +0.000 C 
ATOM     18  C   UNL     1       5.187   4.059  17.369  0.00  0.00    +0.000 A 
ATOM     19  C   UNL     1       5.157   3.736  16.002  0.00  0.00    +0.000 A 
ENDBRANCH   9  18
ENDBRANCH   1   9
BRANCH   5  20
ATOM     20  C   UNL     1       1.390   8.996  18.706  0.00  0.00    +0.000 C 
BRANCH  20  21
ATOM     21  C   UNL     1       1.690  10.459  19.008  0.00  0.00    +0.000 C 
BRANCH  21  22
ATOM     22  C   UNL     1       0.384  11.158  19.293  0.00  0.00    +0.000 A 
ATOM     23  N   UNL     1      -0.434  11.395  18.253  0.00  0.00    +0.000 NA
ATOM     24  C   UNL     1      -1.640  11.873  18.581  0.00  0.00    +0.000 A 
ATOM     25  C   UNL     1      -2.098  12.113  19.867  0.00  0.00    +0.000 A 
ATOM     26  C   UNL     1      -3.390  12.584  20.194  0.00  0.00    +0.000 A 
ATOM     27  C   UNL     1      -3.749  12.775  21.526  0.00  0.00    +0.000 A 
ATOM     28  C   UNL     1      -2.820  12.512  22.523  0.00  0.00    +0.000 A 
ATOM     29  C   UNL     1      -1.542  12.050  22.184  0.00  0.00    +0.000 A 
ATOM     30  C   UNL     1      -1.162  11.836  20.864  0.00  0.00    +0.000 A 
ATOM     31  N   UNL     1       0.063  11.360  20.587  0.00  0.00    +0.000 NA
BRANCH  24  32
ATOM     32  O   UNL     1      -2.436  12.092  17.497  0.00  0.00    +0.000 OA
ATOM     33  H   UNL     1      -2.728  11.183  17.305  0.00  0.00    +0.000 HD
ENDBRANCH  24  32
ENDBRANCH  21  22
ENDBRANCH  20  21
ENDBRANCH   5  20
TORSDOF 6
ENDMDL
MODEL 5
REMARK VINA RESULT:      -8.7      2.288      3.493
REMARK  Name = 
REMARK  8 active torsions:
REMARK  status: ('A' for Active; 'I' for Inactive)
REMARK    1  A    between atoms: C_1  and  C_2
REMARK    2  A    between atoms: C_5  and  C_6
REMARK    3  A    between atoms: C_7  and  S_8
REMARK    4  A    between atoms: S_8  and  N_11
REMARK    5  A    between atoms: C_15  and  C_17
REMARK    6  A    between atoms: C_17  and  C_18
REMARK    7  A    between atoms: C_18  and  C_19
REMARK    8  A    between atoms: C_21  and  O_22
REMARK                            x       y       z     vdW  Elec       q    Type
REMARK                         _______ _______ _______ _____ _____    ______ ____
ROOT
ATOM      1  N   UNL     1       2.779   4.086  18.822  0.00  0.00    +0.000 NA
ATOM      2  C   UNL     1       2.305   4.347  20.201  0.00  0.00    +0.000 C 
ATOM      3  C   UNL     1       2.563   5.792  20.661  0.00  0.00    +0.000 C 
ATOM      4  N   UNL     1       2.208   6.789  19.645  0.00  0.00    +0.000 N 
ATOM      5  C   UNL     1       1.711   8.027  20.048  0.00  0.00    +0.000 C 
ATOM      6  O   UNL     1       1.462   8.289  21.223  0.00  0.00    +0.000 OA
ATOM      7  C   UNL     1       2.774   6.524  18.317  0.00  0.00    +0.000 C 
ATOM      8  C   UNL     1       2.436   5.119  17.825  0.00  0.00    +0.000 C 
ENDROOT
BRANCH   1   9
ATOM      9  S   UNL     1       4.083   3.078  18.537  0.00  0.00    +0.000 S 
ATOM     10  O   UNL     1       3.567   1.927  17.822  0.00  0.00    +0.000 OA
ATOM     11  O   UNL     1       4.836   2.920  19.763  0.00  0.00    +0.000 OA
BRANCH   9  18
ATOM     12  C   UNL     1       5.979   3.774  13.720  0.00  0.00    +0.000 C 
ATOM     13  C   UNL     1       5.962   4.244  15.144  0.00  0.00    +0.000 A 
ATOM     14  C   UNL     1       6.889   5.184  15.599  0.00  0.00    +0.000 A 
ATOM     15  C   UNL     1       6.925   5.550  16.946  0.00  0.00    +0.000 A 
ATOM     16  C   UNL     1       6.055   4.968  17.883  0.00  0.00    +0.000 A 
ATOM     17  C   UNL     1       6.214   5.362  19.325  0.00  0.00    +0.000 C 
ATOM     18  C   UNL     1       5.129   4.011  17.423  0.00  0.00    +0.000 A 
ATOM     19  C   UNL     1       5.070   3.673  16.061  0.00  0.00    +0.000 A 
ENDBRANCH   9  18
ENDBRANCH   1   9
BRANCH   5  20
ATOM     20  C   UNL     1       1.457   9.030  18.939  0.00  0.00    +0.000 C 
BRANCH  20  21
ATOM     21  C   UNL     1       0.257   9.935  19.189  0.00  0.00    +0.000 C 
BRANCH  21  22
ATOM     22  C   UNL     1       0.766  11.328  19.463  0.00  0.00    +0.000 A 
ATOM     23  N   UNL     1       0.449  11.885  20.644  0.00  0.00    +0.000 NA
ATOM     24  C   UNL     1       1.053  13.052  20.898  0.00  0.00    +0.000 A 
ATOM     25  C   UNL     1       1.964  13.693  20.073  0.00  0.00    +0.000 A 
ATOM     26  C   UNL     1       2.619  14.908  20.377  0.00  0.00    +0.000 A 
ATOM     27  C   UNL     1       3.530  15.455  19.477  0.00  0.00    +0.000 A 
ATOM     28  C   UNL     1       3.774  14.803  18.277  0.00  0.00    +0.000 A 
ATOM     29  C   UNL     1       3.113  13.602  17.987  0.00  0.00    +0.000 A 
ATOM     30  C   UNL     1       2.211  13.025  18.873  0.00  0.00    +0.000 A 
ATOM     31  N   UNL     1       1.626  11.855  18.569  0.00  0.00    +0.000 NA
BRANCH  24  32
ATOM     32  O   UNL     1       0.706  13.576  22.107  0.00  0.00    +0.000 OA
ATOM     33  H   UNL     1       0.104  14.288  21.824  0.00  0.00    +0.000 HD
ENDBRANCH  24  32
ENDBRANCH  21  22
ENDBRANCH  20  21
ENDBRANCH   5  20
TORSDOF 6
ENDMDL
MODEL 6
REMARK VINA RESULT:      -8.6      2.506      3.732
REMARK  Name = 
REMARK  8 active torsions:
REMARK  status: ('A' for Active; 'I' for Inactive)
REMARK    1  A    between atoms: C_1  and  C_2
REMARK    2  A    between atoms: C_5  and  C_6
REMARK    3  A    between atoms: C_7  and  S_8
REMARK    4  A    between atoms: S_8  and  N_11
REMARK    5  A    between atoms: C_15  and  C_17
REMARK    6  A    between atoms: C_17  and  C_18
REMARK    7  A    between atoms: C_18  and  C_19
REMARK    8  A    between atoms: C_21  and  O_22
REMARK                            x       y       z     vdW  Elec       q    Type
REMARK                         _______ _______ _______ _____ _____    ______ ____
ROOT
ATOM      1  N   UNL     1       2.794   4.077  18.758  0.00  0.00    +0.000 NA
ATOM      2  C   UNL     1       2.199   4.217  20.108  0.00  0.00    +0.000 C 
ATOM      3  C   UNL     1       2.428   5.607  20.725  0.00  0.00    +0.000 C 
ATOM      4  N   UNL     1       2.176   6.702  19.780  0.00  0.00    +0.000 N 
ATOM      5  C   UNL     1       1.656   7.905  20.253  0.00  0.00    +0.000 C 
ATOM      6  O   UNL     1       1.303   8.060  21.420  0.00  0.00    +0.000 OA
ATOM      7  C   UNL     1       2.858   6.552  18.489  0.00  0.00    +0.000 C 
ATOM      8  C   UNL     1       2.552   5.205  17.838  0.00  0.00    +0.000 C 
ENDROOT
BRANCH   1   9
ATOM      9  S   UNL     1       4.110   3.078  18.497  0.00  0.00    +0.000 S 
ATOM     10  O   UNL     1       3.613   1.924  17.773  0.00  0.00    +0.000 OA
ATOM     11  O   UNL     1       4.841   2.924  19.736  0.00  0.00    +0.000 OA
BRANCH   9  18
ATOM     12  C   UNL     1       6.051   3.814  13.704  0.00  0.00    +0.000 C 
ATOM     13  C   UNL     1       6.024   4.270  15.133  0.00  0.00    +0.000 A 
ATOM     14  C   UNL     1       6.950   5.201  15.605  0.00  0.00    +0.000 A 
ATOM     15  C   UNL     1       6.976   5.553  16.957  0.00  0.00    +0.000 A 
ATOM     16  C   UNL     1       6.095   4.966  17.880  0.00  0.00    +0.000 A 
ATOM     17  C   UNL     1       6.242   5.344  19.327  0.00  0.00    +0.000 C 
ATOM     18  C   UNL     1       5.169   4.018  17.402  0.00  0.00    +0.000 A 
ATOM     19  C   UNL     1       5.121   3.694  16.036  0.00  0.00    +0.000 A 
ENDBRANCH   9  18
ENDBRANCH   1   9
BRANCH   5  20
ATOM     20  C   UNL     1       1.512   9.012  19.226  0.00  0.00    +0.000 C 
BRANCH  20  21
ATOM     21  C   UNL     1       0.423  10.025  19.559  0.00  0.00    +0.000 C 
BRANCH  21  22
ATOM     22  C   UNL     1       1.060  11.390  19.639  0.00  0.00    +0.000 A 
ATOM     23  N   UNL     1       1.810  11.788  18.599  0.00  0.00    +0.000 NA
ATOM     24  C   UNL     1       2.220  13.061  18.652  0.00  0.00    +0.000 A 
ATOM     25  C   UNL     1       1.921  13.970  19.655  0.00  0.00    +0.000 A 
ATOM     26  C   UNL     1       2.334  15.322  19.674  0.00  0.00    +0.000 A 
ATOM     27  C   UNL     1       1.961  16.152  20.729  0.00  0.00    +0.000 A 
ATOM     28  C   UNL     1       1.196  15.633  21.763  0.00  0.00    +0.000 A 
ATOM     29  C   UNL     1       0.798  14.290  21.732  0.00  0.00    +0.000 A 
ATOM     30  C   UNL     1       1.142  13.443  20.686  0.00  0.00    +0.000 A 
ATOM     31  N   UNL     1       0.710  12.172  20.681  0.00  0.00    +0.000 NA
BRANCH  24  32
ATOM     32  O   UNL     1       2.971  13.422  17.574  0.00  0.00    +0.000 OA
ATOM     33  H   UNL     1       3.493  12.609  17.444  0.00  0.00    +0.000 HD
ENDBRANCH  24  32
ENDBRANCH  21  22
ENDBRANCH  20  21
ENDBRANCH   5  20
TORSDOF 6
ENDMDL
MODEL 7
REMARK VINA RESULT:      -8.5      1.950      2.841
REMARK  Name = 
REMARK  8 active torsions:
REMARK  status: ('A' for Active; 'I' for Inactive)
REMARK    1  A    between atoms: C_1  and  C_2
REMARK    2  A    between atoms: C_5  and  C_6
REMARK    3  A    between atoms: C_7  and  S_8
REMARK    4  A    between atoms: S_8  and  N_11
REMARK    5  A    between atoms: C_15  and  C_17
REMARK    6  A    between atoms: C_17  and  C_18
REMARK    7  A    between atoms: C_18  and  C_19
REMARK    8  A    between atoms: C_21  and  O_22
REMARK                            x       y       z     vdW  Elec       q    Type
REMARK                         _______ _______ _______ _____ _____    ______ ____
ROOT
ATOM      1  N   UNL     1       2.806   4.359  18.558  0.00  0.00    +0.000 NA
ATOM      2  C   UNL     1       1.912   4.311  19.738  0.00  0.00    +0.000 C 
ATOM      3  C   UNL     1       2.052   5.543  20.649  0.00  0.00    +0.000 C 
ATOM      4  N   UNL     1       2.087   6.806  19.903  0.00  0.00    +0.000 N 
ATOM      5  C   UNL     1       1.526   7.949  20.470  0.00  0.00    +0.000 C 
ATOM      6  O   UNL     1       0.912   7.927  21.534  0.00  0.00    +0.000 OA
ATOM      7  C   UNL     1       3.050   6.826  18.796  0.00  0.00    +0.000 C 
ATOM      8  C   UNL     1       2.846   5.650  17.844  0.00  0.00    +0.000 C 
ENDROOT
BRANCH   1   9
ATOM      9  S   UNL     1       4.096   3.305  18.413  0.00  0.00    +0.000 S 
ATOM     10  O   UNL     1       3.589   2.123  17.744  0.00  0.00    +0.000 OA
ATOM     11  O   UNL     1       4.775   3.209  19.687  0.00  0.00    +0.000 OA
BRANCH   9  18
ATOM     12  C   UNL     1       6.053   3.837  13.599  0.00  0.00    +0.000 C 
ATOM     13  C   UNL     1       6.080   4.301  15.026  0.00  0.00    +0.000 A 
ATOM     14  C   UNL     1       7.091   5.147  15.484  0.00  0.00    +0.000 A 
ATOM     15  C   UNL     1       7.161   5.501  16.833  0.00  0.00    +0.000 A 
ATOM     16  C   UNL     1       6.239   5.001  17.768  0.00  0.00    +0.000 A 
ATOM     17  C   UNL     1       6.434   5.372  19.211  0.00  0.00    +0.000 C 
ATOM     18  C   UNL     1       5.226   4.139  17.303  0.00  0.00    +0.000 A 
ATOM     19  C   UNL     1       5.137   3.814  15.939  0.00  0.00    +0.000 A 
ENDBRANCH   9  18
ENDBRANCH   1   9
BRANCH   5  20
ATOM     20  C   UNL     1       1.686   9.229  19.672  0.00  0.00    +0.000 C 
BRANCH  20  21
ATOM     21  C   UNL     1       0.415   9.675  18.960  0.00  0.00    +0.000 C 
BRANCH  21  22
ATOM     22  C   UNL     1      -0.046  10.968  19.584  0.00  0.00    +0.000 A 
ATOM     23  N   UNL     1      -0.142  12.044  18.786  0.00  0.00    +0.000 NA
ATOM     24  C   UNL     1      -0.701  13.120  19.353  0.00  0.00    +0.000 A 
ATOM     25  C   UNL     1      -1.189  13.196  20.648  0.00  0.00    +0.000 A 
ATOM     26  C   UNL     1      -1.810  14.331  21.217  0.00  0.00    +0.000 A 
ATOM     27  C   UNL     1      -2.278  14.289  22.528  0.00  0.00    +0.000 A 
ATOM     28  C   UNL     1      -2.113  13.129  23.270  0.00  0.00    +0.000 A 
ATOM     29  C   UNL     1      -1.492  12.013  22.695  0.00  0.00    +0.000 A 
ATOM     30  C   UNL     1      -1.030  12.021  21.385  0.00  0.00    +0.000 A 
ATOM     31  N   UNL     1      -0.470  10.917  20.863  0.00  0.00    +0.000 NA
BRANCH  24  32
ATOM     32  O   UNL     1      -0.783  14.184  18.505  0.00  0.00    +0.000 OA
ATOM     33  H   UNL     1      -0.038  14.723  18.828  0.00  0.00    +0.000 HD
ENDBRANCH  24  32
ENDBRANCH  21  22
ENDBRANCH  20  21
ENDBRANCH   5  20
TORSDOF 6
ENDMDL
MODEL 8
REMARK VINA RESULT:      -8.5      0.609      1.688
REMARK  Name = 
REMARK  8 active torsions:
REMARK  status: ('A' for Active; 'I' for Inactive)
REMARK    1  A    between atoms: C_1  and  C_2
REMARK    2  A    between atoms: C_5  and  C_6
REMARK    3  A    between atoms: C_7  and  S_8
REMARK    4  A    between atoms: S_8  and  N_11
REMARK    5  A    between atoms: C_15  and  C_17
REMARK    6  A    between atoms: C_17  and  C_18
REMARK    7  A    between atoms: C_18  and  C_19
REMARK    8  A    between atoms: C_21  and  O_22
REMARK                            x       y       z     vdW  Elec       q    Type
REMARK                         _______ _______ _______ _____ _____    ______ ____
ROOT
ATOM      1  N   UNL     1       2.823   4.120  18.894  0.00  0.00    +0.000 NA
ATOM      2  C   UNL     1       2.184   4.276  20.222  0.00  0.00    +0.000 C 
ATOM      3  C   UNL     1       2.377   5.680  20.820  0.00  0.00    +0.000 C 
ATOM      4  N   UNL     1       2.141   6.754  19.847  0.00  0.00    +0.000 N 
ATOM      5  C   UNL     1       1.592   7.959  20.281  0.00  0.00    +0.000 C 
ATOM      6  O   UNL     1       1.202   8.131  21.434  0.00  0.00    +0.000 OA
ATOM      7  C   UNL     1       2.864   6.590  18.581  0.00  0.00    +0.000 C 
ATOM      8  C   UNL     1       2.596   5.228  17.946  0.00  0.00    +0.000 C 
ENDROOT
BRANCH   1   9
ATOM      9  S   UNL     1       4.158   3.133  18.692  0.00  0.00    +0.000 S 
ATOM     10  O   UNL     1       3.758   2.081  17.777  0.00  0.00    +0.000 OA
ATOM     11  O   UNL     1       4.717   2.821  19.989  0.00  0.00    +0.000 OA
BRANCH   9  18
ATOM     12  C   UNL     1       7.991   6.666  19.026  0.00  0.00    +0.000 C 
ATOM     13  C   UNL     1       7.129   5.827  18.130  0.00  0.00    +0.000 A 
ATOM     14  C   UNL     1       7.109   6.041  16.750  0.00  0.00    +0.000 A 
ATOM     15  C   UNL     1       6.238   5.318  15.933  0.00  0.00    +0.000 A 
ATOM     16  C   UNL     1       5.343   4.379  16.472  0.00  0.00    +0.000 A 
ATOM     17  C   UNL     1       4.387   3.702  15.531  0.00  0.00    +0.000 C 
ATOM     18  C   UNL     1       5.357   4.173  17.866  0.00  0.00    +0.000 A 
ATOM     19  C   UNL     1       6.261   4.876  18.681  0.00  0.00    +0.000 A 
ENDBRANCH   9  18
ENDBRANCH   1   9
BRANCH   5  20
ATOM     20  C   UNL     1       1.467   9.045  19.230  0.00  0.00    +0.000 C 
BRANCH  20  21
ATOM     21  C   UNL     1       0.952  10.372  19.773  0.00  0.00    +0.000 C 
BRANCH  21  22
ATOM     22  C   UNL     1      -0.419  10.617  19.196  0.00  0.00    +0.000 A 
ATOM     23  N   UNL     1      -1.198  11.527  19.806  0.00  0.00    +0.000 NA
ATOM     24  C   UNL     1      -2.336  11.817  19.165  0.00  0.00    +0.000 A 
ATOM     25  C   UNL     1      -2.746  11.283  17.954  0.00  0.00    +0.000 A 
ATOM     26  C   UNL     1      -3.936  11.631  17.275  0.00  0.00    +0.000 A 
ATOM     27  C   UNL     1      -4.241  11.041  16.051  0.00  0.00    +0.000 A 
ATOM     28  C   UNL     1      -3.373  10.100  15.516  0.00  0.00    +0.000 A 
ATOM     29  C   UNL     1      -2.199   9.762  16.202  0.00  0.00    +0.000 A 
ATOM     30  C   UNL     1      -1.862  10.346  17.417  0.00  0.00    +0.000 A 
ATOM     31  N   UNL     1      -0.710  10.017  18.024  0.00  0.00    +0.000 NA
BRANCH  24  32
ATOM     32  O   UNL     1      -3.089  12.746  19.817  0.00  0.00    +0.000 OA
ATOM     33  H   UNL     1      -3.971  12.544  19.455  0.00  0.00    +0.000 HD
ENDBRANCH  24  32
ENDBRANCH  21  22
ENDBRANCH  20  21
ENDBRANCH   5  20
TORSDOF 6
ENDMDL
MODEL 9
REMARK VINA RESULT:      -8.4      2.144      3.168
REMARK  Name = 
REMARK  8 active torsions:
REMARK  status: ('A' for Active; 'I' for Inactive)
REMARK    1  A    between atoms: C_1  and  C_2
REMARK    2  A    between atoms: C_5  and  C_6
REMARK    3  A    between atoms: C_7  and  S_8
REMARK    4  A    between atoms: S_8  and  N_11
REMARK    5  A    between atoms: C_15  and  C_17
REMARK    6  A    between atoms: C_17  and  C_18
REMARK    7  A    between atoms: C_18  and  C_19
REMARK    8  A    between atoms: C_21  and  O_22
REMARK                            x       y       z     vdW  Elec       q    Type
REMARK                         _______ _______ _______ _____ _____    ______ ____
ROOT
ATOM      1  N   UNL     1       2.781   4.229  18.659  0.00  0.00    +0.000 NA
ATOM      2  C   UNL     1       2.033   4.281  19.937  0.00  0.00    +0.000 C 
ATOM      3  C   UNL     1       2.224   5.608  20.692  0.00  0.00    +0.000 C 
ATOM      4  N   UNL     1       2.115   6.783  19.820  0.00  0.00    +0.000 N 
ATOM      5  C   UNL     1       1.574   7.962  20.329  0.00  0.00    +0.000 C 
ATOM      6  O   UNL     1       1.090   8.036  21.457  0.00  0.00    +0.000 OA
ATOM      7  C   UNL     1       2.941   6.714  18.609  0.00  0.00    +0.000 C 
ATOM      8  C   UNL     1       2.680   5.436  17.815  0.00  0.00    +0.000 C 
ENDROOT
BRANCH   1   9
ATOM      9  S   UNL     1       4.091   3.208  18.469  0.00  0.00    +0.000 S 
ATOM     10  O   UNL     1       3.600   2.033  17.775  0.00  0.00    +0.000 OA
ATOM     11  O   UNL     1       4.788   3.092  19.732  0.00  0.00    +0.000 OA
BRANCH   9  18
ATOM     12  C   UNL     1       6.057   3.837  13.671  0.00  0.00    +0.000 C 
ATOM     13  C   UNL     1       6.051   4.300  15.098  0.00  0.00    +0.000 A 
ATOM     14  C   UNL     1       7.018   5.192  15.565  0.00  0.00    +0.000 A 
ATOM     15  C   UNL     1       7.060   5.549  16.915  0.00  0.00    +0.000 A 
ATOM     16  C   UNL     1       6.156   5.005  17.842  0.00  0.00    +0.000 A 
ATOM     17  C   UNL     1       6.321   5.382  19.287  0.00  0.00    +0.000 C 
ATOM     18  C   UNL     1       5.189   4.095  17.369  0.00  0.00    +0.000 A 
ATOM     19  C   UNL     1       5.125   3.768  16.004  0.00  0.00    +0.000 A 
ENDBRANCH   9  18
ENDBRANCH   1   9
BRANCH   5  20
ATOM     20  C   UNL     1       1.582   9.153  19.390  0.00  0.00    +0.000 C 
BRANCH  20  21
ATOM     21  C   UNL     1       0.201   9.735  19.120  0.00  0.00    +0.000 C 
BRANCH  21  22
ATOM     22  C   UNL     1       0.095  11.053  19.846  0.00  0.00    +0.000 A 
ATOM     23  N   UNL     1      -0.282  11.024  21.135  0.00  0.00    +0.000 NA
ATOM     24  C   UNL     1      -0.208  12.199  21.772  0.00  0.00    +0.000 A 
ATOM     25  C   UNL     1       0.230  13.394  21.225  0.00  0.00    +0.000 A 
ATOM     26  C   UNL     1       0.335  14.617  21.926  0.00  0.00    +0.000 A 
ATOM     27  C   UNL     1       0.805  15.757  21.277  0.00  0.00    +0.000 A 
ATOM     28  C   UNL     1       1.154  15.679  19.937  0.00  0.00    +0.000 A 
ATOM     29  C   UNL     1       1.041  14.461  19.254  0.00  0.00    +0.000 A 
ATOM     30  C   UNL     1       0.589  13.305  19.880  0.00  0.00    +0.000 A 
ATOM     31  N   UNL     1       0.529  12.151  19.195  0.00  0.00    +0.000 NA
BRANCH  24  32
ATOM     32  O   UNL     1      -0.594  12.119  23.077  0.00  0.00    +0.000 OA
ATOM     33  H   UNL     1      -1.549  11.959  22.968  0.00  0.00    +0.000 HD
ENDBRANCH  24  32
ENDBRANCH  21  22
ENDBRANCH  20  21
ENDBRANCH   5  20
TORSDOF 6
ENDMDL
