MODEL 1
REMARK VINA RESULT:      -9.3      0.000      0.000
REMARK  Name = 
REMARK  4 active torsions:
REMARK  status: ('A' for Active; 'I' for Inactive)
REMARK    1  A    between atoms: C_2  and  C_21
REMARK    2  A    between atoms: N_3  and  C_4
REMARK    3  A    between atoms: C_8  and  C_9
REMARK    4  A    between atoms: C_12  and  C_13
REMARK                            x       y       z     vdW  Elec       q    Type
REMARK                         _______ _______ _______ _____ _____    ______ ____
ROOT
ATOM      1  C   UNL     1       2.733   5.184  20.340  0.00  0.00    +0.000 A 
ATOM      2  C   UNL     1       2.392   3.908  20.800  0.00  0.00    +0.000 A 
ATOM      3  C   UNL     1       3.105   2.781  20.397  0.00  0.00    +0.000 A 
ATOM      4  C   UNL     1       4.174   2.915  19.519  0.00  0.00    +0.000 A 
ATOM      5  C   UNL     1       4.534   4.176  19.023  0.00  0.00    +0.000 A 
ATOM      6  C   UNL     1       3.793   5.306  19.430  0.00  0.00    +0.000 A 
ENDROOT
BRANCH   5   7
ATOM      7  C   UNL     1       5.665   4.320  18.114  0.00  0.00    +0.000 A 
ATOM      8  N   UNL     1       6.937   4.553  18.366  0.00  0.00    +0.000 NA
ATOM      9  N   UNL     1       7.575   4.604  17.142  0.00  0.00    +0.000 NA
ATOM     10  C   UNL     1       6.649   4.407  16.224  0.00  0.00    +0.000 A 
ATOM     11  O   UNL     1       5.408   4.206  16.769  0.00  0.00    +0.000 OA
BRANCH  10  12
ATOM     12  C   UNL     1       6.753   4.435  14.769  0.00  0.00    +0.000 A 
ATOM     13  C   UNL     1       5.937   3.583  14.008  0.00  0.00    +0.000 A 
ATOM     14  C   UNL     1       6.066   3.517  12.618  0.00  0.00    +0.000 A 
ATOM     15  C   UNL     1       7.009   4.311  11.969  0.00  0.00    +0.000 A 
ATOM     16  C   UNL     1       7.806   5.185  12.706  0.00  0.00    +0.000 A 
ATOM     17  C   UNL     1       7.677   5.251  14.097  0.00  0.00    +0.000 A 
ENDBRANCH  10  12
ENDBRANCH   5   7
BRANCH   1  20
ATOM     18  O   UNL     1       2.317   7.651  18.857  0.00  0.00    +0.000 OA
ATOM     19  C   UNL     1       1.917   7.519  20.009  0.00  0.00    +0.000 C 
ATOM     20  N   UNL     1       2.037   6.348  20.751  0.00  0.00    +0.000 N 
ATOM     21  H   UNL     1       1.506   6.310  21.614  0.00  0.00    +0.000 HD
BRANCH  19  22
ATOM     22  C   UNL     1       1.239   8.609  20.676  0.00  0.00    +0.000 A 
ATOM     23  C   UNL     1       1.135   8.870  22.033  0.00  0.00    +0.000 A 
ATOM     24  C   UNL     1       0.315  10.009  22.171  0.00  0.00    +0.000 A 
ATOM     25  C   UNL     1      -0.036  10.381  20.893  0.00  0.00    +0.000 A 
ATOM     26 BR   UNL     1      -1.162  11.810  20.477  0.00  0.00    +0.000 Br
ATOM     27  O   UNL     1       0.534   9.548  19.973  0.00  0.00    +0.000 OA
ENDBRANCH  19  22
ENDBRANCH   1  20
TORSDOF 4
ENDMDL
MODEL 2
REMARK VINA RESULT:      -9.1      3.487      9.327
REMARK  Name = 
REMARK  4 active torsions:
REMARK  status: ('A' for Active; 'I' for Inactive)
REMARK    1  A    between atoms: C_2  and  C_21
REMARK    2  A    between atoms: N_3  and  C_4
REMARK    3  A    between atoms: C_8  and  C_9
REMARK    4  A    between atoms: C_12  and  C_13
REMARK                            x       y       z     vdW  Elec       q    Type
REMARK                         _______ _______ _______ _____ _____    ______ ____
ROOT
ATOM      1  C   UNL     1       4.632   4.709  17.231  0.00  0.00    +0.000 A 
ATOM      2  C   UNL     1       4.801   3.911  18.367  0.00  0.00    +0.000 A 
ATOM      3  C   UNL     1       4.239   4.268  19.591  0.00  0.00    +0.000 A 
ATOM      4  C   UNL     1       3.499   5.439  19.697  0.00  0.00    +0.000 A 
ATOM      5  C   UNL     1       3.322   6.274  18.585  0.00  0.00    +0.000 A 
ATOM      6  C   UNL     1       3.910   5.904  17.356  0.00  0.00    +0.000 A 
ENDROOT
BRANCH   5   7
ATOM      7  C   UNL     1       2.533   7.496  18.691  0.00  0.00    +0.000 A 
ATOM      8  N   UNL     1       2.285   8.430  17.796  0.00  0.00    +0.000 NA
ATOM      9  N   UNL     1       1.491   9.370  18.423  0.00  0.00    +0.000 NA
ATOM     10  C   UNL     1       1.314   8.951  19.661  0.00  0.00    +0.000 A 
ATOM     11  O   UNL     1       1.939   7.756  19.902  0.00  0.00    +0.000 OA
BRANCH  10  12
ATOM     12  C   UNL     1       0.625   9.592  20.776  0.00  0.00    +0.000 A 
ATOM     13  C   UNL     1       0.692   9.006  22.050  0.00  0.00    +0.000 A 
ATOM     14  C   UNL     1      -0.023   9.540  23.125  0.00  0.00    +0.000 A 
ATOM     15  C   UNL     1      -0.810  10.675  22.941  0.00  0.00    +0.000 A 
ATOM     16  C   UNL     1      -0.865  11.287  21.691  0.00  0.00    +0.000 A 
ATOM     17  C   UNL     1      -0.149  10.752  20.615  0.00  0.00    +0.000 A 
ENDBRANCH  10  12
ENDBRANCH   5   7
BRANCH   1  20
ATOM     18  O   UNL     1       6.957   5.835  15.895  0.00  0.00    +0.000 OA
ATOM     19  C   UNL     1       6.265   4.972  15.363  0.00  0.00    +0.000 C 
ATOM     20  N   UNL     1       5.175   4.357  15.971  0.00  0.00    +0.000 N 
ATOM     21  H   UNL     1       4.805   3.538  15.500  0.00  0.00    +0.000 HD
BRANCH  19  22
ATOM     22  C   UNL     1       6.579   4.503  14.031  0.00  0.00    +0.000 A 
ATOM     23  C   UNL     1       7.336   5.119  13.047  0.00  0.00    +0.000 A 
ATOM     24  C   UNL     1       7.285   4.288  11.908  0.00  0.00    +0.000 A 
ATOM     25  C   UNL     1       6.502   3.212  12.260  0.00  0.00    +0.000 A 
ATOM     26 BR   UNL     1       6.052   1.810  11.112  0.00  0.00    +0.000 Br
ATOM     27  O   UNL     1       6.080   3.321  13.553  0.00  0.00    +0.000 OA
ENDBRANCH  19  22
ENDBRANCH   1  20
TORSDOF 4
ENDMDL
MODEL 3
REMARK VINA RESULT:      -8.8      0.886      1.461
REMARK  Name = 
REMARK  4 active torsions:
REMARK  status: ('A' for Active; 'I' for Inactive)
REMARK    1  A    between atoms: C_2  and  C_21
REMARK    2  A    between atoms: N_3  and  C_4
REMARK    3  A    between atoms: C_8  and  C_9
REMARK    4  A    between atoms: C_12  and  C_13
REMARK                            x       y       z     vdW  Elec       q    Type
REMARK                         _______ _______ _______ _____ _____    ______ ____
ROOT
ATOM      1  C   UNL     1       2.639   5.920  19.959  0.00  0.00    +0.000 A 
ATOM      2  C   UNL     1       2.213   4.741  20.580  0.00  0.00    +0.000 A 
ATOM      3  C   UNL     1       2.879   3.535  20.372  0.00  0.00    +0.000 A 
ATOM      4  C   UNL     1       3.986   3.490  19.532  0.00  0.00    +0.000 A 
ATOM      5  C   UNL     1       4.431   4.648  18.879  0.00  0.00    +0.000 A 
ATOM      6  C   UNL     1       3.736   5.859  19.089  0.00  0.00    +0.000 A 
ENDROOT
BRANCH   5   7
ATOM      7  C   UNL     1       5.600   4.606  18.009  0.00  0.00    +0.000 A 
ATOM      8  N   UNL     1       6.881   4.710  18.298  0.00  0.00    +0.000 NA
ATOM      9  N   UNL     1       7.562   4.611  17.099  0.00  0.00    +0.000 NA
ATOM     10  C   UNL     1       6.650   4.460  16.159  0.00  0.00    +0.000 A 
ATOM     11  O   UNL     1       5.377   4.435  16.664  0.00  0.00    +0.000 OA
BRANCH  10  12
ATOM     12  C   UNL     1       6.805   4.382  14.709  0.00  0.00    +0.000 A 
ATOM     13  C   UNL     1       7.747   5.208  14.076  0.00  0.00    +0.000 A 
ATOM     14  C   UNL     1       7.866   5.225  12.684  0.00  0.00    +0.000 A 
ATOM     15  C   UNL     1       7.048   4.408  11.906  0.00  0.00    +0.000 A 
ATOM     16  C   UNL     1       6.128   3.560  12.519  0.00  0.00    +0.000 A 
ATOM     17  C   UNL     1       6.009   3.543  13.913  0.00  0.00    +0.000 A 
ENDBRANCH  10  12
ENDBRANCH   5   7
BRANCH   1  20
ATOM     18  O   UNL     1       2.017   7.981  18.003  0.00  0.00    +0.000 OA
ATOM     19  C   UNL     1       1.769   8.131  19.195  0.00  0.00    +0.000 C 
ATOM     20  N   UNL     1       1.992   7.163  20.170  0.00  0.00    +0.000 N 
ATOM     21  H   UNL     1       1.577   7.340  21.078  0.00  0.00    +0.000 HD
BRANCH  19  22
ATOM     22  C   UNL     1       1.173   9.361  19.668  0.00  0.00    +0.000 A 
ATOM     23  C   UNL     1       1.218  10.624  19.100  0.00  0.00    +0.000 A 
ATOM     24  C   UNL     1       0.540  11.495  19.979  0.00  0.00    +0.000 A 
ATOM     25  C   UNL     1       0.120  10.716  21.033  0.00  0.00    +0.000 A 
ATOM     26 BR   UNL     1      -0.795  11.362  22.527  0.00  0.00    +0.000 Br
ATOM     27  O   UNL     1       0.482   9.413  20.848  0.00  0.00    +0.000 OA
ENDBRANCH  19  22
ENDBRANCH   1  20
TORSDOF 4
ENDMDL
MODEL 4
REMARK VINA RESULT:      -8.7      1.151      1.289
REMARK  Name = 
REMARK  4 active torsions:
REMARK  status: ('A' for Active; 'I' for Inactive)
REMARK    1  A    between atoms: C_2  and  C_21
REMARK    2  A    between atoms: N_3  and  C_4
REMARK    3  A    between atoms: C_8  and  C_9
REMARK    4  A    between atoms: C_12  and  C_13
REMARK                            x       y       z     vdW  Elec       q    Type
REMARK                         _______ _______ _______ _____ _____    ______ ____
ROOT
ATOM      1  C   UNL     1       2.579   6.171  19.829  0.00  0.00    +0.000 A 
ATOM      2  C   UNL     1       2.125   5.041  20.515  0.00  0.00    +0.000 A 
ATOM      3  C   UNL     1       2.762   3.809  20.381  0.00  0.00    +0.000 A 
ATOM      4  C   UNL     1       3.868   3.689  19.548  0.00  0.00    +0.000 A 
ATOM      5  C   UNL     1       4.342   4.796  18.830  0.00  0.00    +0.000 A 
ATOM      6  C   UNL     1       3.677   6.033  18.967  0.00  0.00    +0.000 A 
ENDROOT
BRANCH   5   7
ATOM      7  C   UNL     1       5.512   4.675  17.967  0.00  0.00    +0.000 A 
ATOM      8  N   UNL     1       6.793   4.623  18.271  0.00  0.00    +0.000 NA
ATOM      9  N   UNL     1       7.474   4.517  17.074  0.00  0.00    +0.000 NA
ATOM     10  C   UNL     1       6.564   4.520  16.120  0.00  0.00    +0.000 A 
ATOM     11  O   UNL     1       5.289   4.606  16.614  0.00  0.00    +0.000 OA
BRANCH  10  12
ATOM     12  C   UNL     1       6.729   4.508  14.669  0.00  0.00    +0.000 A 
ATOM     13  C   UNL     1       5.969   3.612  13.901  0.00  0.00    +0.000 A 
ATOM     14  C   UNL     1       6.158   3.509  12.521  0.00  0.00    +0.000 A 
ATOM     15  C   UNL     1       7.107   4.309  11.887  0.00  0.00    +0.000 A 
ATOM     16  C   UNL     1       7.850   5.225  12.630  0.00  0.00    +0.000 A 
ATOM     17  C   UNL     1       7.660   5.328  14.012  0.00  0.00    +0.000 A 
ENDBRANCH  10  12
ENDBRANCH   5   7
BRANCH   1  20
ATOM     18  O   UNL     1       2.073   8.158  17.765  0.00  0.00    +0.000 OA
ATOM     19  C   UNL     1       1.795   8.368  18.942  0.00  0.00    +0.000 C 
ATOM     20  N   UNL     1       1.962   7.439  19.964  0.00  0.00    +0.000 N 
ATOM     21  H   UNL     1       1.526   7.668  20.851  0.00  0.00    +0.000 HD
BRANCH  19  22
ATOM     22  C   UNL     1       1.220   9.634  19.341  0.00  0.00    +0.000 A 
ATOM     23  C   UNL     1       0.329   9.900  20.369  0.00  0.00    +0.000 A 
ATOM     24  C   UNL     1       0.023  11.275  20.302  0.00  0.00    +0.000 A 
ATOM     25  C   UNL     1       0.742  11.772  19.238  0.00  0.00    +0.000 A 
ATOM     26 BR   UNL     1       0.681  13.544  18.654  0.00  0.00    +0.000 Br
ATOM     27  O   UNL     1       1.489  10.788  18.656  0.00  0.00    +0.000 OA
ENDBRANCH  19  22
ENDBRANCH   1  20
TORSDOF 4
ENDMDL
MODEL 5
REMARK VINA RESULT:      -8.7      1.181      1.455
REMARK  Name = 
REMARK  4 active torsions:
REMARK  status: ('A' for Active; 'I' for Inactive)
REMARK    1  A    between atoms: C_2  and  C_21
REMARK    2  A    between atoms: N_3  and  C_4
REMARK    3  A    between atoms: C_8  and  C_9
REMARK    4  A    between atoms: C_12  and  C_13
REMARK                            x       y       z     vdW  Elec       q    Type
REMARK                         _______ _______ _______ _____ _____    ______ ____
ROOT
ATOM      1  C   UNL     1       2.486   6.557  19.519  0.00  0.00    +0.000 A 
ATOM      2  C   UNL     1       2.052   5.541  20.376  0.00  0.00    +0.000 A 
ATOM      3  C   UNL     1       2.708   4.314  20.432  0.00  0.00    +0.000 A 
ATOM      4  C   UNL     1       3.813   4.082  19.622  0.00  0.00    +0.000 A 
ATOM      5  C   UNL     1       4.268   5.070  18.738  0.00  0.00    +0.000 A 
ATOM      6  C   UNL     1       3.583   6.303  18.683  0.00  0.00    +0.000 A 
ENDROOT
BRANCH   5   7
ATOM      7  C   UNL     1       5.436   4.834  17.898  0.00  0.00    +0.000 A 
ATOM      8  N   UNL     1       6.703   4.676  18.226  0.00  0.00    +0.000 NA
ATOM      9  N   UNL     1       7.392   4.492  17.043  0.00  0.00    +0.000 NA
ATOM     10  C   UNL     1       6.502   4.558  16.072  0.00  0.00    +0.000 A 
ATOM     11  O   UNL     1       5.231   4.762  16.542  0.00  0.00    +0.000 OA
BRANCH  10  12
ATOM     12  C   UNL     1       6.689   4.507  14.626  0.00  0.00    +0.000 A 
ATOM     13  C   UNL     1       5.935   3.597  13.869  0.00  0.00    +0.000 A 
ATOM     14  C   UNL     1       6.145   3.457  12.494  0.00  0.00    +0.000 A 
ATOM     15  C   UNL     1       7.109   4.235  11.856  0.00  0.00    +0.000 A 
ATOM     16  C   UNL     1       7.845   5.166  12.586  0.00  0.00    +0.000 A 
ATOM     17  C   UNL     1       7.635   5.305  13.962  0.00  0.00    +0.000 A 
ENDBRANCH  10  12
ENDBRANCH   5   7
BRANCH   1  20
ATOM     18  O   UNL     1       1.556   8.213  21.723  0.00  0.00    +0.000 OA
ATOM     19  C   UNL     1       1.380   8.541  20.554  0.00  0.00    +0.000 C 
ATOM     20  N   UNL     1       1.849   7.821  19.459  0.00  0.00    +0.000 N 
ATOM     21  H   UNL     1       1.798   8.291  18.561  0.00  0.00    +0.000 HD
BRANCH  19  22
ATOM     22  C   UNL     1       0.678   9.765  20.237  0.00  0.00    +0.000 A 
ATOM     23  C   UNL     1       0.620  10.947  20.958  0.00  0.00    +0.000 A 
ATOM     24  C   UNL     1      -0.249  11.812  20.261  0.00  0.00    +0.000 A 
ATOM     25  C   UNL     1      -0.674  11.112  19.155  0.00  0.00    +0.000 A 
ATOM     26 BR   UNL     1      -1.888  11.760  17.893  0.00  0.00    +0.000 Br
ATOM     27  O   UNL     1      -0.104   9.872  19.118  0.00  0.00    +0.000 OA
ENDBRANCH  19  22
ENDBRANCH   1  20
TORSDOF 4
ENDMDL
MODEL 6
REMARK VINA RESULT:      -8.7      3.363      8.638
REMARK  Name = 
REMARK  4 active torsions:
REMARK  status: ('A' for Active; 'I' for Inactive)
REMARK    1  A    between atoms: C_2  and  C_21
REMARK    2  A    between atoms: N_3  and  C_4
REMARK    3  A    between atoms: C_8  and  C_9
REMARK    4  A    between atoms: C_12  and  C_13
REMARK                            x       y       z     vdW  Elec       q    Type
REMARK                         _______ _______ _______ _____ _____    ______ ____
ROOT
ATOM      1  C   UNL     1       3.135   4.978  18.593  0.00  0.00    +0.000 A 
ATOM      2  C   UNL     1       2.669   3.894  19.344  0.00  0.00    +0.000 A 
ATOM      3  C   UNL     1       1.858   4.084  20.461  0.00  0.00    +0.000 A 
ATOM      4  C   UNL     1       1.503   5.371  20.847  0.00  0.00    +0.000 A 
ATOM      5  C   UNL     1       1.966   6.483  20.130  0.00  0.00    +0.000 A 
ATOM      6  C   UNL     1       2.798   6.274  19.010  0.00  0.00    +0.000 A 
ENDROOT
BRANCH   5   7
ATOM      7  C   UNL     1       1.582   7.834  20.526  0.00  0.00    +0.000 A 
ATOM      8  N   UNL     1       1.475   8.372  21.723  0.00  0.00    +0.000 NA
ATOM      9  N   UNL     1       1.069   9.678  21.529  0.00  0.00    +0.000 NA
ATOM     10  C   UNL     1       0.949   9.847  20.227  0.00  0.00    +0.000 A 
ATOM     11  O   UNL     1       1.272   8.718  19.522  0.00  0.00    +0.000 OA
BRANCH  10  12
ATOM     12  C   UNL     1       0.480  11.006  19.473  0.00  0.00    +0.000 A 
ATOM     13  C   UNL     1       1.373  12.054  19.202  0.00  0.00    +0.000 A 
ATOM     14  C   UNL     1       0.942  13.217  18.558  0.00  0.00    +0.000 A 
ATOM     15  C   UNL     1      -0.389  13.343  18.168  0.00  0.00    +0.000 A 
ATOM     16  C   UNL     1      -1.283  12.299  18.402  0.00  0.00    +0.000 A 
ATOM     17  C   UNL     1      -0.851  11.135  19.046  0.00  0.00    +0.000 A 
ENDBRANCH  10  12
ENDBRANCH   5   7
BRANCH   1  20
ATOM     18  O   UNL     1       5.955   4.277  18.460  0.00  0.00    +0.000 OA
ATOM     19  C   UNL     1       5.305   4.523  17.449  0.00  0.00    +0.000 C 
ATOM     20  N   UNL     1       3.944   4.810  17.442  0.00  0.00    +0.000 N 
ATOM     21  H   UNL     1       3.492   4.812  16.534  0.00  0.00    +0.000 HD
BRANCH  19  22
ATOM     22  C   UNL     1       5.939   4.491  16.148  0.00  0.00    +0.000 A 
ATOM     23  C   UNL     1       7.086   5.141  15.723  0.00  0.00    +0.000 A 
ATOM     24  C   UNL     1       7.246   4.840  14.354  0.00  0.00    +0.000 A 
ATOM     25  C   UNL     1       6.189   4.023  14.020  0.00  0.00    +0.000 A 
ATOM     26 BR   UNL     1       5.869   3.354  12.307  0.00  0.00    +0.000 Br
ATOM     27  O   UNL     1       5.397   3.788  15.106  0.00  0.00    +0.000 OA
ENDBRANCH  19  22
ENDBRANCH   1  20
TORSDOF 4
ENDMDL
MODEL 7
REMARK VINA RESULT:      -8.7      0.532      1.085
REMARK  Name = 
REMARK  4 active torsions:
REMARK  status: ('A' for Active; 'I' for Inactive)
REMARK    1  A    between atoms: C_2  and  C_21
REMARK    2  A    between atoms: N_3  and  C_4
REMARK    3  A    between atoms: C_8  and  C_9
REMARK    4  A    between atoms: C_12  and  C_13
REMARK                            x       y       z     vdW  Elec       q    Type
REMARK                         _______ _______ _______ _____ _____    ______ ____
ROOT
ATOM      1  C   UNL     1       2.560   5.587  20.231  0.00  0.00    +0.000 A 
ATOM      2  C   UNL     1       2.239   4.272  20.585  0.00  0.00    +0.000 A 
ATOM      3  C   UNL     1       2.958   3.192  20.077  0.00  0.00    +0.000 A 
ATOM      4  C   UNL     1       4.012   3.413  19.198  0.00  0.00    +0.000 A 
ATOM      5  C   UNL     1       4.352   4.715  18.807  0.00  0.00    +0.000 A 
ATOM      6  C   UNL     1       3.605   5.798  19.320  0.00  0.00    +0.000 A 
ENDROOT
BRANCH   5   7
ATOM      7  C   UNL     1       5.467   4.950  17.897  0.00  0.00    +0.000 A 
ATOM      8  N   UNL     1       6.614   5.567  18.097  0.00  0.00    +0.000 NA
ATOM      9  N   UNL     1       7.301   5.511  16.899  0.00  0.00    +0.000 NA
ATOM     10  C   UNL     1       6.524   4.871  16.047  0.00  0.00    +0.000 A 
ATOM     11  O   UNL     1       5.343   4.471  16.616  0.00  0.00    +0.000 OA
BRANCH  10  12
ATOM     12  C   UNL     1       6.718   4.597  14.627  0.00  0.00    +0.000 A 
ATOM     13  C   UNL     1       7.704   5.305  13.922  0.00  0.00    +0.000 A 
ATOM     14  C   UNL     1       7.865   5.133  12.544  0.00  0.00    +0.000 A 
ATOM     15  C   UNL     1       7.045   4.243  11.854  0.00  0.00    +0.000 A 
ATOM     16  C   UNL     1       6.081   3.510  12.543  0.00  0.00    +0.000 A 
ATOM     17  C   UNL     1       5.921   3.681  13.922  0.00  0.00    +0.000 A 
ENDBRANCH  10  12
ENDBRANCH   5   7
BRANCH   1  20
ATOM     18  O   UNL     1       2.026   8.137  18.939  0.00  0.00    +0.000 OA
ATOM     19  C   UNL     1       1.681   7.918  20.096  0.00  0.00    +0.000 C 
ATOM     20  N   UNL     1       1.859   6.703  20.750  0.00  0.00    +0.000 N 
ATOM     21  H   UNL     1       1.368   6.594  21.631  0.00  0.00    +0.000 HD
BRANCH  19  22
ATOM     22  C   UNL     1       1.010   8.944  20.864  0.00  0.00    +0.000 A 
ATOM     23  C   UNL     1       0.764   8.990  22.227  0.00  0.00    +0.000 A 
ATOM     24  C   UNL     1       0.020  10.164  22.471  0.00  0.00    +0.000 A 
ATOM     25  C   UNL     1      -0.146  10.768  21.245  0.00  0.00    +0.000 A 
ATOM     26 BR   UNL     1      -1.106  12.345  20.964  0.00  0.00    +0.000 Br
ATOM     27  O   UNL     1       0.466  10.047  20.262  0.00  0.00    +0.000 OA
ENDBRANCH  19  22
ENDBRANCH   1  20
TORSDOF 4
ENDMDL
MODEL 8
REMARK VINA RESULT:      -8.6      1.114      1.391
REMARK  Name = 
REMARK  4 active torsions:
REMARK  status: ('A' for Active; 'I' for Inactive)
REMARK    1  A    between atoms: C_2  and  C_21
REMARK    2  A    between atoms: N_3  and  C_4
REMARK    3  A    between atoms: C_8  and  C_9
REMARK    4  A    between atoms: C_12  and  C_13
REMARK                            x       y       z     vdW  Elec       q    Type
REMARK                         _______ _______ _______ _____ _____    ______ ____
ROOT
ATOM      1  C   UNL     1       2.490   6.211  19.699  0.00  0.00    +0.000 A 
ATOM      2  C   UNL     1       2.016   5.102  20.407  0.00  0.00    +0.000 A 
ATOM      3  C   UNL     1       2.637   3.859  20.303  0.00  0.00    +0.000 A 
ATOM      4  C   UNL     1       3.746   3.706  19.479  0.00  0.00    +0.000 A 
ATOM      5  C   UNL     1       4.239   4.790  18.740  0.00  0.00    +0.000 A 
ATOM      6  C   UNL     1       3.590   6.039  18.846  0.00  0.00    +0.000 A 
ENDROOT
BRANCH   5   7
ATOM      7  C   UNL     1       5.411   4.634  17.887  0.00  0.00    +0.000 A 
ATOM      8  N   UNL     1       6.686   4.528  18.202  0.00  0.00    +0.000 NA
ATOM      9  N   UNL     1       7.375   4.410  17.010  0.00  0.00    +0.000 NA
ATOM     10  C   UNL     1       6.475   4.460  16.047  0.00  0.00    +0.000 A 
ATOM     11  O   UNL     1       5.200   4.590  16.530  0.00  0.00    +0.000 OA
BRANCH  10  12
ATOM     12  C   UNL     1       6.654   4.459  14.599  0.00  0.00    +0.000 A 
ATOM     13  C   UNL     1       5.845   3.626  13.810  0.00  0.00    +0.000 A 
ATOM     14  C   UNL     1       6.041   3.531  12.429  0.00  0.00    +0.000 A 
ATOM     15  C   UNL     1       7.046   4.277  11.817  0.00  0.00    +0.000 A 
ATOM     16  C   UNL     1       7.839   5.133  12.581  0.00  0.00    +0.000 A 
ATOM     17  C   UNL     1       7.642   5.227  13.963  0.00  0.00    +0.000 A 
ENDBRANCH  10  12
ENDBRANCH   5   7
BRANCH   1  20
ATOM     18  O   UNL     1       2.231   8.252  17.643  0.00  0.00    +0.000 OA
ATOM     19  C   UNL     1       1.844   8.444  18.791  0.00  0.00    +0.000 C 
ATOM     20  N   UNL     1       1.890   7.490  19.803  0.00  0.00    +0.000 N 
ATOM     21  H   UNL     1       1.374   7.710  20.648  0.00  0.00    +0.000 HD
BRANCH  19  22
ATOM     22  C   UNL     1       1.261   9.715  19.163  0.00  0.00    +0.000 A 
ATOM     23  C   UNL     1       1.254  10.908  18.458  0.00  0.00    +0.000 A 
ATOM     24  C   UNL     1       0.619  11.865  19.277  0.00  0.00    +0.000 A 
ATOM     25  C   UNL     1       0.273  11.204  20.434  0.00  0.00    +0.000 A 
ATOM     26 BR   UNL     1      -0.559  12.003  21.902  0.00  0.00    +0.000 Br
ATOM     27  O   UNL     1       0.642   9.891  20.371  0.00  0.00    +0.000 OA
ENDBRANCH  19  22
ENDBRANCH   1  20
TORSDOF 4
ENDMDL
MODEL 9
REMARK VINA RESULT:      -8.5      2.105      2.833
REMARK  Name = 
REMARK  4 active torsions:
REMARK  status: ('A' for Active; 'I' for Inactive)
REMARK    1  A    between atoms: C_2  and  C_21
REMARK    2  A    between atoms: N_3  and  C_4
REMARK    3  A    between atoms: C_8  and  C_9
REMARK    4  A    between atoms: C_12  and  C_13
REMARK                            x       y       z     vdW  Elec       q    Type
REMARK                         _______ _______ _______ _____ _____    ______ ____
ROOT
ATOM      1  C   UNL     1       2.306   7.490  18.624  0.00  0.00    +0.000 A 
ATOM      2  C   UNL     1       2.182   6.717  19.782  0.00  0.00    +0.000 A 
ATOM      3  C   UNL     1       3.120   5.738  20.102  0.00  0.00    +0.000 A 
ATOM      4  C   UNL     1       4.201   5.514  19.258  0.00  0.00    +0.000 A 
ATOM      5  C   UNL     1       4.350   6.257  18.079  0.00  0.00    +0.000 A 
ATOM      6  C   UNL     1       3.383   7.236  17.763  0.00  0.00    +0.000 A 
ENDROOT
BRANCH   5   7
ATOM      7  C   UNL     1       5.493   6.034  17.200  0.00  0.00    +0.000 A 
ATOM      8  N   UNL     1       6.752   6.396  17.332  0.00  0.00    +0.000 NA
ATOM      9  N   UNL     1       7.411   5.936  16.208  0.00  0.00    +0.000 NA
ATOM     10  C   UNL     1       6.507   5.331  15.462  0.00  0.00    +0.000 A 
ATOM     11  O   UNL     1       5.263   5.342  16.036  0.00  0.00    +0.000 OA
BRANCH  10  12
ATOM     12  C   UNL     1       6.637   4.731  14.137  0.00  0.00    +0.000 A 
ATOM     13  C   UNL     1       7.609   5.225  13.254  0.00  0.00    +0.000 A 
ATOM     14  C   UNL     1       7.709   4.736  11.949  0.00  0.00    +0.000 A 
ATOM     15  C   UNL     1       6.840   3.739  11.511  0.00  0.00    +0.000 A 
ATOM     16  C   UNL     1       5.888   3.215  12.385  0.00  0.00    +0.000 A 
ATOM     17  C   UNL     1       5.789   3.705  13.691  0.00  0.00    +0.000 A 
ENDBRANCH  10  12
ENDBRANCH   5   7
BRANCH   1  20
ATOM     18  O   UNL     1       1.234   9.587  20.331  0.00  0.00    +0.000 OA
ATOM     19  C   UNL     1       0.863   9.452  19.169  0.00  0.00    +0.000 C 
ATOM     20  N   UNL     1       1.377   8.506  18.287  0.00  0.00    +0.000 N 
ATOM     21  H   UNL     1       1.122   8.618  17.312  0.00  0.00    +0.000 HD
BRANCH  19  22
ATOM     22  C   UNL     1      -0.145  10.330  18.617  0.00  0.00    +0.000 A 
ATOM     23  C   UNL     1      -0.499  11.609  19.018  0.00  0.00    +0.000 A 
ATOM     24  C   UNL     1      -1.581  12.009  18.206  0.00  0.00    +0.000 A 
ATOM     25  C   UNL     1      -1.828  10.955  17.356  0.00  0.00    +0.000 A 
ATOM     26 BR   UNL     1      -3.196  10.915  16.086  0.00  0.00    +0.000 Br
ATOM     27  O   UNL     1      -0.950   9.934  17.583  0.00  0.00    +0.000 OA
ENDBRANCH  19  22
ENDBRANCH   1  20
TORSDOF 4
ENDMDL
