MODEL 1
REMARK VINA RESULT:      -7.4      0.000      0.000
REMARK  Name = 
REMARK  3 active torsions:
REMARK  status: ('A' for Active; 'I' for Inactive)
REMARK    1  A    between atoms: C_1  and  C_2
REMARK    2  A    between atoms: C_2  and  C_3
REMARK    3  A    between atoms: C_7  and  N_8
REMARK                            x       y       z     vdW  Elec       q    Type
REMARK                         _______ _______ _______ _____ _____    ______ ____
ROOT
ATOM      1  C   UNL     1       1.807   2.662  21.948  0.00  0.00    +0.000 C 
ATOM      2  C   UNL     1       2.142   3.356  20.623  0.00  0.00    +0.000 C 
ATOM      3  C   UNL     1       1.228   2.793  19.525  0.00  0.00    +0.000 C 
ATOM      4  C   UNL     1       2.004   4.877  20.793  0.00  0.00    +0.000 C 
ATOM      5  C   UNL     1       2.673   5.672  19.696  0.00  0.00    +0.000 A 
ATOM      6  C   UNL     1       3.690   5.060  18.910  0.00  0.00    +0.000 A 
ATOM      7  C   UNL     1       4.258   5.755  17.817  0.00  0.00    +0.000 A 
ATOM      8  N   UNL     1       3.911   7.019  17.515  0.00  0.00    +0.000 NA
ATOM      9  C   UNL     1       2.991   7.585  18.317  0.00  0.00    +0.000 A 
ATOM     10  S   UNL     1       2.441   9.178  18.087  0.00  0.00    +0.000 S 
ATOM     11  N   UNL     1       1.365   9.177  19.346  0.00  0.00    +0.000 NA
ATOM     12  C   UNL     1       1.416   7.995  19.950  0.00  0.00    +0.000 A 
ATOM     13  N   UNL     1       0.630   7.753  21.027  0.00  0.00    +0.000 N 
ATOM     14  C   UNL     1       2.335   7.016  19.399  0.00  0.00    +0.000 A 
ATOM     15  C   UNL     1       4.026   3.605  19.165  0.00  0.00    +0.000 C 
ATOM     16  O   UNL     1       3.511   3.048  20.376  0.00  0.00    +0.000 OA
ATOM     17  H   UNL     1       0.158   8.564  21.409  0.00  0.00    +0.000 HD
ATOM     18  H   UNL     1       0.935   7.107  21.743  0.00  0.00    +0.000 HD
ENDROOT
BRANCH   7  19
ATOM     19  N   UNL     1       5.072   5.109  16.912  0.00  0.00    +0.000 N 
ATOM     20  C   UNL     1       6.485   4.870  17.242  0.00  0.00    +0.000 C 
ATOM     21  C   UNL     1       7.287   5.021  15.930  0.00  0.00    +0.000 C 
ATOM     22  O   UNL     1       6.794   4.166  14.876  0.00  0.00    +0.000 OA
ATOM     23  C   UNL     1       5.382   4.372  14.651  0.00  0.00    +0.000 C 
ATOM     24  C   UNL     1       4.591   4.115  15.945  0.00  0.00    +0.000 C 
ENDBRANCH   7  19
TORSDOF 1
ENDMDL
MODEL 2
REMARK VINA RESULT:      -7.3      0.650      1.196
REMARK  Name = 
REMARK  3 active torsions:
REMARK  status: ('A' for Active; 'I' for Inactive)
REMARK    1  A    between atoms: C_1  and  C_2
REMARK    2  A    between atoms: C_2  and  C_3
REMARK    3  A    between atoms: C_7  and  N_8
REMARK                            x       y       z     vdW  Elec       q    Type
REMARK                         _______ _______ _______ _____ _____    ______ ____
ROOT
ATOM      1  C   UNL     1       2.004   2.957  21.649  0.00  0.00    +0.000 C 
ATOM      2  C   UNL     1       2.342   3.718  20.362  0.00  0.00    +0.000 C 
ATOM      3  C   UNL     1       1.532   3.117  19.204  0.00  0.00    +0.000 C 
ATOM      4  C   UNL     1       2.070   5.216  20.567  0.00  0.00    +0.000 C 
ATOM      5  C   UNL     1       2.722   6.098  19.528  0.00  0.00    +0.000 A 
ATOM      6  C   UNL     1       3.823   5.597  18.777  0.00  0.00    +0.000 A 
ATOM      7  C   UNL     1       4.382   6.371  17.734  0.00  0.00    +0.000 A 
ATOM      8  N   UNL     1       3.946   7.611  17.451  0.00  0.00    +0.000 NA
ATOM      9  C   UNL     1       2.945   8.074  18.220  0.00  0.00    +0.000 A 
ATOM     10  S   UNL     1       2.275   9.623  18.008  0.00  0.00    +0.000 S 
ATOM     11  N   UNL     1       1.144   9.493  19.211  0.00  0.00    +0.000 NA
ATOM     12  C   UNL     1       1.265   8.301  19.783  0.00  0.00    +0.000 A 
ATOM     13  N   UNL     1       0.451   7.960  20.812  0.00  0.00    +0.000 N 
ATOM     14  C   UNL     1       2.288   7.418  19.252  0.00  0.00    +0.000 A 
ATOM     15  C   UNL     1       4.267   4.167  19.008  0.00  0.00    +0.000 C 
ATOM     16  O   UNL     1       3.743   3.532  20.175  0.00  0.00    +0.000 OA
ATOM     17  H   UNL     1      -0.104   8.717  21.193  0.00  0.00    +0.000 HD
ATOM     18  H   UNL     1       0.774   7.319  21.525  0.00  0.00    +0.000 HD
ENDROOT
BRANCH   7  19
ATOM     19  N   UNL     1       5.290   5.823  16.853  0.00  0.00    +0.000 N 
ATOM     20  C   UNL     1       4.983   5.793  15.415  0.00  0.00    +0.000 C 
ATOM     21  C   UNL     1       5.566   4.476  14.856  0.00  0.00    +0.000 C 
ATOM     22  O   UNL     1       6.973   4.325  15.143  0.00  0.00    +0.000 OA
ATOM     23  C   UNL     1       7.235   4.453  16.558  0.00  0.00    +0.000 C 
ATOM     24  C   UNL     1       6.740   5.815  17.073  0.00  0.00    +0.000 C 
ENDBRANCH   7  19
TORSDOF 1
ENDMDL
MODEL 3
REMARK VINA RESULT:      -6.6      3.010      5.898
REMARK  Name = 
REMARK  3 active torsions:
REMARK  status: ('A' for Active; 'I' for Inactive)
REMARK    1  A    between atoms: C_1  and  C_2
REMARK    2  A    between atoms: C_2  and  C_3
REMARK    3  A    between atoms: C_7  and  N_8
REMARK                            x       y       z     vdW  Elec       q    Type
REMARK                         _______ _______ _______ _____ _____    ______ ____
ROOT
ATOM      1  C   UNL     1       7.395   4.878  16.185  0.00  0.00    +0.000 C 
ATOM      2  C   UNL     1       5.944   5.222  16.541  0.00  0.00    +0.000 C 
ATOM      3  C   UNL     1       5.167   5.488  15.245  0.00  0.00    +0.000 C 
ATOM      4  C   UNL     1       5.339   4.085  17.379  0.00  0.00    +0.000 C 
ATOM      5  C   UNL     1       4.074   4.475  18.106  0.00  0.00    +0.000 A 
ATOM      6  C   UNL     1       3.798   5.852  18.339  0.00  0.00    +0.000 A 
ATOM      7  C   UNL     1       2.574   6.241  18.930  0.00  0.00    +0.000 A 
ATOM      8  N   UNL     1       1.661   5.342  19.343  0.00  0.00    +0.000 NA
ATOM      9  C   UNL     1       1.983   4.049  19.160  0.00  0.00    +0.000 A 
ATOM     10  S   UNL     1       0.952   2.780  19.629  0.00  0.00    +0.000 S 
ATOM     11  N   UNL     1       1.930   1.553  19.098  0.00  0.00    +0.000 NA
ATOM     12  C   UNL     1       3.033   2.081  18.579  0.00  0.00    +0.000 A 
ATOM     13  N   UNL     1       4.000   1.271  18.084  0.00  0.00    +0.000 N 
ATOM     14  C   UNL     1       3.128   3.529  18.574  0.00  0.00    +0.000 A 
ATOM     15  C   UNL     1       4.761   6.887  17.794  0.00  0.00    +0.000 C 
ATOM     16  O   UNL     1       6.026   6.390  17.354  0.00  0.00    +0.000 OA
ATOM     17  H   UNL     1       3.888   0.286  18.293  0.00  0.00    +0.000 HD
ATOM     18  H   UNL     1       4.968   1.564  18.105  0.00  0.00    +0.000 HD
ENDROOT
BRANCH   7  19
ATOM     19  N   UNL     1       2.189   7.564  18.959  0.00  0.00    +0.000 N 
ATOM     20  C   UNL     1       1.995   8.239  20.251  0.00  0.00    +0.000 C 
ATOM     21  C   UNL     1       0.810   9.216  20.075  0.00  0.00    +0.000 C 
ATOM     22  O   UNL     1       1.003  10.132  18.976  0.00  0.00    +0.000 OA
ATOM     23  C   UNL     1       1.280   9.423  17.748  0.00  0.00    +0.000 C 
ATOM     24  C   UNL     1       2.526   8.535  17.912  0.00  0.00    +0.000 C 
ENDBRANCH   7  19
TORSDOF 1
ENDMDL
MODEL 4
REMARK VINA RESULT:      -6.5      3.052      5.834
REMARK  Name = 
REMARK  3 active torsions:
REMARK  status: ('A' for Active; 'I' for Inactive)
REMARK    1  A    between atoms: C_1  and  C_2
REMARK    2  A    between atoms: C_2  and  C_3
REMARK    3  A    between atoms: C_7  and  N_8
REMARK                            x       y       z     vdW  Elec       q    Type
REMARK                         _______ _______ _______ _____ _____    ______ ____
ROOT
ATOM      1  C   UNL     1       7.250   5.051  16.411  0.00  0.00    +0.000 C 
ATOM      2  C   UNL     1       5.827   5.289  16.931  0.00  0.00    +0.000 C 
ATOM      3  C   UNL     1       4.833   5.019  15.794  0.00  0.00    +0.000 C 
ATOM      4  C   UNL     1       5.579   4.407  18.165  0.00  0.00    +0.000 C 
ATOM      5  C   UNL     1       4.383   4.831  18.983  0.00  0.00    +0.000 A 
ATOM      6  C   UNL     1       3.886   6.159  18.857  0.00  0.00    +0.000 A 
ATOM      7  C   UNL     1       2.709   6.545  19.540  0.00  0.00    +0.000 A 
ATOM      8  N   UNL     1       2.055   5.710  20.367  0.00  0.00    +0.000 NA
ATOM      9  C   UNL     1       2.588   4.483  20.507  0.00  0.00    +0.000 A 
ATOM     10  S   UNL     1       1.898   3.301  21.517  0.00  0.00    +0.000 S 
ATOM     11  N   UNL     1       3.004   2.115  21.182  0.00  0.00    +0.000 NA
ATOM     12  C   UNL     1       3.898   2.594  20.325  0.00  0.00    +0.000 A 
ATOM     13  N   UNL     1       4.920   1.809  19.905  0.00  0.00    +0.000 N 
ATOM     14  C   UNL     1       3.714   3.964  19.882  0.00  0.00    +0.000 A 
ATOM     15  C   UNL     1       4.544   7.088  17.856  0.00  0.00    +0.000 C 
ATOM     16  O   UNL     1       5.802   6.655  17.337  0.00  0.00    +0.000 OA
ATOM     17  H   UNL     1       5.030   0.937  20.409  0.00  0.00    +0.000 HD
ATOM     18  H   UNL     1       5.806   2.223  19.648  0.00  0.00    +0.000 HD
ENDROOT
BRANCH   7  19
ATOM     19  N   UNL     1       2.087   7.743  19.259  0.00  0.00    +0.000 N 
ATOM     20  C   UNL     1       1.814   8.113  17.862  0.00  0.00    +0.000 C 
ATOM     21  C   UNL     1       2.004   9.643  17.756  0.00  0.00    +0.000 C 
ATOM     22  O   UNL     1       1.198  10.370  18.707  0.00  0.00    +0.000 OA
ATOM     23  C   UNL     1       1.435   9.908  20.055  0.00  0.00    +0.000 C 
ATOM     24  C   UNL     1       1.139   8.403  20.164  0.00  0.00    +0.000 C 
ENDBRANCH   7  19
TORSDOF 1
ENDMDL
MODEL 5
REMARK VINA RESULT:      -6.3      3.027      5.812
REMARK  Name = 
REMARK  3 active torsions:
REMARK  status: ('A' for Active; 'I' for Inactive)
REMARK    1  A    between atoms: C_1  and  C_2
REMARK    2  A    between atoms: C_2  and  C_3
REMARK    3  A    between atoms: C_7  and  N_8
REMARK                            x       y       z     vdW  Elec       q    Type
REMARK                         _______ _______ _______ _____ _____    ______ ____
ROOT
ATOM      1  C   UNL     1       7.234   4.907  16.309  0.00  0.00    +0.000 C 
ATOM      2  C   UNL     1       5.822   5.183  16.838  0.00  0.00    +0.000 C 
ATOM      3  C   UNL     1       4.812   4.917  15.713  0.00  0.00    +0.000 C 
ATOM      4  C   UNL     1       5.566   4.325  18.086  0.00  0.00    +0.000 C 
ATOM      5  C   UNL     1       4.385   4.787  18.908  0.00  0.00    +0.000 A 
ATOM      6  C   UNL     1       3.916   6.124  18.766  0.00  0.00    +0.000 A 
ATOM      7  C   UNL     1       2.754   6.546  19.453  0.00  0.00    +0.000 A 
ATOM      8  N   UNL     1       2.090   5.737  20.298  0.00  0.00    +0.000 NA
ATOM      9  C   UNL     1       2.597   4.501  20.452  0.00  0.00    +0.000 A 
ATOM     10  S   UNL     1       1.891   3.349  21.486  0.00  0.00    +0.000 S 
ATOM     11  N   UNL     1       2.968   2.135  21.160  0.00  0.00    +0.000 NA
ATOM     12  C   UNL     1       3.865   2.582  20.288  0.00  0.00    +0.000 A 
ATOM     13  N   UNL     1       4.866   1.769  19.872  0.00  0.00    +0.000 N 
ATOM     14  C   UNL     1       3.706   3.949  19.826  0.00  0.00    +0.000 A 
ATOM     15  C   UNL     1       4.585   7.023  17.746  0.00  0.00    +0.000 C 
ATOM     16  O   UNL     1       5.829   6.555  17.223  0.00  0.00    +0.000 OA
ATOM     17  H   UNL     1       4.961   0.902  20.387  0.00  0.00    +0.000 HD
ATOM     18  H   UNL     1       5.759   2.160  19.601  0.00  0.00    +0.000 HD
ENDROOT
BRANCH   7  19
ATOM     19  N   UNL     1       2.155   7.752  19.159  0.00  0.00    +0.000 N 
ATOM     20  C   UNL     1       1.792   8.670  20.249  0.00  0.00    +0.000 C 
ATOM     21  C   UNL     1       0.472   9.360  19.837  0.00  0.00    +0.000 C 
ATOM     22  O   UNL     1       0.562  10.008  18.550  0.00  0.00    +0.000 OA
ATOM     23  C   UNL     1       1.010   9.088  17.531  0.00  0.00    +0.000 C 
ATOM     24  C   UNL     1       2.375   8.491  17.912  0.00  0.00    +0.000 C 
ENDBRANCH   7  19
TORSDOF 1
ENDMDL
MODEL 6
REMARK VINA RESULT:      -6.0      8.343     11.247
REMARK  Name = 
REMARK  3 active torsions:
REMARK  status: ('A' for Active; 'I' for Inactive)
REMARK    1  A    between atoms: C_1  and  C_2
REMARK    2  A    between atoms: C_2  and  C_3
REMARK    3  A    between atoms: C_7  and  N_8
REMARK                            x       y       z     vdW  Elec       q    Type
REMARK                         _______ _______ _______ _____ _____    ______ ____
ROOT
ATOM      1  C   UNL     1      -6.830  12.465  17.408  0.00  0.00    +0.000 C 
ATOM      2  C   UNL     1      -5.837  12.136  18.529  0.00  0.00    +0.000 C 
ATOM      3  C   UNL     1      -6.403  10.982  19.367  0.00  0.00    +0.000 C 
ATOM      4  C   UNL     1      -4.464  11.815  17.919  0.00  0.00    +0.000 C 
ATOM      5  C   UNL     1      -3.331  11.860  18.917  0.00  0.00    +0.000 A 
ATOM      6  C   UNL     1      -3.499  12.583  20.132  0.00  0.00    +0.000 A 
ATOM      7  C   UNL     1      -2.488  12.556  21.120  0.00  0.00    +0.000 A 
ATOM      8  N   UNL     1      -1.325  11.907  20.936  0.00  0.00    +0.000 NA
ATOM      9  C   UNL     1      -1.178  11.285  19.752  0.00  0.00    +0.000 A 
ATOM     10  S   UNL     1       0.231  10.423  19.345  0.00  0.00    +0.000 S 
ATOM     11  N   UNL     1      -0.286   9.936  17.849  0.00  0.00    +0.000 NA
ATOM     12  C   UNL     1      -1.506  10.419  17.641  0.00  0.00    +0.000 A 
ATOM     13  N   UNL     1      -2.141  10.165  16.471  0.00  0.00    +0.000 N 
ATOM     14  C   UNL     1      -2.091  11.208  18.709  0.00  0.00    +0.000 A 
ATOM     15  C   UNL     1      -4.838  13.238  20.407  0.00  0.00    +0.000 C 
ATOM     16  O   UNL     1      -5.726  13.335  19.292  0.00  0.00    +0.000 OA
ATOM     17  H   UNL     1      -1.568   9.746  15.749  0.00  0.00    +0.000 HD
ATOM     18  H   UNL     1      -2.808  10.829  16.100  0.00  0.00    +0.000 HD
ENDROOT
BRANCH   7  19
ATOM     19  N   UNL     1      -2.719  13.055  22.385  0.00  0.00    +0.000 N 
ATOM     20  C   UNL     1      -2.963  12.128  23.501  0.00  0.00    +0.000 C 
ATOM     21  C   UNL     1      -4.004  12.801  24.425  0.00  0.00    +0.000 C 
ATOM     22  O   UNL     1      -3.597  14.117  24.854  0.00  0.00    +0.000 OA
ATOM     23  C   UNL     1      -3.280  14.962  23.726  0.00  0.00    +0.000 C 
ATOM     24  C   UNL     1      -2.169  14.323  22.875  0.00  0.00    +0.000 C 
ENDBRANCH   7  19
TORSDOF 1
ENDMDL
MODEL 7
REMARK VINA RESULT:      -5.9      5.993      9.442
REMARK  Name = 
REMARK  3 active torsions:
REMARK  status: ('A' for Active; 'I' for Inactive)
REMARK    1  A    between atoms: C_1  and  C_2
REMARK    2  A    between atoms: C_2  and  C_3
REMARK    3  A    between atoms: C_7  and  N_8
REMARK                            x       y       z     vdW  Elec       q    Type
REMARK                         _______ _______ _______ _____ _____    ______ ____
ROOT
ATOM      1  C   UNL     1       2.105   8.704  18.134  0.00  0.00    +0.000 C 
ATOM      2  C   UNL     1       1.155   9.864  18.455  0.00  0.00    +0.000 C 
ATOM      3  C   UNL     1       1.819  11.179  18.024  0.00  0.00    +0.000 C 
ATOM      4  C   UNL     1      -0.197   9.624  17.767  0.00  0.00    +0.000 C 
ATOM      5  C   UNL     1      -1.316  10.478  18.315  0.00  0.00    +0.000 A 
ATOM      6  C   UNL     1      -1.187  11.050  19.613  0.00  0.00    +0.000 A 
ATOM      7  C   UNL     1      -2.179  11.931  20.103  0.00  0.00    +0.000 A 
ATOM      8  N   UNL     1      -3.293  12.214  19.403  0.00  0.00    +0.000 NA
ATOM      9  C   UNL     1      -3.408  11.609  18.208  0.00  0.00    +0.000 A 
ATOM     10  S   UNL     1      -4.752  11.846  17.193  0.00  0.00    +0.000 S 
ATOM     11  N   UNL     1      -4.220  10.871  15.964  0.00  0.00    +0.000 NA
ATOM     12  C   UNL     1      -3.044  10.357  16.306  0.00  0.00    +0.000 A 
ATOM     13  N   UNL     1      -2.407   9.510  15.462  0.00  0.00    +0.000 N 
ATOM     14  C   UNL     1      -2.506  10.749  17.595  0.00  0.00    +0.000 A 
ATOM     15  C   UNL     1       0.101  10.827  20.378  0.00  0.00    +0.000 C 
ATOM     16  O   UNL     1       0.964   9.811  19.866  0.00  0.00    +0.000 OA
ATOM     17  H   UNL     1      -2.957   9.190  14.673  0.00  0.00    +0.000 HD
ATOM     18  H   UNL     1      -1.798   8.790  15.828  0.00  0.00    +0.000 HD
ENDROOT
BRANCH   7  19
ATOM     19  N   UNL     1      -1.970  12.668  21.249  0.00  0.00    +0.000 N 
ATOM     20  C   UNL     1      -1.393  14.017  21.152  0.00  0.00    +0.000 C 
ATOM     21  C   UNL     1      -0.481  14.206  22.385  0.00  0.00    +0.000 C 
ATOM     22  O   UNL     1      -1.173  13.969  23.630  0.00  0.00    +0.000 OA
ATOM     23  C   UNL     1      -1.799  12.667  23.640  0.00  0.00    +0.000 C 
ATOM     24  C   UNL     1      -2.782  12.537  22.463  0.00  0.00    +0.000 C 
ENDBRANCH   7  19
TORSDOF 1
ENDMDL
MODEL 8
REMARK VINA RESULT:      -5.9      5.020      7.502
REMARK  Name = 
REMARK  3 active torsions:
REMARK  status: ('A' for Active; 'I' for Inactive)
REMARK    1  A    between atoms: C_1  and  C_2
REMARK    2  A    between atoms: C_2  and  C_3
REMARK    3  A    between atoms: C_7  and  N_8
REMARK                            x       y       z     vdW  Elec       q    Type
REMARK                         _______ _______ _______ _____ _____    ______ ____
ROOT
ATOM      1  C   UNL     1      -1.142  13.611  23.183  0.00  0.00    +0.000 C 
ATOM      2  C   UNL     1      -1.043  12.399  22.250  0.00  0.00    +0.000 C 
ATOM      3  C   UNL     1      -1.444  11.140  23.032  0.00  0.00    +0.000 C 
ATOM      4  C   UNL     1      -1.916  12.635  21.008  0.00  0.00    +0.000 C 
ATOM      5  C   UNL     1      -1.600  11.706  19.860  0.00  0.00    +0.000 A 
ATOM      6  C   UNL     1      -0.335  11.054  19.816  0.00  0.00    +0.000 A 
ATOM      7  C   UNL     1      -0.059  10.107  18.802  0.00  0.00    +0.000 A 
ATOM      8  N   UNL     1      -0.938   9.831  17.823  0.00  0.00    +0.000 NA
ATOM      9  C   UNL     1      -2.098  10.510  17.863  0.00  0.00    +0.000 A 
ATOM     10  S   UNL     1      -3.322  10.292  16.701  0.00  0.00    +0.000 S 
ATOM     11  N   UNL     1      -4.392  11.365  17.369  0.00  0.00    +0.000 NA
ATOM     12  C   UNL     1      -3.842  11.898  18.454  0.00  0.00    +0.000 A 
ATOM     13  N   UNL     1      -4.525  12.822  19.173  0.00  0.00    +0.000 N 
ATOM     14  C   UNL     1      -2.511  11.441  18.807  0.00  0.00    +0.000 A 
ATOM     15  C   UNL     1       0.633  11.272  20.961  0.00  0.00    +0.000 C 
ATOM     16  O   UNL     1       0.323  12.351  21.844  0.00  0.00    +0.000 OA
ATOM     17  H   UNL     1      -5.369  13.173  18.735  0.00  0.00    +0.000 HD
ATOM     18  H   UNL     1      -4.026  13.537  19.685  0.00  0.00    +0.000 HD
ENDROOT
BRANCH   7  19
ATOM     19  N   UNL     1       1.059   9.304  18.869  0.00  0.00    +0.000 N 
ATOM     20  C   UNL     1       2.197   9.562  17.973  0.00  0.00    +0.000 C 
ATOM     21  C   UNL     1       2.790   8.187  17.591  0.00  0.00    +0.000 C 
ATOM     22  O   UNL     1       3.141   7.393  18.745  0.00  0.00    +0.000 OA
ATOM     23  C   UNL     1       2.016   7.245  19.639  0.00  0.00    +0.000 C 
ATOM     24  C   UNL     1       1.506   8.624  20.089  0.00  0.00    +0.000 C 
ENDBRANCH   7  19
TORSDOF 1
ENDMDL
MODEL 9
REMARK VINA RESULT:      -5.9      3.524      6.574
REMARK  Name = 
REMARK  3 active torsions:
REMARK  status: ('A' for Active; 'I' for Inactive)
REMARK    1  A    between atoms: C_1  and  C_2
REMARK    2  A    between atoms: C_2  and  C_3
REMARK    3  A    between atoms: C_7  and  N_8
REMARK                            x       y       z     vdW  Elec       q    Type
REMARK                         _______ _______ _______ _____ _____    ______ ____
ROOT
ATOM      1  C   UNL     1       8.393   7.865  18.371  0.00  0.00    +0.000 C 
ATOM      2  C   UNL     1       7.218   7.087  17.767  0.00  0.00    +0.000 C 
ATOM      3  C   UNL     1       6.065   8.064  17.497  0.00  0.00    +0.000 C 
ATOM      4  C   UNL     1       7.687   6.351  16.502  0.00  0.00    +0.000 C 
ATOM      5  C   UNL     1       6.744   5.262  16.050  0.00  0.00    +0.000 A 
ATOM      6  C   UNL     1       5.817   4.710  16.979  0.00  0.00    +0.000 A 
ATOM      7  C   UNL     1       4.862   3.760  16.550  0.00  0.00    +0.000 A 
ATOM      8  N   UNL     1       4.826   3.302  15.285  0.00  0.00    +0.000 NA
ATOM      9  C   UNL     1       5.756   3.802  14.452  0.00  0.00    +0.000 A 
ATOM     10  S   UNL     1       5.862   3.330  12.821  0.00  0.00    +0.000 S 
ATOM     11  N   UNL     1       7.136   4.317  12.435  0.00  0.00    +0.000 NA
ATOM     12  C   UNL     1       7.494   4.995  13.519  0.00  0.00    +0.000 A 
ATOM     13  N   UNL     1       8.530   5.866  13.458  0.00  0.00    +0.000 N 
ATOM     14  C   UNL     1       6.729   4.752  14.728  0.00  0.00    +0.000 A 
ATOM     15  C   UNL     1       5.770   5.281  18.382  0.00  0.00    +0.000 C 
ATOM     16  O   UNL     1       6.866   6.119  18.752  0.00  0.00    +0.000 OA
ATOM     17  H   UNL     1       9.081   5.825  12.609  0.00  0.00    +0.000 HD
ATOM     18  H   UNL     1       9.095   6.042  14.279  0.00  0.00    +0.000 HD
ENDROOT
BRANCH   7  19
ATOM     19  N   UNL     1       3.818   3.384  17.368  0.00  0.00    +0.000 N 
ATOM     20  C   UNL     1       2.494   3.999  17.191  0.00  0.00    +0.000 C 
ATOM     21  C   UNL     1       1.874   4.148  18.598  0.00  0.00    +0.000 C 
ATOM     22  O   UNL     1       1.830   2.900  19.321  0.00  0.00    +0.000 OA
ATOM     23  C   UNL     1       3.138   2.289  19.390  0.00  0.00    +0.000 C 
ATOM     24  C   UNL     1       3.694   2.055  17.975  0.00  0.00    +0.000 C 
ENDBRANCH   7  19
TORSDOF 1
ENDMDL
