MODEL 1
REMARK VINA RESULT:      -7.8      0.000      0.000
REMARK  Name = 
REMARK  3 active torsions:
REMARK  status: ('A' for Active; 'I' for Inactive)
REMARK    1  A    between atoms: C_11  and  C_13
REMARK    2  A    between atoms: C_13  and  N_14
REMARK    3  A    between atoms: C_18  and  C_20
REMARK                            x       y       z     vdW  Elec       q    Type
REMARK                         _______ _______ _______ _____ _____    ______ ____
ROOT
ATOM      1  O   UNL     1      -2.836  11.053  15.971  0.00  0.00    +0.000 OA
ATOM      2  C   UNL     1      -2.466  11.203  17.135  0.00  0.00    +0.000 C 
ATOM      3  N   UNL     1      -1.135  11.016  17.401  0.00  0.00    +0.000 N 
ATOM      4  C   UNL     1      -0.579  10.724  18.647  0.00  0.00    +0.000 A 
ATOM      5  C   UNL     1       0.512   9.859  18.686  0.00  0.00    +0.000 A 
ATOM      6  C   UNL     1       1.054   9.487  19.914  0.00  0.00    +0.000 A 
ATOM      7  C   UNL     1       0.507  10.035  21.058  0.00  0.00    +0.000 A 
ATOM      8  N   UNL     1      -0.488  10.945  21.044  0.00  0.00    +0.000 NA
ATOM      9  C   UNL     1      -1.017  11.287  19.844  0.00  0.00    +0.000 A 
ATOM     10  N   UNL     1      -1.847  12.426  19.790  0.00  0.00    +0.000 N 
ATOM     11  C   UNL     1      -1.404  13.664  20.264  0.00  0.00    +0.000 C 
ATOM     12  O   UNL     1      -2.147  14.629  20.458  0.00  0.00    +0.000 OA
ATOM     13  C   UNL     1      -3.182  12.175  19.388  0.00  0.00    +0.000 A 
ATOM     14  C   UNL     1      -4.250  12.596  20.204  0.00  0.00    +0.000 A 
ATOM     15  C   UNL     1      -5.579  12.328  19.859  0.00  0.00    +0.000 A 
ATOM     16  C   UNL     1      -5.866  11.650  18.683  0.00  0.00    +0.000 A 
ATOM     17  C   UNL     1      -4.822  11.246  17.851  0.00  0.00    +0.000 A 
ATOM     18  C   UNL     1      -3.477  11.509  18.189  0.00  0.00    +0.000 A 
ATOM     19  H   UNL     1      -0.637  10.715  16.573  0.00  0.00    +0.000 HD
ENDROOT
BRANCH  11  20
ATOM     20  C   UNL     1       0.138  13.857  20.335  0.00  0.00    +0.000 C 
BRANCH  20  21
ATOM     21  N   UNL     1       0.745  14.150  19.020  0.00  0.00    +0.000 NA
ATOM     22  C   UNL     1       0.928  15.613  18.831  0.00  0.00    +0.000 C 
ATOM     23  C   UNL     1       2.116  16.255  19.593  0.00  0.00    +0.000 C 
ATOM     24  N   UNL     1       3.339  15.446  19.488  0.00  0.00    +0.000 N 
ATOM     25  C   UNL     1       4.541  16.063  19.145  0.00  0.00    +0.000 C 
ATOM     26  O   UNL     1       4.619  17.278  18.960  0.00  0.00    +0.000 OA
ATOM     27  C   UNL     1       3.116  14.034  19.813  0.00  0.00    +0.000 C 
ATOM     28  C   UNL     1       2.052  13.480  18.850  0.00  0.00    +0.000 C 
BRANCH  25  29
ATOM     29  C   UNL     1       5.805  15.277  19.044  0.00  0.00    +0.000 A 
ATOM     30  C   UNL     1       6.693  15.103  20.111  0.00  0.00    +0.000 A 
ATOM     31  C   UNL     1       7.939  14.508  19.904  0.00  0.00    +0.000 A 
ATOM     32  C   UNL     1       8.255  13.972  18.659  0.00  0.00    +0.000 A 
ATOM     33  C   UNL     1       7.319  14.014  17.627  0.00  0.00    +0.000 A 
ATOM     34  C   UNL     1       6.102  14.674  17.815  0.00  0.00    +0.000 A 
ENDBRANCH  25  29
ENDBRANCH  20  21
ENDBRANCH  11  20
TORSDOF 3
ENDMDL
MODEL 2
REMARK VINA RESULT:      -7.6      4.142      7.657
REMARK  Name = 
REMARK  3 active torsions:
REMARK  status: ('A' for Active; 'I' for Inactive)
REMARK    1  A    between atoms: C_11  and  C_13
REMARK    2  A    between atoms: C_13  and  N_14
REMARK    3  A    between atoms: C_18  and  C_20
REMARK                            x       y       z     vdW  Elec       q    Type
REMARK                         _______ _______ _______ _____ _____    ______ ____
ROOT
ATOM      1  O   UNL     1       0.245  16.094  23.568  0.00  0.00    +0.000 OA
ATOM      2  C   UNL     1      -0.180  15.144  22.912  0.00  0.00    +0.000 C 
ATOM      3  N   UNL     1       0.519  14.793  21.787  0.00  0.00    +0.000 N 
ATOM      4  C   UNL     1       0.023  14.067  20.705  0.00  0.00    +0.000 A 
ATOM      5  C   UNL     1       0.470  14.411  19.431  0.00  0.00    +0.000 A 
ATOM      6  C   UNL     1      -0.051  13.757  18.317  0.00  0.00    +0.000 A 
ATOM      7  C   UNL     1      -0.971  12.749  18.527  0.00  0.00    +0.000 A 
ATOM      8  N   UNL     1      -1.352  12.334  19.753  0.00  0.00    +0.000 NA
ATOM      9  C   UNL     1      -0.849  12.988  20.828  0.00  0.00    +0.000 A 
ATOM     10  N   UNL     1      -1.012  12.393  22.096  0.00  0.00    +0.000 N 
ATOM     11  C   UNL     1      -0.585  11.085  22.340  0.00  0.00    +0.000 C 
ATOM     12  O   UNL     1      -0.902  10.435  23.340  0.00  0.00    +0.000 OA
ATOM     13  C   UNL     1      -1.776  13.150  23.019  0.00  0.00    +0.000 A 
ATOM     14  C   UNL     1      -2.895  12.569  23.644  0.00  0.00    +0.000 A 
ATOM     15  C   UNL     1      -3.697  13.300  24.527  0.00  0.00    +0.000 A 
ATOM     16  C   UNL     1      -3.383  14.621  24.816  0.00  0.00    +0.000 A 
ATOM     17  C   UNL     1      -2.264  15.206  24.223  0.00  0.00    +0.000 A 
ATOM     18  C   UNL     1      -1.449  14.479  23.329  0.00  0.00    +0.000 A 
ATOM     19  H   UNL     1       1.288  15.431  21.624  0.00  0.00    +0.000 HD
ENDROOT
BRANCH  11  20
ATOM     20  C   UNL     1       0.513  10.534  21.385  0.00  0.00    +0.000 C 
BRANCH  20  21
ATOM     21  N   UNL     1      -0.031   9.673  20.314  0.00  0.00    +0.000 NA
ATOM     22  C   UNL     1       0.893   9.623  19.150  0.00  0.00    +0.000 C 
ATOM     23  C   UNL     1       2.150   8.731  19.317  0.00  0.00    +0.000 C 
ATOM     24  N   UNL     1       1.827   7.432  19.925  0.00  0.00    +0.000 N 
ATOM     25  C   UNL     1       2.317   6.263  19.344  0.00  0.00    +0.000 C 
ATOM     26  O   UNL     1       3.047   6.286  18.352  0.00  0.00    +0.000 OA
ATOM     27  C   UNL     1       1.022   7.558  21.143  0.00  0.00    +0.000 C 
ATOM     28  C   UNL     1      -0.281   8.294  20.784  0.00  0.00    +0.000 C 
BRANCH  25  29
ATOM     29  C   UNL     1       2.024   4.928  19.941  0.00  0.00    +0.000 A 
ATOM     30  C   UNL     1       2.448   4.543  21.218  0.00  0.00    +0.000 A 
ATOM     31  C   UNL     1       2.293   3.223  21.646  0.00  0.00    +0.000 A 
ATOM     32  C   UNL     1       1.602   2.312  20.853  0.00  0.00    +0.000 A 
ATOM     33  C   UNL     1       1.052   2.723  19.641  0.00  0.00    +0.000 A 
ATOM     34  C   UNL     1       1.270   4.024  19.180  0.00  0.00    +0.000 A 
ENDBRANCH  25  29
ENDBRANCH  20  21
ENDBRANCH  11  20
TORSDOF 3
ENDMDL
MODEL 3
REMARK VINA RESULT:      -7.1      4.646      8.587
REMARK  Name = 
REMARK  3 active torsions:
REMARK  status: ('A' for Active; 'I' for Inactive)
REMARK    1  A    between atoms: C_11  and  C_13
REMARK    2  A    between atoms: C_13  and  N_14
REMARK    3  A    between atoms: C_18  and  C_20
REMARK                            x       y       z     vdW  Elec       q    Type
REMARK                         _______ _______ _______ _____ _____    ______ ____
ROOT
ATOM      1  O   UNL     1      -1.452  12.093  18.621  0.00  0.00    +0.000 OA
ATOM      2  C   UNL     1      -1.372  12.472  19.788  0.00  0.00    +0.000 C 
ATOM      3  N   UNL     1      -1.623  13.795  20.039  0.00  0.00    +0.000 N 
ATOM      4  C   UNL     1      -1.199  14.514  21.157  0.00  0.00    +0.000 A 
ATOM      5  C   UNL     1      -0.832  15.846  20.973  0.00  0.00    +0.000 A 
ATOM      6  C   UNL     1      -0.340  16.580  22.049  0.00  0.00    +0.000 A 
ATOM      7  C   UNL     1      -0.274  15.962  23.282  0.00  0.00    +0.000 A 
ATOM      8  N   UNL     1      -0.708  14.704  23.507  0.00  0.00    +0.000 NA
ATOM      9  C   UNL     1      -1.172  13.995  22.449  0.00  0.00    +0.000 A 
ATOM     10  N   UNL     1      -1.880  12.805  22.714  0.00  0.00    +0.000 N 
ATOM     11  C   UNL     1      -2.990  12.799  23.562  0.00  0.00    +0.000 C 
ATOM     12  O   UNL     1      -3.505  11.773  24.013  0.00  0.00    +0.000 OA
ATOM     13  C   UNL     1      -1.284  11.627  22.199  0.00  0.00    +0.000 A 
ATOM     14  C   UNL     1      -1.012  10.547  23.060  0.00  0.00    +0.000 A 
ATOM     15  C   UNL     1      -0.386   9.385  22.595  0.00  0.00    +0.000 A 
ATOM     16  C   UNL     1      -0.037   9.275  21.257  0.00  0.00    +0.000 A 
ATOM     17  C   UNL     1      -0.319  10.327  20.385  0.00  0.00    +0.000 A 
ATOM     18  C   UNL     1      -0.949  11.504  20.843  0.00  0.00    +0.000 A 
ATOM     19  H   UNL     1      -1.791  14.302  19.179  0.00  0.00    +0.000 HD
ENDROOT
BRANCH  11  20
ATOM     20  C   UNL     1      -3.713  14.164  23.753  0.00  0.00    +0.000 C 
BRANCH  20  21
ATOM     21  N   UNL     1      -5.181  14.067  23.614  0.00  0.00    +0.000 NA
ATOM     22  C   UNL     1      -5.821  15.398  23.776  0.00  0.00    +0.000 C 
ATOM     23  C   UNL     1      -5.707  16.360  22.564  0.00  0.00    +0.000 C 
ATOM     24  N   UNL     1      -5.979  15.677  21.291  0.00  0.00    +0.000 N 
ATOM     25  C   UNL     1      -6.859  16.257  20.378  0.00  0.00    +0.000 C 
ATOM     26  O   UNL     1      -7.392  17.347  20.590  0.00  0.00    +0.000 OA
ATOM     27  C   UNL     1      -5.217  14.434  21.138  0.00  0.00    +0.000 C 
ATOM     28  C   UNL     1      -5.578  13.501  22.307  0.00  0.00    +0.000 C 
BRANCH  25  29
ATOM     29  C   UNL     1      -7.148  15.601  19.069  0.00  0.00    +0.000 A 
ATOM     30  C   UNL     1      -7.834  14.387  18.949  0.00  0.00    +0.000 A 
ATOM     31  C   UNL     1      -7.917  13.742  17.713  0.00  0.00    +0.000 A 
ATOM     32  C   UNL     1      -7.424  14.364  16.570  0.00  0.00    +0.000 A 
ATOM     33  C   UNL     1      -6.864  15.637  16.659  0.00  0.00    +0.000 A 
ATOM     34  C   UNL     1      -6.718  16.251  17.905  0.00  0.00    +0.000 A 
ENDBRANCH  25  29
ENDBRANCH  20  21
ENDBRANCH  11  20
TORSDOF 3
ENDMDL
MODEL 4
REMARK VINA RESULT:      -7.1      5.431      9.267
REMARK  Name = 
REMARK  3 active torsions:
REMARK  status: ('A' for Active; 'I' for Inactive)
REMARK    1  A    between atoms: C_11  and  C_13
REMARK    2  A    between atoms: C_13  and  N_14
REMARK    3  A    between atoms: C_18  and  C_20
REMARK                            x       y       z     vdW  Elec       q    Type
REMARK                         _______ _______ _______ _____ _____    ______ ____
ROOT
ATOM      1  O   UNL     1       7.018   5.102  19.808  0.00  0.00    +0.000 OA
ATOM      2  C   UNL     1       5.917   5.134  19.261  0.00  0.00    +0.000 C 
ATOM      3  N   UNL     1       4.812   5.141  20.072  0.00  0.00    +0.000 N 
ATOM      4  C   UNL     1       3.521   4.763  19.703  0.00  0.00    +0.000 A 
ATOM      5  C   UNL     1       2.741   4.103  20.651  0.00  0.00    +0.000 A 
ATOM      6  C   UNL     1       1.472   3.648  20.304  0.00  0.00    +0.000 A 
ATOM      7  C   UNL     1       1.014   3.911  19.028  0.00  0.00    +0.000 A 
ATOM      8  N   UNL     1       1.710   4.627  18.121  0.00  0.00    +0.000 NA
ATOM      9  C   UNL     1       2.950   5.051  18.466  0.00  0.00    +0.000 A 
ATOM     10  N   UNL     1       3.564   6.025  17.650  0.00  0.00    +0.000 N 
ATOM     11  C   UNL     1       2.924   7.233  17.363  0.00  0.00    +0.000 C 
ATOM     12  O   UNL     1       3.296   8.015  16.484  0.00  0.00    +0.000 OA
ATOM     13  C   UNL     1       4.768   5.612  17.028  0.00  0.00    +0.000 A 
ATOM     14  C   UNL     1       4.905   5.712  15.631  0.00  0.00    +0.000 A 
ATOM     15  C   UNL     1       6.062   5.274  14.979  0.00  0.00    +0.000 A 
ATOM     16  C   UNL     1       7.113   4.744  15.715  0.00  0.00    +0.000 A 
ATOM     17  C   UNL     1       7.004   4.659  17.103  0.00  0.00    +0.000 A 
ATOM     18  C   UNL     1       5.841   5.096  17.771  0.00  0.00    +0.000 A 
ATOM     19  H   UNL     1       5.075   5.061  21.046  0.00  0.00    +0.000 HD
ENDROOT
BRANCH  11  20
ATOM     20  C   UNL     1       1.820   7.678  18.365  0.00  0.00    +0.000 C 
BRANCH  20  21
ATOM     21  N   UNL     1       2.227   8.825  19.203  0.00  0.00    +0.000 NA
ATOM     22  C   UNL     1       2.296  10.074  18.400  0.00  0.00    +0.000 C 
ATOM     23  C   UNL     1       0.936  10.732  18.048  0.00  0.00    +0.000 C 
ATOM     24  N   UNL     1       0.028  10.772  19.203  0.00  0.00    +0.000 N 
ATOM     25  C   UNL     1      -0.627  11.961  19.519  0.00  0.00    +0.000 C 
ATOM     26  O   UNL     1      -0.496  12.977  18.835  0.00  0.00    +0.000 OA
ATOM     27  C   UNL     1      -0.096   9.474  19.875  0.00  0.00    +0.000 C 
ATOM     28  C   UNL     1       1.305   9.038  20.339  0.00  0.00    +0.000 C 
BRANCH  25  29
ATOM     29  C   UNL     1      -1.569  12.035  20.675  0.00  0.00    +0.000 A 
ATOM     30  C   UNL     1      -2.889  12.486  20.567  0.00  0.00    +0.000 A 
ATOM     31  C   UNL     1      -3.659  12.697  21.712  0.00  0.00    +0.000 A 
ATOM     32  C   UNL     1      -3.158  12.341  22.961  0.00  0.00    +0.000 A 
ATOM     33  C   UNL     1      -1.896  11.760  23.064  0.00  0.00    +0.000 A 
ATOM     34  C   UNL     1      -1.099  11.616  21.926  0.00  0.00    +0.000 A 
ENDBRANCH  25  29
ENDBRANCH  20  21
ENDBRANCH  11  20
TORSDOF 3
ENDMDL
MODEL 5
REMARK VINA RESULT:      -7.1      4.053      8.242
REMARK  Name = 
REMARK  3 active torsions:
REMARK  status: ('A' for Active; 'I' for Inactive)
REMARK    1  A    between atoms: C_11  and  C_13
REMARK    2  A    between atoms: C_13  and  N_14
REMARK    3  A    between atoms: C_18  and  C_20
REMARK                            x       y       z     vdW  Elec       q    Type
REMARK                         _______ _______ _______ _____ _____    ______ ____
ROOT
ATOM      1  O   UNL     1      -1.434  12.023  17.624  0.00  0.00    +0.000 OA
ATOM      2  C   UNL     1      -1.012  12.302  18.745  0.00  0.00    +0.000 C 
ATOM      3  N   UNL     1      -1.309  13.545  19.238  0.00  0.00    +0.000 N 
ATOM      4  C   UNL     1      -0.619  14.215  20.249  0.00  0.00    +0.000 A 
ATOM      5  C   UNL     1      -0.485  15.597  20.140  0.00  0.00    +0.000 A 
ATOM      6  C   UNL     1       0.254  16.296  21.091  0.00  0.00    +0.000 A 
ATOM      7  C   UNL     1       0.795  15.585  22.144  0.00  0.00    +0.000 A 
ATOM      8  N   UNL     1       0.603  14.262  22.324  0.00  0.00    +0.000 NA
ATOM      9  C   UNL     1      -0.105  13.590  21.383  0.00  0.00    +0.000 A 
ATOM     10  N   UNL     1      -0.548  12.289  21.697  0.00  0.00    +0.000 N 
ATOM     11  C   UNL     1      -1.304  12.041  22.846  0.00  0.00    +0.000 C 
ATOM     12  O   UNL     1      -1.522  10.913  23.294  0.00  0.00    +0.000 OA
ATOM     13  C   UNL     1      -0.032  11.264  20.866  0.00  0.00    +0.000 A 
ATOM     14  C   UNL     1       0.630  10.163  21.441  0.00  0.00    +0.000 A 
ATOM     15  C   UNL     1       1.190   9.155  20.650  0.00  0.00    +0.000 A 
ATOM     16  C   UNL     1       1.083   9.220  19.267  0.00  0.00    +0.000 A 
ATOM     17  C   UNL     1       0.411  10.293  18.681  0.00  0.00    +0.000 A 
ATOM     18  C   UNL     1      -0.157  11.316  19.469  0.00  0.00    +0.000 A 
ATOM     19  H   UNL     1      -1.810  14.098  18.554  0.00  0.00    +0.000 HD
ENDROOT
BRANCH  11  20
ATOM     20  C   UNL     1      -2.068  13.260  23.438  0.00  0.00    +0.000 C 
BRANCH  20  21
ATOM     21  N   UNL     1      -3.510  13.001  23.632  0.00  0.00    +0.000 NA
ATOM     22  C   UNL     1      -4.192  14.189  24.211  0.00  0.00    +0.000 C 
ATOM     23  C   UNL     1      -4.469  15.358  23.230  0.00  0.00    +0.000 C 
ATOM     24  N   UNL     1      -5.004  14.885  21.945  0.00  0.00    +0.000 N 
ATOM     25  C   UNL     1      -6.132  15.499  21.404  0.00  0.00    +0.000 C 
ATOM     26  O   UNL     1      -6.678  16.457  21.954  0.00  0.00    +0.000 OA
ATOM     27  C   UNL     1      -4.210  13.797  21.365  0.00  0.00    +0.000 C 
ATOM     28  C   UNL     1      -4.183  12.632  22.369  0.00  0.00    +0.000 C 
BRANCH  25  29
ATOM     29  C   UNL     1      -6.693  15.056  20.094  0.00  0.00    +0.000 A 
ATOM     30  C   UNL     1      -7.500  13.923  19.944  0.00  0.00    +0.000 A 
ATOM     31  C   UNL     1      -7.846  13.466  18.671  0.00  0.00    +0.000 A 
ATOM     32  C   UNL     1      -7.493  14.206  17.547  0.00  0.00    +0.000 A 
ATOM     33  C   UNL     1      -6.810  15.412  17.696  0.00  0.00    +0.000 A 
ATOM     34  C   UNL     1      -6.402  15.832  18.964  0.00  0.00    +0.000 A 
ENDBRANCH  25  29
ENDBRANCH  20  21
ENDBRANCH  11  20
TORSDOF 3
ENDMDL
MODEL 6
REMARK VINA RESULT:      -7.0      4.153      6.962
REMARK  Name = 
REMARK  3 active torsions:
REMARK  status: ('A' for Active; 'I' for Inactive)
REMARK    1  A    between atoms: C_11  and  C_13
REMARK    2  A    between atoms: C_13  and  N_14
REMARK    3  A    between atoms: C_18  and  C_20
REMARK                            x       y       z     vdW  Elec       q    Type
REMARK                         _______ _______ _______ _____ _____    ______ ____
ROOT
ATOM      1  O   UNL     1       0.236  15.889  23.949  0.00  0.00    +0.000 OA
ATOM      2  C   UNL     1      -0.227  15.026  23.204  0.00  0.00    +0.000 C 
ATOM      3  N   UNL     1       0.459  14.759  22.048  0.00  0.00    +0.000 N 
ATOM      4  C   UNL     1      -0.065  14.163  20.901  0.00  0.00    +0.000 A 
ATOM      5  C   UNL     1       0.396  14.612  19.666  0.00  0.00    +0.000 A 
ATOM      6  C   UNL     1      -0.149  14.092  18.495  0.00  0.00    +0.000 A 
ATOM      7  C   UNL     1      -1.109  13.106  18.608  0.00  0.00    +0.000 A 
ATOM      8  N   UNL     1      -1.508  12.588  19.788  0.00  0.00    +0.000 NA
ATOM      9  C   UNL     1      -0.980  13.113  20.920  0.00  0.00    +0.000 A 
ATOM     10  N   UNL     1      -1.168  12.404  22.124  0.00  0.00    +0.000 N 
ATOM     11  C   UNL     1      -0.794  11.062  22.238  0.00  0.00    +0.000 C 
ATOM     12  O   UNL     1      -1.138  10.330  23.169  0.00  0.00    +0.000 OA
ATOM     13  C   UNL     1      -1.902  13.097  23.119  0.00  0.00    +0.000 A 
ATOM     14  C   UNL     1      -3.044  12.503  23.688  0.00  0.00    +0.000 A 
ATOM     15  C   UNL     1      -3.817  13.175  24.641  0.00  0.00    +0.000 A 
ATOM     16  C   UNL     1      -3.451  14.448  25.057  0.00  0.00    +0.000 A 
ATOM     17  C   UNL     1      -2.308  15.043  24.520  0.00  0.00    +0.000 A 
ATOM     18  C   UNL     1      -1.522  14.374  23.558  0.00  0.00    +0.000 A 
ATOM     19  H   UNL     1       1.253  15.378  21.946  0.00  0.00    +0.000 HD
ENDROOT
BRANCH  11  20
ATOM     20  C   UNL     1       0.282  10.564  21.230  0.00  0.00    +0.000 C 
BRANCH  20  21
ATOM     21  N   UNL     1      -0.237   9.557  20.281  0.00  0.00    +0.000 NA
ATOM     22  C   UNL     1       0.116   9.913  18.881  0.00  0.00    +0.000 C 
ATOM     23  C   UNL     1       1.585   9.646  18.461  0.00  0.00    +0.000 C 
ATOM     24  N   UNL     1       2.058   8.331  18.918  0.00  0.00    +0.000 N 
ATOM     25  C   UNL     1       2.711   7.488  18.021  0.00  0.00    +0.000 C 
ATOM     26  O   UNL     1       2.939   7.826  16.858  0.00  0.00    +0.000 OA
ATOM     27  C   UNL     1       1.794   8.095  20.341  0.00  0.00    +0.000 C 
ATOM     28  C   UNL     1       0.276   8.202  20.572  0.00  0.00    +0.000 C 
BRANCH  25  29
ATOM     29  C   UNL     1       3.219   6.153  18.453  0.00  0.00    +0.000 A 
ATOM     30  C   UNL     1       2.403   5.026  18.595  0.00  0.00    +0.000 A 
ATOM     31  C   UNL     1       2.906   3.857  19.170  0.00  0.00    +0.000 A 
ATOM     32  C   UNL     1       4.257   3.767  19.491  0.00  0.00    +0.000 A 
ATOM     33  C   UNL     1       5.109   4.836  19.221  0.00  0.00    +0.000 A 
ATOM     34  C   UNL     1       4.591   6.030  18.713  0.00  0.00    +0.000 A 
ENDBRANCH  25  29
ENDBRANCH  20  21
ENDBRANCH  11  20
TORSDOF 3
ENDMDL
MODEL 7
REMARK VINA RESULT:      -7.0      4.078      8.020
REMARK  Name = 
REMARK  3 active torsions:
REMARK  status: ('A' for Active; 'I' for Inactive)
REMARK    1  A    between atoms: C_11  and  C_13
REMARK    2  A    between atoms: C_13  and  N_14
REMARK    3  A    between atoms: C_18  and  C_20
REMARK                            x       y       z     vdW  Elec       q    Type
REMARK                         _______ _______ _______ _____ _____    ______ ____
ROOT
ATOM      1  O   UNL     1      -0.973  10.247  17.675  0.00  0.00    +0.000 OA
ATOM      2  C   UNL     1      -0.647  10.789  18.731  0.00  0.00    +0.000 C 
ATOM      3  N   UNL     1      -1.087  12.069  18.943  0.00  0.00    +0.000 N 
ATOM      4  C   UNL     1      -0.524  12.996  19.822  0.00  0.00    +0.000 A 
ATOM      5  C   UNL     1      -0.509  14.334  19.434  0.00  0.00    +0.000 A 
ATOM      6  C   UNL     1       0.103  15.281  20.249  0.00  0.00    +0.000 A 
ATOM      7  C   UNL     1       0.642  14.856  21.448  0.00  0.00    +0.000 A 
ATOM      8  N   UNL     1       0.561  13.585  21.890  0.00  0.00    +0.000 NA
ATOM      9  C   UNL     1      -0.025  12.669  21.080  0.00  0.00    +0.000 A 
ATOM     10  N   UNL     1      -0.366  11.419  21.638  0.00  0.00    +0.000 N 
ATOM     11  C   UNL     1      -1.165  11.333  22.782  0.00  0.00    +0.000 C 
ATOM     12  O   UNL     1      -1.306  10.302  23.444  0.00  0.00    +0.000 OA
ATOM     13  C   UNL     1       0.292  10.306  21.059  0.00  0.00    +0.000 A 
ATOM     14  C   UNL     1       1.014   9.416  21.877  0.00  0.00    +0.000 A 
ATOM     15  C   UNL     1       1.711   8.331  21.335  0.00  0.00    +0.000 A 
ATOM     16  C   UNL     1       1.683   8.104  19.966  0.00  0.00    +0.000 A 
ATOM     17  C   UNL     1       0.954   8.963  19.143  0.00  0.00    +0.000 A 
ATOM     18  C   UNL     1       0.248  10.061  19.678  0.00  0.00    +0.000 A 
ATOM     19  H   UNL     1      -1.593  12.418  18.139  0.00  0.00    +0.000 HD
ENDROOT
BRANCH  11  20
ATOM     20  C   UNL     1      -2.071  12.563  23.077  0.00  0.00    +0.000 C 
BRANCH  20  21
ATOM     21  N   UNL     1      -3.503  12.302  22.818  0.00  0.00    +0.000 NA
ATOM     22  C   UNL     1      -4.363  13.079  23.748  0.00  0.00    +0.000 C 
ATOM     23  C   UNL     1      -4.516  14.590  23.432  0.00  0.00    +0.000 C 
ATOM     24  N   UNL     1      -4.751  14.832  22.002  0.00  0.00    +0.000 N 
ATOM     25  C   UNL     1      -5.786  15.680  21.612  0.00  0.00    +0.000 C 
ATOM     26  O   UNL     1      -6.493  16.265  22.434  0.00  0.00    +0.000 OA
ATOM     27  C   UNL     1      -3.787  14.139  21.141  0.00  0.00    +0.000 C 
ATOM     28  C   UNL     1      -3.884  12.631  21.428  0.00  0.00    +0.000 C 
BRANCH  25  29
ATOM     29  C   UNL     1      -6.045  15.963  20.169  0.00  0.00    +0.000 A 
ATOM     30  C   UNL     1      -5.643  17.140  19.529  0.00  0.00    +0.000 A 
ATOM     31  C   UNL     1      -6.069  17.418  18.229  0.00  0.00    +0.000 A 
ATOM     32  C   UNL     1      -6.793  16.467  17.517  0.00  0.00    +0.000 A 
ATOM     33  C   UNL     1      -7.077  15.232  18.097  0.00  0.00    +0.000 A 
ATOM     34  C   UNL     1      -6.713  14.983  19.423  0.00  0.00    +0.000 A 
ENDBRANCH  25  29
ENDBRANCH  20  21
ENDBRANCH  11  20
TORSDOF 3
ENDMDL
MODEL 8
REMARK VINA RESULT:      -7.0      4.185      8.294
REMARK  Name = 
REMARK  3 active torsions:
REMARK  status: ('A' for Active; 'I' for Inactive)
REMARK    1  A    between atoms: C_11  and  C_13
REMARK    2  A    between atoms: C_13  and  N_14
REMARK    3  A    between atoms: C_18  and  C_20
REMARK                            x       y       z     vdW  Elec       q    Type
REMARK                         _______ _______ _______ _____ _____    ______ ____
ROOT
ATOM      1  O   UNL     1      -1.381  11.320  17.672  0.00  0.00    +0.000 OA
ATOM      2  C   UNL     1      -1.064  11.779  18.769  0.00  0.00    +0.000 C 
ATOM      3  N   UNL     1      -1.452  13.062  19.049  0.00  0.00    +0.000 N 
ATOM      4  C   UNL     1      -0.876  13.906  20.000  0.00  0.00    +0.000 A 
ATOM      5  C   UNL     1      -0.791  15.263  19.698  0.00  0.00    +0.000 A 
ATOM      6  C   UNL     1      -0.162  16.129  20.589  0.00  0.00    +0.000 A 
ATOM      7  C   UNL     1       0.320  15.606  21.773  0.00  0.00    +0.000 A 
ATOM      8  N   UNL     1       0.170  14.314  22.130  0.00  0.00    +0.000 NA
ATOM      9  C   UNL     1      -0.431  13.479  21.249  0.00  0.00    +0.000 A 
ATOM     10  N   UNL     1      -0.843  12.214  21.716  0.00  0.00    +0.000 N 
ATOM     11  C   UNL     1      -1.679  12.093  22.829  0.00  0.00    +0.000 C 
ATOM     12  O   UNL     1      -1.885  11.031  23.421  0.00  0.00    +0.000 OA
ATOM     13  C   UNL     1      -0.218  11.109  21.086  0.00  0.00    +0.000 A 
ATOM     14  C   UNL     1       0.440  10.139  21.865  0.00  0.00    +0.000 A 
ATOM     15  C   UNL     1       1.104   9.059  21.274  0.00  0.00    +0.000 A 
ATOM     16  C   UNL     1       1.108   8.919  19.893  0.00  0.00    +0.000 A 
ATOM     17  C   UNL     1       0.442   9.859  19.107  0.00  0.00    +0.000 A 
ATOM     18  C   UNL     1      -0.230  10.954  19.692  0.00  0.00    +0.000 A 
ATOM     19  H   UNL     1      -1.918  13.483  18.256  0.00  0.00    +0.000 HD
ENDROOT
BRANCH  11  20
ATOM     20  C   UNL     1      -2.539  13.342  23.177  0.00  0.00    +0.000 C 
BRANCH  20  21
ATOM     21  N   UNL     1      -3.991  13.063  23.182  0.00  0.00    +0.000 NA
ATOM     22  C   UNL     1      -4.753  14.213  23.734  0.00  0.00    +0.000 C 
ATOM     23  C   UNL     1      -4.927  15.430  22.789  0.00  0.00    +0.000 C 
ATOM     24  N   UNL     1      -5.296  15.022  21.426  0.00  0.00    +0.000 N 
ATOM     25  C   UNL     1      -6.359  15.656  20.786  0.00  0.00    +0.000 C 
ATOM     26  O   UNL     1      -6.980  16.579  21.314  0.00  0.00    +0.000 OA
ATOM     27  C   UNL     1      -4.423  13.973  20.891  0.00  0.00    +0.000 C 
ATOM     28  C   UNL     1      -4.502  12.756  21.830  0.00  0.00    +0.000 C 
BRANCH  25  29
ATOM     29  C   UNL     1      -6.753  15.279  19.396  0.00  0.00    +0.000 A 
ATOM     30  C   UNL     1      -6.472  16.065  18.274  0.00  0.00    +0.000 A 
ATOM     31  C   UNL     1      -7.020  15.743  17.031  0.00  0.00    +0.000 A 
ATOM     32  C   UNL     1      -7.748  14.568  16.876  0.00  0.00    +0.000 A 
ATOM     33  C   UNL     1      -7.915  13.706  17.957  0.00  0.00    +0.000 A 
ATOM     34  C   UNL     1      -7.428  14.064  19.217  0.00  0.00    +0.000 A 
ENDBRANCH  25  29
ENDBRANCH  20  21
ENDBRANCH  11  20
TORSDOF 3
ENDMDL
MODEL 9
REMARK VINA RESULT:      -7.0      1.309      1.684
REMARK  Name = 
REMARK  3 active torsions:
REMARK  status: ('A' for Active; 'I' for Inactive)
REMARK    1  A    between atoms: C_11  and  C_13
REMARK    2  A    between atoms: C_13  and  N_14
REMARK    3  A    between atoms: C_18  and  C_20
REMARK                            x       y       z     vdW  Elec       q    Type
REMARK                         _______ _______ _______ _____ _____    ______ ____
ROOT
ATOM      1  O   UNL     1      -1.635   9.936  16.693  0.00  0.00    +0.000 OA
ATOM      2  C   UNL     1      -1.576  10.352  17.849  0.00  0.00    +0.000 C 
ATOM      3  N   UNL     1      -0.406  10.146  18.532  0.00  0.00    +0.000 N 
ATOM      4  C   UNL     1      -0.255  10.144  19.919  0.00  0.00    +0.000 A 
ATOM      5  C   UNL     1       0.652   9.244  20.473  0.00  0.00    +0.000 A 
ATOM      6  C   UNL     1       0.785   9.161  21.857  0.00  0.00    +0.000 A 
ATOM      7  C   UNL     1       0.032  10.019  22.634  0.00  0.00    +0.000 A 
ATOM      8  N   UNL     1      -0.785  10.962  22.122  0.00  0.00    +0.000 NA
ATOM      9  C   UNL     1      -0.917  11.022  20.774  0.00  0.00    +0.000 A 
ATOM     10  N   UNL     1      -1.533  12.165  20.223  0.00  0.00    +0.000 N 
ATOM     11  C   UNL     1      -1.066  13.449  20.516  0.00  0.00    +0.000 C 
ATOM     12  O   UNL     1      -1.690  14.481  20.260  0.00  0.00    +0.000 OA
ATOM     13  C   UNL     1      -2.731  11.914  19.510  0.00  0.00    +0.000 A 
ATOM     14  C   UNL     1      -3.910  12.601  19.856  0.00  0.00    +0.000 A 
ATOM     15  C   UNL     1      -5.120  12.347  19.203  0.00  0.00    +0.000 A 
ATOM     16  C   UNL     1      -5.171  11.413  18.177  0.00  0.00    +0.000 A 
ATOM     17  C   UNL     1      -4.008  10.739  17.806  0.00  0.00    +0.000 A 
ATOM     18  C   UNL     1      -2.781  10.986  18.459  0.00  0.00    +0.000 A 
ATOM     19  H   UNL     1       0.249   9.610  17.978  0.00  0.00    +0.000 HD
ENDROOT
BRANCH  11  20
ATOM     20  C   UNL     1       0.411  13.547  20.996  0.00  0.00    +0.000 C 
BRANCH  20  21
ATOM     21  N   UNL     1       1.388  13.271  19.921  0.00  0.00    +0.000 NA
ATOM     22  C   UNL     1       1.081  14.069  18.705  0.00  0.00    +0.000 C 
ATOM     23  C   UNL     1       1.469  15.569  18.760  0.00  0.00    +0.000 C 
ATOM     24  N   UNL     1       2.810  15.771  19.327  0.00  0.00    +0.000 N 
ATOM     25  C   UNL     1       3.715  16.602  18.668  0.00  0.00    +0.000 C 
ATOM     26  O   UNL     1       3.412  17.206  17.638  0.00  0.00    +0.000 OA
ATOM     27  C   UNL     1       3.004  15.060  20.594  0.00  0.00    +0.000 C 
ATOM     28  C   UNL     1       2.774  13.559  20.344  0.00  0.00    +0.000 C 
BRANCH  25  29
ATOM     29  C   UNL     1       5.079  16.843  19.222  0.00  0.00    +0.000 A 
ATOM     30  C   UNL     1       5.352  17.788  20.218  0.00  0.00    +0.000 A 
ATOM     31  C   UNL     1       6.671  18.087  20.565  0.00  0.00    +0.000 A 
ATOM     32  C   UNL     1       7.718  17.357  20.011  0.00  0.00    +0.000 A 
ATOM     33  C   UNL     1       7.447  16.317  19.124  0.00  0.00    +0.000 A 
ATOM     34  C   UNL     1       6.133  16.067  18.722  0.00  0.00    +0.000 A 
ENDBRANCH  25  29
ENDBRANCH  20  21
ENDBRANCH  11  20
TORSDOF 3
ENDMDL
