MODEL 1
REMARK VINA RESULT:      -8.3      0.000      0.000
REMARK  Name = 
REMARK  5 active torsions:
REMARK  status: ('A' for Active; 'I' for Inactive)
REMARK    1  A    between atoms: C_1  and  O_2
REMARK    2  A    between atoms: O_2  and  C_3
REMARK    3  A    between atoms: C_6  and  C_7
REMARK    4  A    between atoms: N_14  and  C_15
REMARK    5  A    between atoms: C_15  and  C_16
REMARK                            x       y       z     vdW  Elec       q    Type
REMARK                         _______ _______ _______ _____ _____    ______ ____
ROOT
ATOM      1  C   UNL     1       2.151   5.322  20.018  0.00  0.00    +0.000 A 
ATOM      2  C   UNL     1       1.149   4.540  20.474  0.00  0.00    +0.000 A 
ATOM      3  C   UNL     1       1.393   3.125  20.701  0.00  0.00    +0.000 A 
ATOM      4  C   UNL     1       2.595   2.569  20.448  0.00  0.00    +0.000 A 
ATOM      5  C   UNL     1       3.655   3.375  19.946  0.00  0.00    +0.000 A 
ATOM      6  N   UNL     1       4.886   3.093  19.586  0.00  0.00    +0.000 NA
ATOM      7  C   UNL     1       5.384   4.302  19.215  0.00  0.00    +0.000 A 
ATOM      8  N   UNL     1       6.654   4.368  18.788  0.00  0.00    +0.000 N 
ATOM      9  N   UNL     1       4.545   5.329  19.335  0.00  0.00    +0.000 NA
ATOM     10  N   UNL     1       3.406   4.740  19.766  0.00  0.00    +0.000 N 
ATOM     11  H   UNL     1       7.194   3.513  18.847  0.00  0.00    +0.000 HD
ENDROOT
BRANCH   1  15
ATOM     12  C   UNL     1       1.439   9.495  19.388  0.00  0.00    +0.000 A 
ATOM     13  C   UNL     1       1.171   8.908  20.627  0.00  0.00    +0.000 A 
ATOM     14  C   UNL     1       1.416   7.549  20.838  0.00  0.00    +0.000 A 
ATOM     15  C   UNL     1       1.915   6.757  19.799  0.00  0.00    +0.000 A 
ATOM     16  C   UNL     1       2.171   7.342  18.554  0.00  0.00    +0.000 A 
ATOM     17  C   UNL     1       1.934   8.707  18.348  0.00  0.00    +0.000 A 
BRANCH  12  19
ATOM     18  C   UNL     1       0.523  11.397  20.451  0.00  0.00    +0.000 C 
ATOM     19  O   UNL     1       1.143  10.826  19.304  0.00  0.00    +0.000 OA
ENDBRANCH  12  19
ENDBRANCH   1  15
BRANCH   8  20
ATOM     20  C   UNL     1       7.385   5.604  18.960  0.00  0.00    +0.000 C 
BRANCH  20  21
ATOM     21  C   UNL     1       7.500   6.312  17.643  0.00  0.00    +0.000 C 
ATOM     22  C   UNL     1       6.400   7.226  17.165  0.00  0.00    +0.000 C 
ATOM     23  C   UNL     1       7.721   7.806  17.584  0.00  0.00    +0.000 C 
ENDBRANCH  20  21
ENDBRANCH   8  20
TORSDOF 4
ENDMDL
MODEL 2
REMARK VINA RESULT:      -8.2      0.149      1.040
REMARK  Name = 
REMARK  5 active torsions:
REMARK  status: ('A' for Active; 'I' for Inactive)
REMARK    1  A    between atoms: C_1  and  O_2
REMARK    2  A    between atoms: O_2  and  C_3
REMARK    3  A    between atoms: C_6  and  C_7
REMARK    4  A    between atoms: N_14  and  C_15
REMARK    5  A    between atoms: C_15  and  C_16
REMARK                            x       y       z     vdW  Elec       q    Type
REMARK                         _______ _______ _______ _____ _____    ______ ____
ROOT
ATOM      1  C   UNL     1       2.138   5.299  20.001  0.00  0.00    +0.000 A 
ATOM      2  C   UNL     1       1.139   4.516  20.464  0.00  0.00    +0.000 A 
ATOM      3  C   UNL     1       1.391   3.105  20.705  0.00  0.00    +0.000 A 
ATOM      4  C   UNL     1       2.596   2.553  20.459  0.00  0.00    +0.000 A 
ATOM      5  C   UNL     1       3.652   3.359  19.951  0.00  0.00    +0.000 A 
ATOM      6  N   UNL     1       4.886   3.080  19.595  0.00  0.00    +0.000 NA
ATOM      7  C   UNL     1       5.378   4.288  19.212  0.00  0.00    +0.000 A 
ATOM      8  N   UNL     1       6.647   4.356  18.786  0.00  0.00    +0.000 N 
ATOM      9  N   UNL     1       4.533   5.311  19.321  0.00  0.00    +0.000 NA
ATOM     10  N   UNL     1       3.397   4.721  19.757  0.00  0.00    +0.000 N 
ATOM     11  H   UNL     1       7.192   3.505  18.854  0.00  0.00    +0.000 HD
ENDROOT
BRANCH   1  15
ATOM     12  C   UNL     1       1.457   9.468  19.319  0.00  0.00    +0.000 A 
ATOM     13  C   UNL     1       1.959   8.655  18.300  0.00  0.00    +0.000 A 
ATOM     14  C   UNL     1       2.169   7.291  18.517  0.00  0.00    +0.000 A 
ATOM     15  C   UNL     1       1.895   6.730  19.769  0.00  0.00    +0.000 A 
ATOM     16  C   UNL     1       1.406   7.548  20.793  0.00  0.00    +0.000 A 
ATOM     17  C   UNL     1       1.186   8.913  20.570  0.00  0.00    +0.000 A 
BRANCH  12  19
ATOM     18  C   UNL     1       0.591  11.585  19.916  0.00  0.00    +0.000 C 
ATOM     19  O   UNL     1       1.311  10.785  18.985  0.00  0.00    +0.000 OA
ENDBRANCH  12  19
ENDBRANCH   1  15
BRANCH   8  20
ATOM     20  C   UNL     1       7.372   5.597  18.947  0.00  0.00    +0.000 C 
BRANCH  20  21
ATOM     21  C   UNL     1       7.477   6.298  17.625  0.00  0.00    +0.000 C 
ATOM     22  C   UNL     1       6.377   7.216  17.154  0.00  0.00    +0.000 C 
ATOM     23  C   UNL     1       7.706   7.790  17.555  0.00  0.00    +0.000 C 
ENDBRANCH  20  21
ENDBRANCH   8  20
TORSDOF 4
ENDMDL
MODEL 3
REMARK VINA RESULT:      -7.7      2.836      6.112
REMARK  Name = 
REMARK  5 active torsions:
REMARK  status: ('A' for Active; 'I' for Inactive)
REMARK    1  A    between atoms: C_1  and  O_2
REMARK    2  A    between atoms: O_2  and  C_3
REMARK    3  A    between atoms: C_6  and  C_7
REMARK    4  A    between atoms: N_14  and  C_15
REMARK    5  A    between atoms: C_15  and  C_16
REMARK                            x       y       z     vdW  Elec       q    Type
REMARK                         _______ _______ _______ _____ _____    ______ ____
ROOT
ATOM      1  C   UNL     1       3.948   4.314  19.116  0.00  0.00    +0.000 A 
ATOM      2  C   UNL     1       3.866   3.092  19.686  0.00  0.00    +0.000 A 
ATOM      3  C   UNL     1       2.880   2.854  20.726  0.00  0.00    +0.000 A 
ATOM      4  C   UNL     1       2.054   3.831  21.150  0.00  0.00    +0.000 A 
ATOM      5  C   UNL     1       2.141   5.129  20.575  0.00  0.00    +0.000 A 
ATOM      6  N   UNL     1       1.501   6.250  20.819  0.00  0.00    +0.000 NA
ATOM      7  C   UNL     1       2.038   7.115  19.919  0.00  0.00    +0.000 A 
ATOM      8  N   UNL     1       1.589   8.379  19.898  0.00  0.00    +0.000 N 
ATOM      9  N   UNL     1       2.966   6.602  19.114  0.00  0.00    +0.000 NA
ATOM     10  N   UNL     1       3.076   5.327  19.554  0.00  0.00    +0.000 N 
ATOM     11  H   UNL     1       0.809   8.590  20.510  0.00  0.00    +0.000 HD
ENDROOT
BRANCH   1  15
ATOM     12  C   UNL     1       6.812   5.003  16.012  0.00  0.00    +0.000 A 
ATOM     13  C   UNL     1       5.465   4.797  15.703  0.00  0.00    +0.000 A 
ATOM     14  C   UNL     1       4.527   4.587  16.715  0.00  0.00    +0.000 A 
ATOM     15  C   UNL     1       4.933   4.559  18.053  0.00  0.00    +0.000 A 
ATOM     16  C   UNL     1       6.285   4.751  18.362  0.00  0.00    +0.000 A 
ATOM     17  C   UNL     1       7.222   4.973  17.345  0.00  0.00    +0.000 A 
BRANCH  12  19
ATOM     18  C   UNL     1       7.113   4.747  13.681  0.00  0.00    +0.000 C 
ATOM     19  O   UNL     1       7.630   5.184  14.932  0.00  0.00    +0.000 OA
ENDBRANCH  12  19
ENDBRANCH   1  15
BRANCH   8  20
ATOM     20  C   UNL     1       1.655   9.124  18.661  0.00  0.00    +0.000 C 
BRANCH  20  21
ATOM     21  C   UNL     1       0.397   9.921  18.481  0.00  0.00    +0.000 C 
ATOM     22  C   UNL     1      -0.372  10.420  19.679  0.00  0.00    +0.000 C 
ATOM     23  C   UNL     1       0.364  11.397  18.805  0.00  0.00    +0.000 C 
ENDBRANCH  20  21
ENDBRANCH   8  20
TORSDOF 4
ENDMDL
MODEL 4
REMARK VINA RESULT:      -7.7      2.872      6.084
REMARK  Name = 
REMARK  5 active torsions:
REMARK  status: ('A' for Active; 'I' for Inactive)
REMARK    1  A    between atoms: C_1  and  O_2
REMARK    2  A    between atoms: O_2  and  C_3
REMARK    3  A    between atoms: C_6  and  C_7
REMARK    4  A    between atoms: N_14  and  C_15
REMARK    5  A    between atoms: C_15  and  C_16
REMARK                            x       y       z     vdW  Elec       q    Type
REMARK                         _______ _______ _______ _____ _____    ______ ____
ROOT
ATOM      1  C   UNL     1       4.030   4.153  19.028  0.00  0.00    +0.000 A 
ATOM      2  C   UNL     1       3.969   2.941  19.621  0.00  0.00    +0.000 A 
ATOM      3  C   UNL     1       3.024   2.721  20.703  0.00  0.00    +0.000 A 
ATOM      4  C   UNL     1       2.217   3.707  21.144  0.00  0.00    +0.000 A 
ATOM      5  C   UNL     1       2.284   4.996  20.545  0.00  0.00    +0.000 A 
ATOM      6  N   UNL     1       1.656   6.122  20.797  0.00  0.00    +0.000 NA
ATOM      7  C   UNL     1       2.158   6.972  19.862  0.00  0.00    +0.000 A 
ATOM      8  N   UNL     1       1.711   8.236  19.839  0.00  0.00    +0.000 N 
ATOM      9  N   UNL     1       3.052   6.443  19.029  0.00  0.00    +0.000 NA
ATOM     10  N   UNL     1       3.178   5.176  19.484  0.00  0.00    +0.000 N 
ATOM     11  H   UNL     1       0.957   8.459  20.478  0.00  0.00    +0.000 HD
ENDROOT
BRANCH   1  15
ATOM     12  C   UNL     1       6.778   4.836  15.821  0.00  0.00    +0.000 A 
ATOM     13  C   UNL     1       7.176   5.019  17.147  0.00  0.00    +0.000 A 
ATOM     14  C   UNL     1       6.284   4.782  18.196  0.00  0.00    +0.000 A 
ATOM     15  C   UNL     1       4.973   4.379  17.924  0.00  0.00    +0.000 A 
ATOM     16  C   UNL     1       4.570   4.210  16.594  0.00  0.00    +0.000 A 
ATOM     17  C   UNL     1       5.470   4.437  15.544  0.00  0.00    +0.000 A 
BRANCH  12  19
ATOM     18  C   UNL     1       7.356   4.924  13.530  0.00  0.00    +0.000 C 
ATOM     19  O   UNL     1       7.738   5.114  14.887  0.00  0.00    +0.000 OA
ENDBRANCH  12  19
ENDBRANCH   1  15
BRANCH   8  20
ATOM     20  C   UNL     1       1.729   8.961  18.588  0.00  0.00    +0.000 C 
BRANCH  20  21
ATOM     21  C   UNL     1       0.478   9.778  18.457  0.00  0.00    +0.000 C 
ATOM     22  C   UNL     1      -0.235  10.290  19.684  0.00  0.00    +0.000 C 
ATOM     23  C   UNL     1       0.480  11.254  18.779  0.00  0.00    +0.000 C 
ENDBRANCH  20  21
ENDBRANCH   8  20
TORSDOF 4
ENDMDL
MODEL 5
REMARK VINA RESULT:      -7.7      0.925      1.493
REMARK  Name = 
REMARK  5 active torsions:
REMARK  status: ('A' for Active; 'I' for Inactive)
REMARK    1  A    between atoms: C_1  and  O_2
REMARK    2  A    between atoms: O_2  and  C_3
REMARK    3  A    between atoms: C_6  and  C_7
REMARK    4  A    between atoms: N_14  and  C_15
REMARK    5  A    between atoms: C_15  and  C_16
REMARK                            x       y       z     vdW  Elec       q    Type
REMARK                         _______ _______ _______ _____ _____    ______ ____
ROOT
ATOM      1  C   UNL     1       2.279   5.358  20.064  0.00  0.00    +0.000 A 
ATOM      2  C   UNL     1       1.371   4.693  20.811  0.00  0.00    +0.000 A 
ATOM      3  C   UNL     1       1.650   3.329  21.226  0.00  0.00    +0.000 A 
ATOM      4  C   UNL     1       2.787   2.702  20.867  0.00  0.00    +0.000 A 
ATOM      5  C   UNL     1       3.744   3.380  20.062  0.00  0.00    +0.000 A 
ATOM      6  N   UNL     1       4.893   3.005  19.546  0.00  0.00    +0.000 NA
ATOM      7  C   UNL     1       5.320   4.120  18.897  0.00  0.00    +0.000 A 
ATOM      8  N   UNL     1       6.495   4.076  18.252  0.00  0.00    +0.000 N 
ATOM      9  N   UNL     1       4.516   5.178  18.986  0.00  0.00    +0.000 NA
ATOM     10  N   UNL     1       3.470   4.704  19.700  0.00  0.00    +0.000 N 
ATOM     11  H   UNL     1       7.036   3.226  18.360  0.00  0.00    +0.000 HD
ENDROOT
BRANCH   1  15
ATOM     12  C   UNL     1       1.524   9.394  18.859  0.00  0.00    +0.000 A 
ATOM     13  C   UNL     1       2.023   8.462  17.946  0.00  0.00    +0.000 A 
ATOM     14  C   UNL     1       2.257   7.141  18.334  0.00  0.00    +0.000 A 
ATOM     15  C   UNL     1       2.011   6.744  19.652  0.00  0.00    +0.000 A 
ATOM     16  C   UNL     1       1.524   7.681  20.570  0.00  0.00    +0.000 A 
ATOM     17  C   UNL     1       1.281   9.003  20.176  0.00  0.00    +0.000 A 
BRANCH  12  19
ATOM     18  C   UNL     1       0.224  11.369  18.852  0.00  0.00    +0.000 C 
ATOM     19  O   UNL     1       1.353  10.655  18.360  0.00  0.00    +0.000 OA
ENDBRANCH  12  19
ENDBRANCH   1  15
BRANCH   8  20
ATOM     20  C   UNL     1       7.247   5.300  18.086  0.00  0.00    +0.000 C 
BRANCH  20  21
ATOM     21  C   UNL     1       7.259   5.695  16.639  0.00  0.00    +0.000 C 
ATOM     22  C   UNL     1       6.699   4.769  15.587  0.00  0.00    +0.000 C 
ATOM     23  C   UNL     1       5.975   6.043  15.921  0.00  0.00    +0.000 C 
ENDBRANCH  20  21
ENDBRANCH   8  20
TORSDOF 4
ENDMDL
MODEL 6
REMARK VINA RESULT:      -7.5      2.794      6.055
REMARK  Name = 
REMARK  5 active torsions:
REMARK  status: ('A' for Active; 'I' for Inactive)
REMARK    1  A    between atoms: C_1  and  O_2
REMARK    2  A    between atoms: O_2  and  C_3
REMARK    3  A    between atoms: C_6  and  C_7
REMARK    4  A    between atoms: N_14  and  C_15
REMARK    5  A    between atoms: C_15  and  C_16
REMARK                            x       y       z     vdW  Elec       q    Type
REMARK                         _______ _______ _______ _____ _____    ______ ____
ROOT
ATOM      1  C   UNL     1       3.571   3.530  18.447  0.00  0.00    +0.000 A 
ATOM      2  C   UNL     1       3.307   2.206  18.454  0.00  0.00    +0.000 A 
ATOM      3  C   UNL     1       2.225   1.697  19.280  0.00  0.00    +0.000 A 
ATOM      4  C   UNL     1       1.488   2.516  20.057  0.00  0.00    +0.000 A 
ATOM      5  C   UNL     1       1.768   3.911  20.079  0.00  0.00    +0.000 A 
ATOM      6  N   UNL     1       1.246   4.908  20.756  0.00  0.00    +0.000 NA
ATOM      7  C   UNL     1       1.945   5.985  20.309  0.00  0.00    +0.000 A 
ATOM      8  N   UNL     1       1.648   7.194  20.809  0.00  0.00    +0.000 N 
ATOM      9  N   UNL     1       2.864   5.727  19.381  0.00  0.00    +0.000 NA
ATOM     10  N   UNL     1       2.793   4.382  19.251  0.00  0.00    +0.000 N 
ATOM     11  H   UNL     1       0.855   7.239  21.438  0.00  0.00    +0.000 HD
ENDROOT
BRANCH   1  15
ATOM     12  C   UNL     1       6.726   5.031  15.976  0.00  0.00    +0.000 A 
ATOM     13  C   UNL     1       5.495   4.678  15.419  0.00  0.00    +0.000 A 
ATOM     14  C   UNL     1       4.459   4.202  16.226  0.00  0.00    +0.000 A 
ATOM     15  C   UNL     1       4.655   4.053  17.603  0.00  0.00    +0.000 A 
ATOM     16  C   UNL     1       5.894   4.393  18.159  0.00  0.00    +0.000 A 
ATOM     17  C   UNL     1       6.927   4.881  17.349  0.00  0.00    +0.000 A 
BRANCH  12  19
ATOM     18  C   UNL     1       7.460   5.069  13.728  0.00  0.00    +0.000 C 
ATOM     19  O   UNL     1       7.660   5.469  15.079  0.00  0.00    +0.000 OA
ENDBRANCH  12  19
ENDBRANCH   1  15
BRANCH   8  20
ATOM     20  C   UNL     1       1.892   8.365  19.997  0.00  0.00    +0.000 C 
BRANCH  20  21
ATOM     21  C   UNL     1       0.709   9.284  20.066  0.00  0.00    +0.000 C 
ATOM     22  C   UNL     1      -0.033   9.484  21.364  0.00  0.00    +0.000 C 
ATOM     23  C   UNL     1       0.795  10.603  20.798  0.00  0.00    +0.000 C 
ENDBRANCH  20  21
ENDBRANCH   8  20
TORSDOF 4
ENDMDL
MODEL 7
REMARK VINA RESULT:      -7.5      2.441      5.719
REMARK  Name = 
REMARK  5 active torsions:
REMARK  status: ('A' for Active; 'I' for Inactive)
REMARK    1  A    between atoms: C_1  and  O_2
REMARK    2  A    between atoms: O_2  and  C_3
REMARK    3  A    between atoms: C_6  and  C_7
REMARK    4  A    between atoms: N_14  and  C_15
REMARK    5  A    between atoms: C_15  and  C_16
REMARK                            x       y       z     vdW  Elec       q    Type
REMARK                         _______ _______ _______ _____ _____    ______ ____
ROOT
ATOM      1  C   UNL     1       3.782   4.136  18.363  0.00  0.00    +0.000 A 
ATOM      2  C   UNL     1       3.707   2.864  17.916  0.00  0.00    +0.000 A 
ATOM      3  C   UNL     1       2.609   2.017  18.351  0.00  0.00    +0.000 A 
ATOM      4  C   UNL     1       1.670   2.466  19.207  0.00  0.00    +0.000 A 
ATOM      5  C   UNL     1       1.747   3.797  19.705  0.00  0.00    +0.000 A 
ATOM      6  N   UNL     1       1.006   4.466  20.559  0.00  0.00    +0.000 NA
ATOM      7  C   UNL     1       1.598   5.689  20.591  0.00  0.00    +0.000 A 
ATOM      8  N   UNL     1       1.073   6.636  21.382  0.00  0.00    +0.000 N 
ATOM      9  N   UNL     1       2.658   5.833  19.797  0.00  0.00    +0.000 NA
ATOM     10  N   UNL     1       2.794   4.604  19.248  0.00  0.00    +0.000 N 
ATOM     11  H   UNL     1       0.206   6.400  21.852  0.00  0.00    +0.000 HD
ENDROOT
BRANCH   1  15
ATOM     12  C   UNL     1       6.980   6.676  17.085  0.00  0.00    +0.000 A 
ATOM     13  C   UNL     1       7.027   6.049  18.332  0.00  0.00    +0.000 A 
ATOM     14  C   UNL     1       5.991   5.208  18.745  0.00  0.00    +0.000 A 
ATOM     15  C   UNL     1       4.882   5.003  17.917  0.00  0.00    +0.000 A 
ATOM     16  C   UNL     1       4.828   5.643  16.673  0.00  0.00    +0.000 A 
ATOM     17  C   UNL     1       5.874   6.477  16.257  0.00  0.00    +0.000 A 
BRANCH  12  19
ATOM     18  C   UNL     1       8.209   8.614  17.654  0.00  0.00    +0.000 C 
ATOM     19  O   UNL     1       8.046   7.484  16.805  0.00  0.00    +0.000 OA
ENDBRANCH  12  19
ENDBRANCH   1  15
BRANCH   8  20
ATOM     20  C   UNL     1       1.253   8.025  21.024  0.00  0.00    +0.000 C 
BRANCH  20  21
ATOM     21  C   UNL     1       0.053   8.818  21.450  0.00  0.00    +0.000 C 
ATOM     22  C   UNL     1      -0.032   9.391  22.843  0.00  0.00    +0.000 C 
ATOM     23  C   UNL     1       0.149  10.310  21.667  0.00  0.00    +0.000 C 
ENDBRANCH  20  21
ENDBRANCH   8  20
TORSDOF 4
ENDMDL
MODEL 8
REMARK VINA RESULT:      -7.4      1.968      2.076
REMARK  Name = 
REMARK  5 active torsions:
REMARK  status: ('A' for Active; 'I' for Inactive)
REMARK    1  A    between atoms: C_1  and  O_2
REMARK    2  A    between atoms: O_2  and  C_3
REMARK    3  A    between atoms: C_6  and  C_7
REMARK    4  A    between atoms: N_14  and  C_15
REMARK    5  A    between atoms: C_15  and  C_16
REMARK                            x       y       z     vdW  Elec       q    Type
REMARK                         _______ _______ _______ _____ _____    ______ ____
ROOT
ATOM      1  C   UNL     1       2.371   5.450  19.965  0.00  0.00    +0.000 A 
ATOM      2  C   UNL     1       1.807   4.983  21.100  0.00  0.00    +0.000 A 
ATOM      3  C   UNL     1       2.078   3.619  21.524  0.00  0.00    +0.000 A 
ATOM      4  C   UNL     1       2.866   2.800  20.799  0.00  0.00    +0.000 A 
ATOM      5  C   UNL     1       3.450   3.270  19.590  0.00  0.00    +0.000 A 
ATOM      6  N   UNL     1       4.209   2.687  18.689  0.00  0.00    +0.000 NA
ATOM      7  C   UNL     1       4.438   3.680  17.789  0.00  0.00    +0.000 A 
ATOM      8  N   UNL     1       5.203   3.412  16.720  0.00  0.00    +0.000 N 
ATOM      9  N   UNL     1       3.881   4.855  18.077  0.00  0.00    +0.000 NA
ATOM     10  N   UNL     1       3.201   4.595  19.218  0.00  0.00    +0.000 N 
ATOM     11  H   UNL     1       5.634   2.495  16.694  0.00  0.00    +0.000 HD
ENDROOT
BRANCH   1  15
ATOM     12  C   UNL     1       1.595   9.472  18.726  0.00  0.00    +0.000 A 
ATOM     13  C   UNL     1       1.310   9.063  20.031  0.00  0.00    +0.000 A 
ATOM     14  C   UNL     1       1.576   7.755  20.441  0.00  0.00    +0.000 A 
ATOM     15  C   UNL     1       2.113   6.833  19.538  0.00  0.00    +0.000 A 
ATOM     16  C   UNL     1       2.386   7.238  18.226  0.00  0.00    +0.000 A 
ATOM     17  C   UNL     1       2.128   8.554  17.821  0.00  0.00    +0.000 A 
BRANCH  12  19
ATOM     18  C   UNL     1       0.115  11.279  19.094  0.00  0.00    +0.000 C 
ATOM     19  O   UNL     1       1.275  10.771  18.446  0.00  0.00    +0.000 OA
ENDBRANCH  12  19
ENDBRANCH   1  15
BRANCH   8  20
ATOM     20  C   UNL     1       5.944   4.490  16.104  0.00  0.00    +0.000 C 
BRANCH  20  21
ATOM     21  C   UNL     1       6.673   3.978  14.897  0.00  0.00    +0.000 C 
ATOM     22  C   UNL     1       5.977   3.890  13.561  0.00  0.00    +0.000 C 
ATOM     23  C   UNL     1       7.059   4.911  13.773  0.00  0.00    +0.000 C 
ENDBRANCH  20  21
ENDBRANCH   8  20
TORSDOF 4
ENDMDL
MODEL 9
REMARK VINA RESULT:      -7.4      2.415      5.776
REMARK  Name = 
REMARK  5 active torsions:
REMARK  status: ('A' for Active; 'I' for Inactive)
REMARK    1  A    between atoms: C_1  and  O_2
REMARK    2  A    between atoms: O_2  and  C_3
REMARK    3  A    between atoms: C_6  and  C_7
REMARK    4  A    between atoms: N_14  and  C_15
REMARK    5  A    between atoms: C_15  and  C_16
REMARK                            x       y       z     vdW  Elec       q    Type
REMARK                         _______ _______ _______ _____ _____    ______ ____
ROOT
ATOM      1  C   UNL     1       3.997   4.374  18.429  0.00  0.00    +0.000 A 
ATOM      2  C   UNL     1       4.003   3.127  17.908  0.00  0.00    +0.000 A 
ATOM      3  C   UNL     1       2.901   2.226  18.199  0.00  0.00    +0.000 A 
ATOM      4  C   UNL     1       1.879   2.598  18.995  0.00  0.00    +0.000 A 
ATOM      5  C   UNL     1       1.868   3.899  19.569  0.00  0.00    +0.000 A 
ATOM      6  N   UNL     1       1.035   4.496  20.392  0.00  0.00    +0.000 NA
ATOM      7  C   UNL     1       1.582   5.732  20.542  0.00  0.00    +0.000 A 
ATOM      8  N   UNL     1       0.959   6.616  21.336  0.00  0.00    +0.000 N 
ATOM      9  N   UNL     1       2.699   5.952  19.852  0.00  0.00    +0.000 NA
ATOM     10  N   UNL     1       2.922   4.761  19.250  0.00  0.00    +0.000 N 
ATOM     11  H   UNL     1       0.064   6.328  21.715  0.00  0.00    +0.000 HD
ENDROOT
BRANCH   1  15
ATOM     12  C   UNL     1       7.211   7.050  17.527  0.00  0.00    +0.000 A 
ATOM     13  C   UNL     1       6.006   7.126  16.825  0.00  0.00    +0.000 A 
ATOM     14  C   UNL     1       4.951   6.263  17.128  0.00  0.00    +0.000 A 
ATOM     15  C   UNL     1       5.101   5.296  18.128  0.00  0.00    +0.000 A 
ATOM     16  C   UNL     1       6.313   5.211  18.822  0.00  0.00    +0.000 A 
ATOM     17  C   UNL     1       7.366   6.086  18.523  0.00  0.00    +0.000 A 
BRANCH  12  19
ATOM     18  C   UNL     1       8.283   9.123  17.909  0.00  0.00    +0.000 C 
ATOM     19  O   UNL     1       8.169   7.940  17.127  0.00  0.00    +0.000 OA
ENDBRANCH  12  19
ENDBRANCH   1  15
BRANCH   8  20
ATOM     20  C   UNL     1       1.122   8.028  21.072  0.00  0.00    +0.000 C 
BRANCH  20  21
ATOM     21  C   UNL     1      -0.053   8.784  21.616  0.00  0.00    +0.000 C 
ATOM     22  C   UNL     1       0.006   9.409  22.987  0.00  0.00    +0.000 C 
ATOM     23  C   UNL     1      -0.003  10.287  21.767  0.00  0.00    +0.000 C 
ENDBRANCH  20  21
ENDBRANCH   8  20
TORSDOF 4
ENDMDL
