MODEL 1
REMARK VINA RESULT:      -8.8      0.000      0.000
REMARK  Name = 
REMARK  4 active torsions:
REMARK  status: ('A' for Active; 'I' for Inactive)
REMARK    1  A    between atoms: C_1  and  C_2
REMARK    2  A    between atoms: C_2  and  N_3
REMARK    3  A    between atoms: N_12  and  C_13
REMARK    4  A    between atoms: C_23  and  C_24
REMARK                            x       y       z     vdW  Elec       q    Type
REMARK                         _______ _______ _______ _____ _____    ______ ____
ROOT
ATOM      1  N   UNL     1      -1.666  14.612  22.965  0.00  0.00    +0.000 N 
ATOM      2  C   UNL     1      -2.051  14.340  21.682  0.00  0.00    +0.000 A 
ATOM      3  C   UNL     1      -1.486  13.127  21.426  0.00  0.00    +0.000 A 
ATOM      4  C   UNL     1      -0.794  12.735  22.571  0.00  0.00    +0.000 A 
ATOM      5  N   UNL     1      -0.101  11.497  22.683  0.00  0.00    +0.000 NA
ATOM      6  C   UNL     1      -0.168  10.726  21.622  0.00  0.00    +0.000 A 
ATOM      7  N   UNL     1       0.494   9.502  21.621  0.00  0.00    +0.000 N 
ATOM      8  C   UNL     1       1.130   8.916  20.531  0.00  0.00    +0.000 C 
ATOM      9  O   UNL     1       1.407   9.536  19.512  0.00  0.00    +0.000 OA
ATOM     10  N   UNL     1       1.469   7.589  20.779  0.00  0.00    +0.000 N 
ATOM     11  N   UNL     1      -0.912  11.029  20.451  0.00  0.00    +0.000 N 
ATOM     12  N   UNL     1      -1.291  10.197  19.453  0.00  0.00    +0.000 NA
ATOM     13  C   UNL     1      -1.949  11.051  18.643  0.00  0.00    +0.000 A 
ATOM     14  N   UNL     1      -2.152  12.311  19.154  0.00  0.00    +0.000 NA
ATOM     15  C   UNL     1      -1.544  12.229  20.301  0.00  0.00    +0.000 A 
ATOM     16  N   UNL     1      -0.887  13.648  23.533  0.00  0.00    +0.000 NA
ATOM     17  H   UNL     1       0.950   9.306  22.502  0.00  0.00    +0.000 HD
ATOM     18  H   UNL     1       0.913   7.122  21.482  0.00  0.00    +0.000 HD
ENDROOT
BRANCH  10  19
ATOM     19  C   UNL     1       2.149   6.762  19.848  0.00  0.00    +0.000 A 
ATOM     20  C   UNL     1       2.748   7.265  18.690  0.00  0.00    +0.000 A 
ATOM     21  C   UNL     1       3.375   6.408  17.777  0.00  0.00    +0.000 A 
ATOM     22  C   UNL     1       3.402   5.033  18.008  0.00  0.00    +0.000 A 
ATOM     23 CL   UNL     1       4.161   4.028  16.826  0.00  0.00    +0.000 Cl
ATOM     24  C   UNL     1       2.817   4.520  19.170  0.00  0.00    +0.000 A 
ATOM     25 CL   UNL     1       2.775   2.824  19.511  0.00  0.00    +0.000 Cl
ATOM     26  C   UNL     1       2.216   5.386  20.098  0.00  0.00    +0.000 A 
ENDBRANCH  10  19
BRANCH  13  27
ATOM     27  C   UNL     1      -2.473  10.687  17.299  0.00  0.00    +0.000 A 
ATOM     28  C   UNL     1      -3.598  11.204  16.690  0.00  0.00    +0.000 A 
ATOM     29  C   UNL     1      -3.707  10.568  15.429  0.00  0.00    +0.000 A 
ATOM     30  C   UNL     1      -2.653   9.690  15.353  0.00  0.00    +0.000 A 
ATOM     31  O   UNL     1      -1.893   9.762  16.473  0.00  0.00    +0.000 OA
ENDBRANCH  13  27
BRANCH   1  33
ATOM     32  C   UNL     1      -2.822  15.416  24.994  0.00  0.00    +0.000 C 
ATOM     33  C   UNL     1      -2.076  15.785  23.725  0.00  0.00    +0.000 C 
ENDBRANCH   1  33
TORSDOF 3
ENDMDL
MODEL 2
REMARK VINA RESULT:      -8.5      0.777      1.481
REMARK  Name = 
REMARK  4 active torsions:
REMARK  status: ('A' for Active; 'I' for Inactive)
REMARK    1  A    between atoms: C_1  and  C_2
REMARK    2  A    between atoms: C_2  and  N_3
REMARK    3  A    between atoms: N_12  and  C_13
REMARK    4  A    between atoms: C_23  and  C_24
REMARK                            x       y       z     vdW  Elec       q    Type
REMARK                         _______ _______ _______ _____ _____    ______ ____
ROOT
ATOM      1  N   UNL     1      -1.471  14.627  22.923  0.00  0.00    +0.000 N 
ATOM      2  C   UNL     1      -1.876  14.353  21.647  0.00  0.00    +0.000 A 
ATOM      3  C   UNL     1      -1.353  13.119  21.400  0.00  0.00    +0.000 A 
ATOM      4  C   UNL     1      -0.663  12.718  22.543  0.00  0.00    +0.000 A 
ATOM      5  N   UNL     1      -0.008  11.461  22.663  0.00  0.00    +0.000 NA
ATOM      6  C   UNL     1      -0.110  10.680  21.612  0.00  0.00    +0.000 A 
ATOM      7  N   UNL     1       0.513   9.436  21.620  0.00  0.00    +0.000 N 
ATOM      8  C   UNL     1       1.119   8.817  20.531  0.00  0.00    +0.000 C 
ATOM      9  O   UNL     1       1.406   9.416  19.502  0.00  0.00    +0.000 OA
ATOM     10  N   UNL     1       1.419   7.484  20.791  0.00  0.00    +0.000 N 
ATOM     11  N   UNL     1      -0.855  10.993  20.445  0.00  0.00    +0.000 N 
ATOM     12  N   UNL     1      -1.271  10.162  19.461  0.00  0.00    +0.000 NA
ATOM     13  C   UNL     1      -1.909  11.027  18.647  0.00  0.00    +0.000 A 
ATOM     14  N   UNL     1      -2.067  12.298  19.145  0.00  0.00    +0.000 NA
ATOM     15  C   UNL     1      -1.451  12.211  20.287  0.00  0.00    +0.000 A 
ATOM     16  N   UNL     1      -0.717  13.645  23.495  0.00  0.00    +0.000 NA
ATOM     17  H   UNL     1       0.971   9.235  22.499  0.00  0.00    +0.000 HD
ATOM     18  H   UNL     1       0.855   7.042  21.505  0.00  0.00    +0.000 HD
ENDROOT
BRANCH  10  19
ATOM     19  C   UNL     1       2.063   6.624  19.864  0.00  0.00    +0.000 A 
ATOM     20  C   UNL     1       1.966   5.231  19.935  0.00  0.00    +0.000 A 
ATOM     21  C   UNL     1       2.649   4.417  19.024  0.00  0.00    +0.000 A 
ATOM     22  C   UNL     1       3.448   4.988  18.034  0.00  0.00    +0.000 A 
ATOM     23 CL   UNL     1       4.293   3.927  16.963  0.00  0.00    +0.000 Cl
ATOM     24  C   UNL     1       3.542   6.380  17.945  0.00  0.00    +0.000 A 
ATOM     25 CL   UNL     1       4.540   7.165  16.770  0.00  0.00    +0.000 Cl
ATOM     26  C   UNL     1       2.830   7.193  18.841  0.00  0.00    +0.000 A 
ENDBRANCH  10  19
BRANCH  13  27
ATOM     27  C   UNL     1      -2.457  10.664  17.312  0.00  0.00    +0.000 A 
ATOM     28  C   UNL     1      -2.015   9.644  16.495  0.00  0.00    +0.000 A 
ATOM     29  C   UNL     1      -2.826   9.674  15.334  0.00  0.00    +0.000 A 
ATOM     30  C   UNL     1      -3.701  10.719  15.505  0.00  0.00    +0.000 A 
ATOM     31  O   UNL     1      -3.495  11.318  16.704  0.00  0.00    +0.000 OA
ENDBRANCH  13  27
BRANCH   1  33
ATOM     32  C   UNL     1      -1.710  15.619  25.172  0.00  0.00    +0.000 C 
ATOM     33  C   UNL     1      -1.836  15.821  23.673  0.00  0.00    +0.000 C 
ENDBRANCH   1  33
TORSDOF 3
ENDMDL
MODEL 3
REMARK VINA RESULT:      -8.1      1.342      1.490
REMARK  Name = 
REMARK  4 active torsions:
REMARK  status: ('A' for Active; 'I' for Inactive)
REMARK    1  A    between atoms: C_1  and  C_2
REMARK    2  A    between atoms: C_2  and  N_3
REMARK    3  A    between atoms: N_12  and  C_13
REMARK    4  A    between atoms: C_23  and  C_24
REMARK                            x       y       z     vdW  Elec       q    Type
REMARK                         _______ _______ _______ _____ _____    ______ ____
ROOT
ATOM      1  N   UNL     1       0.000  15.560  21.658  0.00  0.00    +0.000 N 
ATOM      2  C   UNL     1      -0.621  15.123  20.521  0.00  0.00    +0.000 A 
ATOM      3  C   UNL     1      -0.320  13.795  20.479  0.00  0.00    +0.000 A 
ATOM      4  C   UNL     1       0.466  13.506  21.594  0.00  0.00    +0.000 A 
ATOM      5  N   UNL     1       0.946  12.202  21.898  0.00  0.00    +0.000 NA
ATOM      6  C   UNL     1       0.582  11.265  21.052  0.00  0.00    +0.000 A 
ATOM      7  N   UNL     1       1.017   9.958  21.248  0.00  0.00    +0.000 N 
ATOM      8  C   UNL     1       1.363   9.052  20.249  0.00  0.00    +0.000 C 
ATOM      9  O   UNL     1       1.579   9.390  19.092  0.00  0.00    +0.000 OA
ATOM     10  N   UNL     1       1.505   7.761  20.747  0.00  0.00    +0.000 N 
ATOM     11  N   UNL     1      -0.274  11.473  19.938  0.00  0.00    +0.000 N 
ATOM     12  N   UNL     1      -0.942  10.554  19.203  0.00  0.00    +0.000 NA
ATOM     13  C   UNL     1      -1.563  11.346  18.305  0.00  0.00    +0.000 A 
ATOM     14  N   UNL     1      -1.465  12.697  18.542  0.00  0.00    +0.000 NA
ATOM     15  C   UNL     1      -0.707  12.723  19.598  0.00  0.00    +0.000 A 
ATOM     16  N   UNL     1       0.683  14.591  22.332  0.00  0.00    +0.000 NA
ATOM     17  H   UNL     1       1.565   9.852  22.091  0.00  0.00    +0.000 HD
ATOM     18  H   UNL     1       0.994   7.562  21.597  0.00  0.00    +0.000 HD
ENDROOT
BRANCH  10  19
ATOM     19  C   UNL     1       1.878   6.646  19.952  0.00  0.00    +0.000 A 
ATOM     20  C   UNL     1       2.608   6.776  18.767  0.00  0.00    +0.000 A 
ATOM     21  C   UNL     1       2.922   5.654  17.991  0.00  0.00    +0.000 A 
ATOM     22  C   UNL     1       2.501   4.385  18.387  0.00  0.00    +0.000 A 
ATOM     23 CL   UNL     1       2.891   3.047  17.368  0.00  0.00    +0.000 Cl
ATOM     24  C   UNL     1       1.782   4.241  19.579  0.00  0.00    +0.000 A 
ATOM     25 CL   UNL     1       1.192   2.708  20.120  0.00  0.00    +0.000 Cl
ATOM     26  C   UNL     1       1.496   5.366  20.369  0.00  0.00    +0.000 A 
ENDBRANCH  10  19
BRANCH  13  27
ATOM     27  C   UNL     1      -2.346  10.836  17.147  0.00  0.00    +0.000 A 
ATOM     28  C   UNL     1      -2.059   9.716  16.394  0.00  0.00    +0.000 A 
ATOM     29  C   UNL     1      -3.070   9.622  15.405  0.00  0.00    +0.000 A 
ATOM     30  C   UNL     1      -3.899  10.699  15.604  0.00  0.00    +0.000 A 
ATOM     31  O   UNL     1      -3.478  11.433  16.662  0.00  0.00    +0.000 OA
ENDBRANCH  13  27
BRANCH   1  33
ATOM     32  C   UNL     1      -0.965  17.013  23.406  0.00  0.00    +0.000 C 
ATOM     33  C   UNL     1      -0.078  16.918  22.178  0.00  0.00    +0.000 C 
ENDBRANCH   1  33
TORSDOF 3
ENDMDL
MODEL 4
REMARK VINA RESULT:      -8.0      2.047      2.217
REMARK  Name = 
REMARK  4 active torsions:
REMARK  status: ('A' for Active; 'I' for Inactive)
REMARK    1  A    between atoms: C_1  and  C_2
REMARK    2  A    between atoms: C_2  and  N_3
REMARK    3  A    between atoms: N_12  and  C_13
REMARK    4  A    between atoms: C_23  and  C_24
REMARK                            x       y       z     vdW  Elec       q    Type
REMARK                         _______ _______ _______ _____ _____    ______ ____
ROOT
ATOM      1  N   UNL     1       0.822  15.873  20.830  0.00  0.00    +0.000 N 
ATOM      2  C   UNL     1       0.068  15.378  19.803  0.00  0.00    +0.000 A 
ATOM      3  C   UNL     1       0.261  14.031  19.881  0.00  0.00    +0.000 A 
ATOM      4  C   UNL     1       1.120  13.791  20.953  0.00  0.00    +0.000 A 
ATOM      5  N   UNL     1       1.523  12.488  21.356  0.00  0.00    +0.000 NA
ATOM      6  C   UNL     1       1.013  11.505  20.650  0.00  0.00    +0.000 A 
ATOM      7  N   UNL     1       1.361  10.192  20.951  0.00  0.00    +0.000 N 
ATOM      8  C   UNL     1       1.545   9.163  20.032  0.00  0.00    +0.000 C 
ATOM      9  O   UNL     1       1.680   9.361  18.831  0.00  0.00    +0.000 OA
ATOM     10  N   UNL     1       1.631   7.921  20.654  0.00  0.00    +0.000 N 
ATOM     11  N   UNL     1       0.078  11.672  19.594  0.00  0.00    +0.000 N 
ATOM     12  N   UNL     1      -0.723  10.744  19.021  0.00  0.00    +0.000 NA
ATOM     13  C   UNL     1      -1.360  11.491  18.096  0.00  0.00    +0.000 A 
ATOM     14  N   UNL     1      -1.137  12.845  18.175  0.00  0.00    +0.000 NA
ATOM     15  C   UNL     1      -0.287  12.913  19.157  0.00  0.00    +0.000 A 
ATOM     16  N   UNL     1       1.486  14.922  21.547  0.00  0.00    +0.000 NA
ATOM     17  H   UNL     1       1.974  10.125  21.752  0.00  0.00    +0.000 HD
ATOM     18  H   UNL     1       1.186   7.855  21.559  0.00  0.00    +0.000 HD
ENDROOT
BRANCH  10  19
ATOM     19  C   UNL     1       1.844   6.703  19.957  0.00  0.00    +0.000 A 
ATOM     20  C   UNL     1       2.369   6.657  18.662  0.00  0.00    +0.000 A 
ATOM     21  C   UNL     1       2.526   5.437  17.995  0.00  0.00    +0.000 A 
ATOM     22  C   UNL     1       2.150   4.244  18.613  0.00  0.00    +0.000 A 
ATOM     23 CL   UNL     1       2.337   2.776  17.722  0.00  0.00    +0.000 Cl
ATOM     24  C   UNL     1       1.636   4.277  19.913  0.00  0.00    +0.000 A 
ATOM     25 CL   UNL     1       1.112   2.847  20.734  0.00  0.00    +0.000 Cl
ATOM     26  C   UNL     1       1.509   5.500  20.590  0.00  0.00    +0.000 A 
ENDBRANCH  10  19
BRANCH  13  27
ATOM     27  C   UNL     1      -2.282  10.935  17.069  0.00  0.00    +0.000 A 
ATOM     28  C   UNL     1      -3.590  11.316  16.850  0.00  0.00    +0.000 A 
ATOM     29  C   UNL     1      -4.071  10.521  15.781  0.00  0.00    +0.000 A 
ATOM     30  C   UNL     1      -3.034   9.693  15.425  0.00  0.00    +0.000 A 
ATOM     31  O   UNL     1      -1.943   9.943  16.189  0.00  0.00    +0.000 OA
ENDBRANCH  13  27
BRANCH   1  33
ATOM     32  C   UNL     1       1.451  18.142  20.086  0.00  0.00    +0.000 C 
ATOM     33  C   UNL     1       0.896  17.279  21.204  0.00  0.00    +0.000 C 
ENDBRANCH   1  33
TORSDOF 3
ENDMDL
MODEL 5
REMARK VINA RESULT:      -7.9      2.128      2.561
REMARK  Name = 
REMARK  4 active torsions:
REMARK  status: ('A' for Active; 'I' for Inactive)
REMARK    1  A    between atoms: C_1  and  C_2
REMARK    2  A    between atoms: C_2  and  N_3
REMARK    3  A    between atoms: N_12  and  C_13
REMARK    4  A    between atoms: C_23  and  C_24
REMARK                            x       y       z     vdW  Elec       q    Type
REMARK                         _______ _______ _______ _____ _____    ______ ____
ROOT
ATOM      1  N   UNL     1       0.943  15.680  20.554  0.00  0.00    +0.000 N 
ATOM      2  C   UNL     1       0.175  15.153  19.554  0.00  0.00    +0.000 A 
ATOM      3  C   UNL     1       0.340  13.808  19.695  0.00  0.00    +0.000 A 
ATOM      4  C   UNL     1       1.199  13.600  20.774  0.00  0.00    +0.000 A 
ATOM      5  N   UNL     1       1.577  12.310  21.238  0.00  0.00    +0.000 NA
ATOM      6  C   UNL     1       1.043  11.306  20.580  0.00  0.00    +0.000 A 
ATOM      7  N   UNL     1       1.365  10.001  20.942  0.00  0.00    +0.000 N 
ATOM      8  C   UNL     1       1.524   8.926  20.072  0.00  0.00    +0.000 C 
ATOM      9  O   UNL     1       1.659   9.065  18.863  0.00  0.00    +0.000 OA
ATOM     10  N   UNL     1       1.587   7.714  20.751  0.00  0.00    +0.000 N 
ATOM     11  N   UNL     1       0.108  11.442  19.521  0.00  0.00    +0.000 N 
ATOM     12  N   UNL     1      -0.715  10.505  18.995  0.00  0.00    +0.000 NA
ATOM     13  C   UNL     1      -1.340  11.220  18.038  0.00  0.00    +0.000 A 
ATOM     14  N   UNL     1      -1.088  12.572  18.052  0.00  0.00    +0.000 NA
ATOM     15  C   UNL     1      -0.233  12.668  19.027  0.00  0.00    +0.000 A 
ATOM     16  N   UNL     1       1.591  14.751  21.314  0.00  0.00    +0.000 NA
ATOM     17  H   UNL     1       1.980   9.960  21.744  0.00  0.00    +0.000 HD
ATOM     18  H   UNL     1       1.144   7.700  21.661  0.00  0.00    +0.000 HD
ENDROOT
BRANCH  10  19
ATOM     19  C   UNL     1       1.771   6.460  20.113  0.00  0.00    +0.000 A 
ATOM     20  C   UNL     1       1.126   5.295  20.538  0.00  0.00    +0.000 A 
ATOM     21  C   UNL     1       1.366   4.070  19.905  0.00  0.00    +0.000 A 
ATOM     22  C   UNL     1       2.264   3.993  18.841  0.00  0.00    +0.000 A 
ATOM     23 CL   UNL     1       2.542   2.446  18.125  0.00  0.00    +0.000 Cl
ATOM     24  C   UNL     1       2.905   5.155  18.397  0.00  0.00    +0.000 A 
ATOM     25 CL   UNL     1       4.060   5.137  17.109  0.00  0.00    +0.000 Cl
ATOM     26  C   UNL     1       2.638   6.386  19.016  0.00  0.00    +0.000 A 
ENDBRANCH  10  19
BRANCH  13  27
ATOM     27  C   UNL     1      -2.277  10.636  17.040  0.00  0.00    +0.000 A 
ATOM     28  C   UNL     1      -3.170   9.607  17.260  0.00  0.00    +0.000 A 
ATOM     29  C   UNL     1      -3.846   9.388  16.034  0.00  0.00    +0.000 A 
ATOM     30  C   UNL     1      -3.313  10.284  15.139  0.00  0.00    +0.000 A 
ATOM     31  O   UNL     1      -2.372  11.053  15.740  0.00  0.00    +0.000 OA
ENDBRANCH  13  27
BRANCH   1  33
ATOM     32  C   UNL     1       1.581  17.904  19.688  0.00  0.00    +0.000 C 
ATOM     33  C   UNL     1       1.049  17.100  20.861  0.00  0.00    +0.000 C 
ENDBRANCH   1  33
TORSDOF 3
ENDMDL
MODEL 6
REMARK VINA RESULT:      -7.5      1.617      2.032
REMARK  Name = 
REMARK  4 active torsions:
REMARK  status: ('A' for Active; 'I' for Inactive)
REMARK    1  A    between atoms: C_1  and  C_2
REMARK    2  A    between atoms: C_2  and  N_3
REMARK    3  A    between atoms: N_12  and  C_13
REMARK    4  A    between atoms: C_23  and  C_24
REMARK                            x       y       z     vdW  Elec       q    Type
REMARK                         _______ _______ _______ _____ _____    ______ ____
ROOT
ATOM      1  N   UNL     1       0.458  15.566  21.061  0.00  0.00    +0.000 N 
ATOM      2  C   UNL     1      -0.238  15.065  19.996  0.00  0.00    +0.000 A 
ATOM      3  C   UNL     1       0.000  13.725  20.057  0.00  0.00    +0.000 A 
ATOM      4  C   UNL     1       0.825  13.494  21.158  0.00  0.00    +0.000 A 
ATOM      5  N   UNL     1       1.260  12.198  21.554  0.00  0.00    +0.000 NA
ATOM      6  C   UNL     1       0.813  11.212  20.810  0.00  0.00    +0.000 A 
ATOM      7  N   UNL     1       1.196   9.907  21.101  0.00  0.00    +0.000 N 
ATOM      8  C   UNL     1       1.452   8.903  20.172  0.00  0.00    +0.000 C 
ATOM      9  O   UNL     1       1.627   9.129  18.981  0.00  0.00    +0.000 OA
ATOM     10  N   UNL     1       1.559   7.653  20.774  0.00  0.00    +0.000 N 
ATOM     11  N   UNL     1      -0.086  11.366  19.721  0.00  0.00    +0.000 N 
ATOM     12  N   UNL     1      -0.830  10.422  19.101  0.00  0.00    +0.000 NA
ATOM     13  C   UNL     1      -1.457  11.163  18.165  0.00  0.00    +0.000 A 
ATOM     14  N   UNL     1      -1.286  12.523  18.277  0.00  0.00    +0.000 NA
ATOM     15  C   UNL     1      -0.478  12.602  19.293  0.00  0.00    +0.000 A 
ATOM     16  N   UNL     1       1.127  14.626  21.786  0.00  0.00    +0.000 NA
ATOM     17  H   UNL     1       1.779   9.846  21.925  0.00  0.00    +0.000 HD
ATOM     18  H   UNL     1       1.082   7.554  21.660  0.00  0.00    +0.000 HD
ENDROOT
BRANCH  10  19
ATOM     19  C   UNL     1       1.842   6.457  20.065  0.00  0.00    +0.000 A 
ATOM     20  C   UNL     1       1.289   5.222  20.418  0.00  0.00    +0.000 A 
ATOM     21  C   UNL     1       1.625   4.059  19.717  0.00  0.00    +0.000 A 
ATOM     22  C   UNL     1       2.529   4.114  18.655  0.00  0.00    +0.000 A 
ATOM     23 CL   UNL     1       2.928   2.637  17.853  0.00  0.00    +0.000 Cl
ATOM     24  C   UNL     1       3.077   5.346  18.285  0.00  0.00    +0.000 A 
ATOM     25 CL   UNL     1       4.233   5.493  17.005  0.00  0.00    +0.000 Cl
ATOM     26  C   UNL     1       2.714   6.515  18.972  0.00  0.00    +0.000 A 
ENDBRANCH  10  19
BRANCH  13  27
ATOM     27  C   UNL     1      -2.318  10.595  17.092  0.00  0.00    +0.000 A 
ATOM     28  C   UNL     1      -2.563  11.157  15.856  0.00  0.00    +0.000 A 
ATOM     29  C   UNL     1      -3.434  10.271  15.174  0.00  0.00    +0.000 A 
ATOM     30  C   UNL     1      -3.680   9.234  16.040  0.00  0.00    +0.000 A 
ATOM     31  O   UNL     1      -3.000   9.413  17.199  0.00  0.00    +0.000 OA
ENDBRANCH  13  27
BRANCH   1  33
ATOM     32  C   UNL     1      -0.450  17.232  22.642  0.00  0.00    +0.000 C 
ATOM     33  C   UNL     1       0.467  16.966  21.462  0.00  0.00    +0.000 C 
ENDBRANCH   1  33
TORSDOF 3
ENDMDL
MODEL 7
REMARK VINA RESULT:      -7.5      4.874      8.749
REMARK  Name = 
REMARK  4 active torsions:
REMARK  status: ('A' for Active; 'I' for Inactive)
REMARK    1  A    between atoms: C_1  and  C_2
REMARK    2  A    between atoms: C_2  and  N_3
REMARK    3  A    between atoms: N_12  and  C_13
REMARK    4  A    between atoms: C_23  and  C_24
REMARK                            x       y       z     vdW  Elec       q    Type
REMARK                         _______ _______ _______ _____ _____    ______ ____
ROOT
ATOM      1  N   UNL     1       2.587   7.016  18.408  0.00  0.00    +0.000 N 
ATOM      2  C   UNL     1       2.695   8.298  17.945  0.00  0.00    +0.000 A 
ATOM      3  C   UNL     1       1.986   9.029  18.851  0.00  0.00    +0.000 A 
ATOM      4  C   UNL     1       1.492   8.145  19.810  0.00  0.00    +0.000 A 
ATOM      5  N   UNL     1       0.724   8.558  20.935  0.00  0.00    +0.000 NA
ATOM      6  C   UNL     1       0.520   9.852  21.022  0.00  0.00    +0.000 A 
ATOM      7  N   UNL     1      -0.237  10.357  22.075  0.00  0.00    +0.000 N 
ATOM      8  C   UNL     1      -1.118  11.433  22.008  0.00  0.00    +0.000 C 
ATOM      9  O   UNL     1      -1.527  11.891  20.948  0.00  0.00    +0.000 OA
ATOM     10  N   UNL     1      -1.520  11.853  23.272  0.00  0.00    +0.000 N 
ATOM     11  N   UNL     1       1.052  10.815  20.124  0.00  0.00    +0.000 N 
ATOM     12  N   UNL     1       1.160  12.154  20.288  0.00  0.00    +0.000 NA
ATOM     13  C   UNL     1       1.725  12.511  19.117  0.00  0.00    +0.000 A 
ATOM     14  N   UNL     1       2.133  11.471  18.317  0.00  0.00    +0.000 NA
ATOM     15  C   UNL     1       1.749  10.440  19.012  0.00  0.00    +0.000 A 
ATOM     16  N   UNL     1       1.846   6.891  19.546  0.00  0.00    +0.000 NA
ATOM     17  H   UNL     1      -0.533   9.638  22.721  0.00  0.00    +0.000 HD
ATOM     18  H   UNL     1      -0.885  11.634  24.027  0.00  0.00    +0.000 HD
ENDROOT
BRANCH  10  19
ATOM     19  C   UNL     1      -2.436  12.914  23.495  0.00  0.00    +0.000 A 
ATOM     20  C   UNL     1      -2.028  14.244  23.639  0.00  0.00    +0.000 A 
ATOM     21  C   UNL     1      -2.959  15.256  23.898  0.00  0.00    +0.000 A 
ATOM     22  C   UNL     1      -4.314  14.949  24.026  0.00  0.00    +0.000 A 
ATOM     23 CL   UNL     1      -5.407  16.238  24.381  0.00  0.00    +0.000 Cl
ATOM     24  C   UNL     1      -4.735  13.624  23.871  0.00  0.00    +0.000 A 
ATOM     25 CL   UNL     1      -6.390  13.155  24.052  0.00  0.00    +0.000 Cl
ATOM     26  C   UNL     1      -3.801  12.617  23.581  0.00  0.00    +0.000 A 
ENDBRANCH  10  19
BRANCH  13  27
ATOM     27  C   UNL     1       1.950  13.921  18.697  0.00  0.00    +0.000 A 
ATOM     28  C   UNL     1       3.062  14.415  18.047  0.00  0.00    +0.000 A 
ATOM     29  C   UNL     1       2.837  15.800  17.852  0.00  0.00    +0.000 A 
ATOM     30  C   UNL     1       1.611  16.070  18.410  0.00  0.00    +0.000 A 
ATOM     31  O   UNL     1       1.059  14.938  18.913  0.00  0.00    +0.000 OA
ENDBRANCH  13  27
BRANCH   1  33
ATOM     32  C   UNL     1       2.345   4.630  17.820  0.00  0.00    +0.000 C 
ATOM     33  C   UNL     1       3.236   5.859  17.808  0.00  0.00    +0.000 C 
ENDBRANCH   1  33
TORSDOF 3
ENDMDL
MODEL 8
REMARK VINA RESULT:      -7.3      5.174      8.988
REMARK  Name = 
REMARK  4 active torsions:
REMARK  status: ('A' for Active; 'I' for Inactive)
REMARK    1  A    between atoms: C_1  and  C_2
REMARK    2  A    between atoms: C_2  and  N_3
REMARK    3  A    between atoms: N_12  and  C_13
REMARK    4  A    between atoms: C_23  and  C_24
REMARK                            x       y       z     vdW  Elec       q    Type
REMARK                         _______ _______ _______ _____ _____    ______ ____
ROOT
ATOM      1  N   UNL     1       1.765   7.307  20.224  0.00  0.00    +0.000 N 
ATOM      2  C   UNL     1       1.927   8.509  19.592  0.00  0.00    +0.000 A 
ATOM      3  C   UNL     1       1.112   9.351  20.287  0.00  0.00    +0.000 A 
ATOM      4  C   UNL     1       0.506   8.609  21.300  0.00  0.00    +0.000 A 
ATOM      5  N   UNL     1      -0.393   9.168  22.251  0.00  0.00    +0.000 NA
ATOM      6  C   UNL     1      -0.608  10.457  22.119  0.00  0.00    +0.000 A 
ATOM      7  N   UNL     1      -1.488  11.098  22.987  0.00  0.00    +0.000 N 
ATOM      8  C   UNL     1      -2.355  12.135  22.655  0.00  0.00    +0.000 C 
ATOM      9  O   UNL     1      -2.633  12.423  21.498  0.00  0.00    +0.000 OA
ATOM     10  N   UNL     1      -2.909  12.729  23.784  0.00  0.00    +0.000 N 
ATOM     11  N   UNL     1       0.029  11.287  21.159  0.00  0.00    +0.000 N 
ATOM     12  N   UNL     1       0.114  12.638  21.134  0.00  0.00    +0.000 NA
ATOM     13  C   UNL     1       0.818  12.829  20.000  0.00  0.00    +0.000 A 
ATOM     14  N   UNL     1       1.322  11.690  19.418  0.00  0.00    +0.000 NA
ATOM     15  C   UNL     1       0.857  10.766  20.207  0.00  0.00    +0.000 A 
ATOM     16  N   UNL     1       0.891   7.337  21.270  0.00  0.00    +0.000 NA
ATOM     17  H   UNL     1      -1.860  10.476  23.692  0.00  0.00    +0.000 HD
ATOM     18  H   UNL     1      -2.370  12.636  24.635  0.00  0.00    +0.000 HD
ENDROOT
BRANCH  10  19
ATOM     19  C   UNL     1      -3.846  13.794  23.736  0.00  0.00    +0.000 A 
ATOM     20  C   UNL     1      -3.459  15.133  23.628  0.00  0.00    +0.000 A 
ATOM     21  C   UNL     1      -4.414  16.157  23.624  0.00  0.00    +0.000 A 
ATOM     22  C   UNL     1      -5.770  15.854  23.737  0.00  0.00    +0.000 A 
ATOM     23 CL   UNL     1      -6.895  17.165  23.760  0.00  0.00    +0.000 Cl
ATOM     24  C   UNL     1      -6.169  14.517  23.832  0.00  0.00    +0.000 A 
ATOM     25 CL   UNL     1      -7.828  14.060  24.013  0.00  0.00    +0.000 Cl
ATOM     26  C   UNL     1      -5.211  13.492  23.805  0.00  0.00    +0.000 A 
ENDBRANCH  10  19
BRANCH  13  27
ATOM     27  C   UNL     1       1.091  14.166  19.405  0.00  0.00    +0.000 A 
ATOM     28  C   UNL     1       0.186  15.197  19.257  0.00  0.00    +0.000 A 
ATOM     29  C   UNL     1       0.885  16.266  18.646  0.00  0.00    +0.000 A 
ATOM     30  C   UNL     1       2.168  15.817  18.442  0.00  0.00    +0.000 A 
ATOM     31  O   UNL     1       2.307  14.552  18.909  0.00  0.00    +0.000 OA
ENDBRANCH  13  27
BRANCH   1  33
ATOM     32  C   UNL     1       2.120   4.932  20.802  0.00  0.00    +0.000 C 
ATOM     33  C   UNL     1       2.483   6.087  19.885  0.00  0.00    +0.000 C 
ENDBRANCH   1  33
TORSDOF 3
ENDMDL
MODEL 9
REMARK VINA RESULT:      -7.3      5.305      9.066
REMARK  Name = 
REMARK  4 active torsions:
REMARK  status: ('A' for Active; 'I' for Inactive)
REMARK    1  A    between atoms: C_1  and  C_2
REMARK    2  A    between atoms: C_2  and  N_3
REMARK    3  A    between atoms: N_12  and  C_13
REMARK    4  A    between atoms: C_23  and  C_24
REMARK                            x       y       z     vdW  Elec       q    Type
REMARK                         _______ _______ _______ _____ _____    ______ ____
ROOT
ATOM      1  N   UNL     1       1.752   7.490  20.165  0.00  0.00    +0.000 N 
ATOM      2  C   UNL     1       1.838   8.698  19.532  0.00  0.00    +0.000 A 
ATOM      3  C   UNL     1       1.027   9.508  20.269  0.00  0.00    +0.000 A 
ATOM      4  C   UNL     1       0.499   8.741  21.307  0.00  0.00    +0.000 A 
ATOM      5  N   UNL     1      -0.373   9.263  22.302  0.00  0.00    +0.000 NA
ATOM      6  C   UNL     1      -0.643  10.543  22.187  0.00  0.00    +0.000 A 
ATOM      7  N   UNL     1      -1.503  11.147  23.099  0.00  0.00    +0.000 N 
ATOM      8  C   UNL     1      -2.424  12.151  22.814  0.00  0.00    +0.000 C 
ATOM      9  O   UNL     1      -2.768  12.433  21.673  0.00  0.00    +0.000 OA
ATOM     10  N   UNL     1      -2.945  12.722  23.972  0.00  0.00    +0.000 N 
ATOM     11  N   UNL     1      -0.085  11.399  21.201  0.00  0.00    +0.000 N 
ATOM     12  N   UNL     1      -0.052  12.752  21.178  0.00  0.00    +0.000 NA
ATOM     13  C   UNL     1       0.589  12.973  20.012  0.00  0.00    +0.000 A 
ATOM     14  N   UNL     1       1.106  11.855  19.401  0.00  0.00    +0.000 NA
ATOM     15  C   UNL     1       0.715  10.912  20.208  0.00  0.00    +0.000 A 
ATOM     16  N   UNL     1       0.930   7.484  21.253  0.00  0.00    +0.000 NA
ATOM     17  H   UNL     1      -1.817  10.511  23.819  0.00  0.00    +0.000 HD
ATOM     18  H   UNL     1      -2.362  12.647  24.795  0.00  0.00    +0.000 HD
ENDROOT
BRANCH  10  19
ATOM     19  C   UNL     1      -3.922  13.750  23.974  0.00  0.00    +0.000 A 
ATOM     20  C   UNL     1      -5.273  13.507  23.709  0.00  0.00    +0.000 A 
ATOM     21  C   UNL     1      -6.199  14.556  23.681  0.00  0.00    +0.000 A 
ATOM     22  C   UNL     1      -5.782  15.867  23.910  0.00  0.00    +0.000 A 
ATOM     23 CL   UNL     1      -6.968  17.120  23.828  0.00  0.00    +0.000 Cl
ATOM     24  C   UNL     1      -4.436  16.121  24.190  0.00  0.00    +0.000 A 
ATOM     25 CL   UNL     1      -3.833  17.722  24.448  0.00  0.00    +0.000 Cl
ATOM     26  C   UNL     1      -3.516  15.062  24.247  0.00  0.00    +0.000 A 
ENDBRANCH  10  19
BRANCH  13  27
ATOM     27  C   UNL     1       0.781  14.320  19.411  0.00  0.00    +0.000 A 
ATOM     28  C   UNL     1      -0.212  15.220  19.081  0.00  0.00    +0.000 A 
ATOM     29  C   UNL     1       0.436  16.359  18.541  0.00  0.00    +0.000 A 
ATOM     30  C   UNL     1       1.780  16.077  18.557  0.00  0.00    +0.000 A 
ATOM     31  O   UNL     1       2.002  14.852  19.093  0.00  0.00    +0.000 OA
ENDBRANCH  13  27
BRANCH   1  33
ATOM     32  C   UNL     1       2.110   5.088  20.616  0.00  0.00    +0.000 C 
ATOM     33  C   UNL     1       2.499   6.299  19.786  0.00  0.00    +0.000 C 
ENDBRANCH   1  33
TORSDOF 3
ENDMDL
