MODEL 1
REMARK VINA RESULT:      -8.3      0.000      0.000
REMARK  Name = 
REMARK  6 active torsions:
REMARK  status: ('A' for Active; 'I' for Inactive)
REMARK    1  A    between atoms: C_1  and  O_2
REMARK    2  A    between atoms: O_2  and  C_3
REMARK    3  A    between atoms: C_9  and  N_10
REMARK    4  A    between atoms: C_15  and  N_16
REMARK    5  A    between atoms: N_16  and  C_17
REMARK    6  A    between atoms: C_17  and  C_18
REMARK                            x       y       z     vdW  Elec       q    Type
REMARK                         _______ _______ _______ _____ _____    ______ ____
ROOT
ATOM      1  C   UNL     1       1.120   9.950  20.070  0.00  0.00    +0.000 A 
ATOM      2  C   UNL     1       0.635   9.298  21.207  0.00  0.00    +0.000 A 
ATOM      3  C   UNL     1       0.850   7.928  21.387  0.00  0.00    +0.000 A 
ATOM      4  C   UNL     1       1.554   7.195  20.428  0.00  0.00    +0.000 A 
ATOM      5  N   UNL     1       1.816   5.839  20.607  0.00  0.00    +0.000 N 
ATOM      6  C   UNL     1       2.627   5.056  19.763  0.00  0.00    +0.000 A 
ATOM      7  C   UNL     1       2.931   3.706  20.047  0.00  0.00    +0.000 A 
ATOM      8  C   UNL     1       3.782   2.978  19.215  0.00  0.00    +0.000 A 
ATOM      9  C   UNL     1       4.335   3.579  18.090  0.00  0.00    +0.000 A 
ATOM     10  C   UNL     1       4.060   4.914  17.737  0.00  0.00    +0.000 A 
ATOM     11  C   UNL     1       3.190   5.647  18.589  0.00  0.00    +0.000 A 
ATOM     12  C   UNL     1       2.785   7.063  18.278  0.00  0.00    +0.000 A 
ATOM     13  O   UNL     1       3.054   7.607  17.211  0.00  0.00    +0.000 OA
ATOM     14  C   UNL     1       2.036   7.848  19.294  0.00  0.00    +0.000 A 
ATOM     15  C   UNL     1       1.822   9.221  19.111  0.00  0.00    +0.000 A 
ATOM     16  H   UNL     1       1.397   5.379  21.418  0.00  0.00    +0.000 HD
ENDROOT
BRANCH   7  17
ATOM     17  N   UNL     1       2.372   3.017  21.219  0.00  0.00    +0.000 N 
ATOM     18  O   UNL     1       1.157   3.103  21.433  0.00  0.00    +0.000 OA
ATOM     19  O   UNL     1       3.163   2.393  21.942  0.00  0.00    +0.000 OA
ENDBRANCH   7  17
BRANCH   1  21
ATOM     20  C   UNL     1      -0.033  11.710  18.976  0.00  0.00    +0.000 C 
ATOM     21  O   UNL     1       0.851  11.291  20.011  0.00  0.00    +0.000 OA
ENDBRANCH   1  21
BRANCH  10  22
ATOM     22  N   UNL     1       4.616   5.450  16.567  0.00  0.00    +0.000 N 
ATOM     23  H   UNL     1       4.182   6.330  16.287  0.00  0.00    +0.000 HD
BRANCH  22  24
ATOM     24  C   UNL     1       6.050   5.367  16.306  0.00  0.00    +0.000 C 
BRANCH  24  25
ATOM     25  C   UNL     1       6.953   6.211  17.134  0.00  0.00    +0.000 A 
ATOM     26  C   UNL     1       7.646   6.022  18.311  0.00  0.00    +0.000 A 
ATOM     27  C   UNL     1       8.198   7.283  18.655  0.00  0.00    +0.000 A 
ATOM     28  C   UNL     1       7.823   8.155  17.660  0.00  0.00    +0.000 A 
ATOM     29  O   UNL     1       7.075   7.512  16.729  0.00  0.00    +0.000 OA
ENDBRANCH  24  25
ENDBRANCH  22  24
ENDBRANCH  10  22
TORSDOF 5
ENDMDL
MODEL 2
REMARK VINA RESULT:      -8.0      0.897      1.193
REMARK  Name = 
REMARK  6 active torsions:
REMARK  status: ('A' for Active; 'I' for Inactive)
REMARK    1  A    between atoms: C_1  and  O_2
REMARK    2  A    between atoms: O_2  and  C_3
REMARK    3  A    between atoms: C_9  and  N_10
REMARK    4  A    between atoms: C_15  and  N_16
REMARK    5  A    between atoms: N_16  and  C_17
REMARK    6  A    between atoms: C_17  and  C_18
REMARK                            x       y       z     vdW  Elec       q    Type
REMARK                         _______ _______ _______ _____ _____    ______ ____
ROOT
ATOM      1  C   UNL     1       1.968   9.708  18.621  0.00  0.00    +0.000 A 
ATOM      2  C   UNL     1       1.266   9.339  19.772  0.00  0.00    +0.000 A 
ATOM      3  C   UNL     1       1.291   8.017  20.227  0.00  0.00    +0.000 A 
ATOM      4  C   UNL     1       2.021   7.048  19.532  0.00  0.00    +0.000 A 
ATOM      5  N   UNL     1       2.094   5.735  19.990  0.00  0.00    +0.000 N 
ATOM      6  C   UNL     1       2.908   4.730  19.432  0.00  0.00    +0.000 A 
ATOM      7  C   UNL     1       3.010   3.440  19.998  0.00  0.00    +0.000 A 
ATOM      8  C   UNL     1       3.868   2.488  19.448  0.00  0.00    +0.000 A 
ATOM      9  C   UNL     1       4.629   2.803  18.327  0.00  0.00    +0.000 A 
ATOM     10  C   UNL     1       4.562   4.063  17.702  0.00  0.00    +0.000 A 
ATOM     11  C   UNL     1       3.683   5.025  18.268  0.00  0.00    +0.000 A 
ATOM     12  C   UNL     1       3.493   6.385  17.649  0.00  0.00    +0.000 A 
ATOM     13  O   UNL     1       3.960   6.682  16.553  0.00  0.00    +0.000 OA
ATOM     14  C   UNL     1       2.719   7.419  18.383  0.00  0.00    +0.000 A 
ATOM     15  C   UNL     1       2.695   8.743  17.925  0.00  0.00    +0.000 A 
ATOM     16  H   UNL     1       1.522   5.484  20.800  0.00  0.00    +0.000 HD
ENDROOT
BRANCH   7  17
ATOM     17  N   UNL     1       2.227   3.049  21.178  0.00  0.00    +0.000 N 
ATOM     18  O   UNL     1       2.814   2.518  22.129  0.00  0.00    +0.000 OA
ATOM     19  O   UNL     1       1.006   3.263  21.148  0.00  0.00    +0.000 OA
ENDBRANCH   7  17
BRANCH   1  21
ATOM     20  C   UNL     1       0.878  11.786  18.968  0.00  0.00    +0.000 C 
ATOM     21  O   UNL     1       1.870  11.030  18.281  0.00  0.00    +0.000 OA
ENDBRANCH   1  21
BRANCH  10  22
ATOM     22  N   UNL     1       5.323   4.305  16.549  0.00  0.00    +0.000 N 
ATOM     23  H   UNL     1       4.872   4.953  15.904  0.00  0.00    +0.000 HD
BRANCH  22  24
ATOM     24  C   UNL     1       6.777   4.424  16.616  0.00  0.00    +0.000 C 
BRANCH  24  25
ATOM     25  C   UNL     1       7.342   5.605  17.324  0.00  0.00    +0.000 A 
ATOM     26  C   UNL     1       7.742   5.858  18.618  0.00  0.00    +0.000 A 
ATOM     27  C   UNL     1       8.039   7.245  18.679  0.00  0.00    +0.000 A 
ATOM     28  C   UNL     1       7.818   7.744  17.418  0.00  0.00    +0.000 A 
ATOM     29  O   UNL     1       7.403   6.756  16.587  0.00  0.00    +0.000 OA
ENDBRANCH  24  25
ENDBRANCH  22  24
ENDBRANCH  10  22
TORSDOF 5
ENDMDL
MODEL 3
REMARK VINA RESULT:      -8.0      1.376      2.230
REMARK  Name = 
REMARK  6 active torsions:
REMARK  status: ('A' for Active; 'I' for Inactive)
REMARK    1  A    between atoms: C_1  and  O_2
REMARK    2  A    between atoms: O_2  and  C_3
REMARK    3  A    between atoms: C_9  and  N_10
REMARK    4  A    between atoms: C_15  and  N_16
REMARK    5  A    between atoms: N_16  and  C_17
REMARK    6  A    between atoms: C_17  and  C_18
REMARK                            x       y       z     vdW  Elec       q    Type
REMARK                         _______ _______ _______ _____ _____    ______ ____
ROOT
ATOM      1  C   UNL     1       1.011   9.869  20.027  0.00  0.00    +0.000 A 
ATOM      2  C   UNL     1       0.430   9.184  21.098  0.00  0.00    +0.000 A 
ATOM      3  C   UNL     1       0.677   7.821  21.288  0.00  0.00    +0.000 A 
ATOM      4  C   UNL     1       1.509   7.127  20.405  0.00  0.00    +0.000 A 
ATOM      5  N   UNL     1       1.801   5.780  20.599  0.00  0.00    +0.000 N 
ATOM      6  C   UNL     1       2.729   5.038  19.842  0.00  0.00    +0.000 A 
ATOM      7  C   UNL     1       3.052   3.698  20.145  0.00  0.00    +0.000 A 
ATOM      8  C   UNL     1       4.016   3.013  19.404  0.00  0.00    +0.000 A 
ATOM      9  C   UNL     1       4.664   3.648  18.351  0.00  0.00    +0.000 A 
ATOM     10  C   UNL     1       4.377   4.976  17.983  0.00  0.00    +0.000 A 
ATOM     11  C   UNL     1       3.392   5.665  18.741  0.00  0.00    +0.000 A 
ATOM     12  C   UNL     1       2.969   7.069  18.401  0.00  0.00    +0.000 A 
ATOM     13  O   UNL     1       3.331   7.637  17.374  0.00  0.00    +0.000 OA
ATOM     14  C   UNL     1       2.086   7.813  19.335  0.00  0.00    +0.000 A 
ATOM     15  C   UNL     1       1.840   9.178  19.143  0.00  0.00    +0.000 A 
ATOM     16  H   UNL     1       1.315   5.295  21.356  0.00  0.00    +0.000 HD
ENDROOT
BRANCH   7  17
ATOM     17  N   UNL     1       2.396   2.973  21.243  0.00  0.00    +0.000 N 
ATOM     18  O   UNL     1       3.102   2.353  22.048  0.00  0.00    +0.000 OA
ATOM     19  O   UNL     1       1.158   3.013  21.292  0.00  0.00    +0.000 OA
ENDBRANCH   7  17
BRANCH   1  21
ATOM     20  C   UNL     1      -0.358  11.647  20.793  0.00  0.00    +0.000 C 
ATOM     21  O   UNL     1       0.698  11.199  19.950  0.00  0.00    +0.000 OA
ENDBRANCH   1  21
BRANCH  10  22
ATOM     22  N   UNL     1       5.035   5.547  16.884  0.00  0.00    +0.000 N 
ATOM     23  H   UNL     1       4.932   6.562  16.842  0.00  0.00    +0.000 HD
BRANCH  22  24
ATOM     24  C   UNL     1       6.333   5.047  16.438  0.00  0.00    +0.000 C 
BRANCH  24  25
ATOM     25  C   UNL     1       6.500   4.757  14.988  0.00  0.00    +0.000 A 
ATOM     26  C   UNL     1       5.923   3.869  14.105  0.00  0.00    +0.000 A 
ATOM     27  C   UNL     1       6.643   3.991  12.889  0.00  0.00    +0.000 A 
ATOM     28  C   UNL     1       7.600   4.955  13.101  0.00  0.00    +0.000 A 
ATOM     29  O   UNL     1       7.515   5.431  14.368  0.00  0.00    +0.000 OA
ENDBRANCH  24  25
ENDBRANCH  22  24
ENDBRANCH  10  22
TORSDOF 5
ENDMDL
MODEL 4
REMARK VINA RESULT:      -8.0      0.894      1.191
REMARK  Name = 
REMARK  6 active torsions:
REMARK  status: ('A' for Active; 'I' for Inactive)
REMARK    1  A    between atoms: C_1  and  O_2
REMARK    2  A    between atoms: O_2  and  C_3
REMARK    3  A    between atoms: C_9  and  N_10
REMARK    4  A    between atoms: C_15  and  N_16
REMARK    5  A    between atoms: N_16  and  C_17
REMARK    6  A    between atoms: C_17  and  C_18
REMARK                            x       y       z     vdW  Elec       q    Type
REMARK                         _______ _______ _______ _____ _____    ______ ____
ROOT
ATOM      1  C   UNL     1       1.441   9.705  19.679  0.00  0.00    +0.000 A 
ATOM      2  C   UNL     1       0.922   9.174  20.862  0.00  0.00    +0.000 A 
ATOM      3  C   UNL     1       1.054   7.812  21.150  0.00  0.00    +0.000 A 
ATOM      4  C   UNL     1       1.708   6.965  20.251  0.00  0.00    +0.000 A 
ATOM      5  N   UNL     1       1.888   5.614  20.535  0.00  0.00    +0.000 N 
ATOM      6  C   UNL     1       2.647   4.719  19.756  0.00  0.00    +0.000 A 
ATOM      7  C   UNL     1       2.869   3.380  20.145  0.00  0.00    +0.000 A 
ATOM      8  C   UNL     1       3.671   2.539  19.373  0.00  0.00    +0.000 A 
ATOM      9  C   UNL     1       4.255   3.015  18.204  0.00  0.00    +0.000 A 
ATOM     10  C   UNL     1       4.060   4.333  17.748  0.00  0.00    +0.000 A 
ATOM     11  C   UNL     1       3.239   5.181  18.540  0.00  0.00    +0.000 A 
ATOM     12  C   UNL     1       2.919   6.591  18.119  0.00  0.00    +0.000 A 
ATOM     13  O   UNL     1       3.216   7.033  17.012  0.00  0.00    +0.000 OA
ATOM     14  C   UNL     1       2.224   7.497  19.069  0.00  0.00    +0.000 A 
ATOM     15  C   UNL     1       2.093   8.862  18.780  0.00  0.00    +0.000 A 
ATOM     16  H   UNL     1       1.445   5.245  21.380  0.00  0.00    +0.000 HD
ENDROOT
BRANCH   7  17
ATOM     17  N   UNL     1       2.275   2.820  21.366  0.00  0.00    +0.000 N 
ATOM     18  O   UNL     1       3.025   2.334  22.221  0.00  0.00    +0.000 OA
ATOM     19  O   UNL     1       1.039   2.854  21.465  0.00  0.00    +0.000 OA
ENDBRANCH   7  17
BRANCH   1  21
ATOM     20  C   UNL     1       0.442  11.697  20.490  0.00  0.00    +0.000 C 
ATOM     21  O   UNL     1       1.253  11.051  19.514  0.00  0.00    +0.000 OA
ENDBRANCH   1  21
BRANCH  10  22
ATOM     22  N   UNL     1       4.642   4.741  16.539  0.00  0.00    +0.000 N 
ATOM     23  H   UNL     1       4.130   5.498  16.087  0.00  0.00    +0.000 HD
BRANCH  22  24
ATOM     24  C   UNL     1       6.093   4.807  16.385  0.00  0.00    +0.000 C 
BRANCH  24  25
ATOM     25  C   UNL     1       6.863   5.557  17.414  0.00  0.00    +0.000 A 
ATOM     26  C   UNL     1       7.315   6.854  17.531  0.00  0.00    +0.000 A 
ATOM     27  C   UNL     1       8.132   6.888  18.691  0.00  0.00    +0.000 A 
ATOM     28  C   UNL     1       8.113   5.617  19.216  0.00  0.00    +0.000 A 
ATOM     29  O   UNL     1       7.339   4.805  18.453  0.00  0.00    +0.000 OA
ENDBRANCH  24  25
ENDBRANCH  22  24
ENDBRANCH  10  22
TORSDOF 5
ENDMDL
MODEL 5
REMARK VINA RESULT:      -7.5      1.454      2.251
REMARK  Name = 
REMARK  6 active torsions:
REMARK  status: ('A' for Active; 'I' for Inactive)
REMARK    1  A    between atoms: C_1  and  O_2
REMARK    2  A    between atoms: O_2  and  C_3
REMARK    3  A    between atoms: C_9  and  N_10
REMARK    4  A    between atoms: C_15  and  N_16
REMARK    5  A    between atoms: N_16  and  C_17
REMARK    6  A    between atoms: C_17  and  C_18
REMARK                            x       y       z     vdW  Elec       q    Type
REMARK                         _______ _______ _______ _____ _____    ______ ____
ROOT
ATOM      1  C   UNL     1       0.962  10.025  20.169  0.00  0.00    +0.000 A 
ATOM      2  C   UNL     1       0.466   9.334  21.278  0.00  0.00    +0.000 A 
ATOM      3  C   UNL     1       0.726   7.970  21.441  0.00  0.00    +0.000 A 
ATOM      4  C   UNL     1       1.486   7.281  20.491  0.00  0.00    +0.000 A 
ATOM      5  N   UNL     1       1.792   5.933  20.654  0.00  0.00    +0.000 N 
ATOM      6  C   UNL     1       2.658   5.196  19.822  0.00  0.00    +0.000 A 
ATOM      7  C   UNL     1       3.002   3.853  20.091  0.00  0.00    +0.000 A 
ATOM      8  C   UNL     1       3.905   3.173  19.274  0.00  0.00    +0.000 A 
ATOM      9  C   UNL     1       4.469   3.814  18.177  0.00  0.00    +0.000 A 
ATOM     10  C   UNL     1       4.156   5.145  17.840  0.00  0.00    +0.000 A 
ATOM     11  C   UNL     1       3.233   5.829  18.677  0.00  0.00    +0.000 A 
ATOM     12  C   UNL     1       2.786   7.235  18.378  0.00  0.00    +0.000 A 
ATOM     13  O   UNL     1       3.067   7.809  17.330  0.00  0.00    +0.000 OA
ATOM     14  C   UNL     1       1.978   7.973  19.384  0.00  0.00    +0.000 A 
ATOM     15  C   UNL     1       1.719   9.340  19.219  0.00  0.00    +0.000 A 
ATOM     16  H   UNL     1       1.366   5.443  21.444  0.00  0.00    +0.000 HD
ENDROOT
BRANCH   7  17
ATOM     17  N   UNL     1       2.435   3.122  21.233  0.00  0.00    +0.000 N 
ATOM     18  O   UNL     1       1.236   3.276  21.497  0.00  0.00    +0.000 OA
ATOM     19  O   UNL     1       3.202   2.395  21.882  0.00  0.00    +0.000 OA
ENDBRANCH   7  17
BRANCH   1  21
ATOM     20  C   UNL     1      -0.695  11.672  19.761  0.00  0.00    +0.000 C 
ATOM     21  O   UNL     1       0.645  11.356  20.124  0.00  0.00    +0.000 OA
ENDBRANCH   1  21
BRANCH  10  22
ATOM     22  N   UNL     1       4.726   5.722  16.696  0.00  0.00    +0.000 N 
ATOM     23  H   UNL     1       4.434   6.689  16.551  0.00  0.00    +0.000 HD
BRANCH  22  24
ATOM     24  C   UNL     1       6.108   5.438  16.317  0.00  0.00    +0.000 C 
BRANCH  24  25
ATOM     25  C   UNL     1       6.348   4.848  14.972  0.00  0.00    +0.000 A 
ATOM     26  C   UNL     1       7.321   4.999  14.008  0.00  0.00    +0.000 A 
ATOM     27  C   UNL     1       6.880   4.265  12.877  0.00  0.00    +0.000 A 
ATOM     28  C   UNL     1       5.676   3.700  13.228  0.00  0.00    +0.000 A 
ATOM     29  O   UNL     1       5.349   4.042  14.499  0.00  0.00    +0.000 OA
ENDBRANCH  24  25
ENDBRANCH  22  24
ENDBRANCH  10  22
TORSDOF 5
ENDMDL
MODEL 6
REMARK VINA RESULT:      -7.5      1.918      6.514
REMARK  Name = 
REMARK  6 active torsions:
REMARK  status: ('A' for Active; 'I' for Inactive)
REMARK    1  A    between atoms: C_1  and  O_2
REMARK    2  A    between atoms: O_2  and  C_3
REMARK    3  A    between atoms: C_9  and  N_10
REMARK    4  A    between atoms: C_15  and  N_16
REMARK    5  A    between atoms: N_16  and  C_17
REMARK    6  A    between atoms: C_17  and  C_18
REMARK                            x       y       z     vdW  Elec       q    Type
REMARK                         _______ _______ _______ _____ _____    ______ ____
ROOT
ATOM      1  C   UNL     1       6.155   5.067  14.945  0.00  0.00    +0.000 A 
ATOM      2  C   UNL     1       6.210   3.732  15.356  0.00  0.00    +0.000 A 
ATOM      3  C   UNL     1       5.545   3.317  16.514  0.00  0.00    +0.000 A 
ATOM      4  C   UNL     1       4.819   4.236  17.276  0.00  0.00    +0.000 A 
ATOM      5  N   UNL     1       4.116   3.837  18.409  0.00  0.00    +0.000 N 
ATOM      6  C   UNL     1       3.254   4.663  19.156  0.00  0.00    +0.000 A 
ATOM      7  C   UNL     1       2.496   4.176  20.244  0.00  0.00    +0.000 A 
ATOM      8  C   UNL     1       1.612   5.013  20.926  0.00  0.00    +0.000 A 
ATOM      9  C   UNL     1       1.477   6.342  20.543  0.00  0.00    +0.000 A 
ATOM     10  C   UNL     1       2.215   6.898  19.480  0.00  0.00    +0.000 A 
ATOM     11  C   UNL     1       3.115   6.039  18.793  0.00  0.00    +0.000 A 
ATOM     12  C   UNL     1       3.993   6.541  17.678  0.00  0.00    +0.000 A 
ATOM     13  O   UNL     1       4.095   7.734  17.404  0.00  0.00    +0.000 OA
ATOM     14  C   UNL     1       4.768   5.569  16.864  0.00  0.00    +0.000 A 
ATOM     15  C   UNL     1       5.432   5.987  15.704  0.00  0.00    +0.000 A 
ATOM     16  H   UNL     1       4.224   2.868  18.715  0.00  0.00    +0.000 HD
ENDROOT
BRANCH   7  17
ATOM     17  N   UNL     1       2.600   2.783  20.698  0.00  0.00    +0.000 N 
ATOM     18  O   UNL     1       2.824   2.565  21.895  0.00  0.00    +0.000 OA
ATOM     19  O   UNL     1       2.471   1.894  19.842  0.00  0.00    +0.000 OA
ENDBRANCH   7  17
BRANCH   1  21
ATOM     20  C   UNL     1       6.841   4.332  12.797  0.00  0.00    +0.000 C 
ATOM     21  O   UNL     1       6.841   5.349  13.794  0.00  0.00    +0.000 OA
ENDBRANCH   1  21
BRANCH  10  22
ATOM     22  N   UNL     1       2.065   8.257  19.169  0.00  0.00    +0.000 N 
ATOM     23  H   UNL     1       1.967   8.426  18.167  0.00  0.00    +0.000 HD
BRANCH  22  24
ATOM     24  C   UNL     1       1.273   9.143  20.018  0.00  0.00    +0.000 C 
BRANCH  24  25
ATOM     25  C   UNL     1       0.141   9.874  19.387  0.00  0.00    +0.000 A 
ATOM     26  C   UNL     1      -0.319  10.018  18.096  0.00  0.00    +0.000 A 
ATOM     27  C   UNL     1      -1.356  10.986  18.148  0.00  0.00    +0.000 A 
ATOM     28  C   UNL     1      -1.473  11.357  19.466  0.00  0.00    +0.000 A 
ATOM     29  O   UNL     1      -0.575  10.682  20.227  0.00  0.00    +0.000 OA
ENDBRANCH  24  25
ENDBRANCH  22  24
ENDBRANCH  10  22
TORSDOF 5
ENDMDL
MODEL 7
REMARK VINA RESULT:      -7.3      1.744      2.445
REMARK  Name = 
REMARK  6 active torsions:
REMARK  status: ('A' for Active; 'I' for Inactive)
REMARK    1  A    between atoms: C_1  and  O_2
REMARK    2  A    between atoms: O_2  and  C_3
REMARK    3  A    between atoms: C_9  and  N_10
REMARK    4  A    between atoms: C_15  and  N_16
REMARK    5  A    between atoms: N_16  and  C_17
REMARK    6  A    between atoms: C_17  and  C_18
REMARK                            x       y       z     vdW  Elec       q    Type
REMARK                         _______ _______ _______ _____ _____    ______ ____
ROOT
ATOM      1  C   UNL     1       1.459  10.316  18.880  0.00  0.00    +0.000 A 
ATOM      2  C   UNL     1       0.815   9.794  20.005  0.00  0.00    +0.000 A 
ATOM      3  C   UNL     1       0.978   8.451  20.359  0.00  0.00    +0.000 A 
ATOM      4  C   UNL     1       1.788   7.614  19.587  0.00  0.00    +0.000 A 
ATOM      5  N   UNL     1       1.997   6.285  19.943  0.00  0.00    +0.000 N 
ATOM      6  C   UNL     1       2.897   5.410  19.304  0.00  0.00    +0.000 A 
ATOM      7  C   UNL     1       3.134   4.098  19.769  0.00  0.00    +0.000 A 
ATOM      8  C   UNL     1       4.074   3.279  19.142  0.00  0.00    +0.000 A 
ATOM      9  C   UNL     1       4.782   3.750  18.042  0.00  0.00    +0.000 A 
ATOM     10  C   UNL     1       4.581   5.041  17.514  0.00  0.00    +0.000 A 
ATOM     11  C   UNL     1       3.621   5.866  18.159  0.00  0.00    +0.000 A 
ATOM     12  C   UNL     1       3.288   7.242  17.646  0.00  0.00    +0.000 A 
ATOM     13  O   UNL     1       3.706   7.665  16.571  0.00  0.00    +0.000 OA
ATOM     14  C   UNL     1       2.428   8.138  18.462  0.00  0.00    +0.000 A 
ATOM     15  C   UNL     1       2.266   9.483  18.107  0.00  0.00    +0.000 A 
ATOM     16  H   UNL     1       1.466   5.919  20.736  0.00  0.00    +0.000 HD
ENDROOT
BRANCH   7  17
ATOM     17  N   UNL     1       2.413   3.544  20.924  0.00  0.00    +0.000 N 
ATOM     18  O   UNL     1       1.779   2.492  20.777  0.00  0.00    +0.000 OA
ATOM     19  O   UNL     1       2.471   4.177  21.988  0.00  0.00    +0.000 OA
ENDBRANCH   7  17
BRANCH   1  21
ATOM     20  C   UNL     1       0.924  12.444  19.778  0.00  0.00    +0.000 C 
ATOM     21  O   UNL     1       1.226  11.643  18.641  0.00  0.00    +0.000 OA
ENDBRANCH   1  21
BRANCH  10  22
ATOM     22  N   UNL     1       5.296   5.442  16.377  0.00  0.00    +0.000 N 
ATOM     23  H   UNL     1       5.383   6.456  16.299  0.00  0.00    +0.000 HD
BRANCH  22  24
ATOM     24  C   UNL     1       6.462   4.693  15.915  0.00  0.00    +0.000 C 
BRANCH  24  25
ATOM     25  C   UNL     1       6.701   4.623  14.448  0.00  0.00    +0.000 A 
ATOM     26  C   UNL     1       6.218   3.834  13.425  0.00  0.00    +0.000 A 
ATOM     27  C   UNL     1       6.972   4.172  12.271  0.00  0.00    +0.000 A 
ATOM     28  C   UNL     1       7.851   5.156  12.658  0.00  0.00    +0.000 A 
ATOM     29  O   UNL     1       7.689   5.441  13.974  0.00  0.00    +0.000 OA
ENDBRANCH  24  25
ENDBRANCH  22  24
ENDBRANCH  10  22
TORSDOF 5
ENDMDL
MODEL 8
REMARK VINA RESULT:      -7.3      1.946      6.469
REMARK  Name = 
REMARK  6 active torsions:
REMARK  status: ('A' for Active; 'I' for Inactive)
REMARK    1  A    between atoms: C_1  and  O_2
REMARK    2  A    between atoms: O_2  and  C_3
REMARK    3  A    between atoms: C_9  and  N_10
REMARK    4  A    between atoms: C_15  and  N_16
REMARK    5  A    between atoms: N_16  and  C_17
REMARK    6  A    between atoms: C_17  and  C_18
REMARK                            x       y       z     vdW  Elec       q    Type
REMARK                         _______ _______ _______ _____ _____    ______ ____
ROOT
ATOM      1  C   UNL     1       6.176   4.982  14.944  0.00  0.00    +0.000 A 
ATOM      2  C   UNL     1       6.157   3.657  15.387  0.00  0.00    +0.000 A 
ATOM      3  C   UNL     1       5.460   3.305  16.548  0.00  0.00    +0.000 A 
ATOM      4  C   UNL     1       4.775   4.279  17.279  0.00  0.00    +0.000 A 
ATOM      5  N   UNL     1       4.041   3.945  18.414  0.00  0.00    +0.000 N 
ATOM      6  C   UNL     1       3.217   4.832  19.132  0.00  0.00    +0.000 A 
ATOM      7  C   UNL     1       2.423   4.412  20.222  0.00  0.00    +0.000 A 
ATOM      8  C   UNL     1       1.578   5.310  20.874  0.00  0.00    +0.000 A 
ATOM      9  C   UNL     1       1.516   6.634  20.458  0.00  0.00    +0.000 A 
ATOM     10  C   UNL     1       2.293   7.125  19.391  0.00  0.00    +0.000 A 
ATOM     11  C   UNL     1       3.153   6.204  18.734  0.00  0.00    +0.000 A 
ATOM     12  C   UNL     1       4.068   6.632  17.617  0.00  0.00    +0.000 A 
ATOM     13  O   UNL     1       4.235   7.811  17.317  0.00  0.00    +0.000 OA
ATOM     14  C   UNL     1       4.798   5.602  16.835  0.00  0.00    +0.000 A 
ATOM     15  C   UNL     1       5.495   5.956  15.673  0.00  0.00    +0.000 A 
ATOM     16  H   UNL     1       4.096   2.979  18.745  0.00  0.00    +0.000 HD
ENDROOT
BRANCH   7  17
ATOM     17  N   UNL     1       2.450   3.026  20.710  0.00  0.00    +0.000 N 
ATOM     18  O   UNL     1       2.218   2.112  19.910  0.00  0.00    +0.000 OA
ATOM     19  O   UNL     1       2.694   2.851  21.913  0.00  0.00    +0.000 OA
ENDBRANCH   7  17
BRANCH   1  21
ATOM     20  C   UNL     1       6.873   4.146  12.837  0.00  0.00    +0.000 C 
ATOM     21  O   UNL     1       6.887   5.199  13.795  0.00  0.00    +0.000 OA
ENDBRANCH   1  21
BRANCH  10  22
ATOM     22  N   UNL     1       2.217   8.482  19.045  0.00  0.00    +0.000 N 
ATOM     23  H   UNL     1       3.122   8.879  18.792  0.00  0.00    +0.000 HD
BRANCH  22  24
ATOM     24  C   UNL     1       1.086   9.004  18.283  0.00  0.00    +0.000 C 
BRANCH  24  25
ATOM     25  C   UNL     1       0.224  10.025  18.937  0.00  0.00    +0.000 A 
ATOM     26  C   UNL     1       0.056  10.463  20.234  0.00  0.00    +0.000 A 
ATOM     27  C   UNL     1      -1.047  11.356  20.212  0.00  0.00    +0.000 A 
ATOM     28  C   UNL     1      -1.469  11.420  18.906  0.00  0.00    +0.000 A 
ATOM     29  O   UNL     1      -0.699  10.623  18.123  0.00  0.00    +0.000 OA
ENDBRANCH  24  25
ENDBRANCH  22  24
ENDBRANCH  10  22
TORSDOF 5
ENDMDL
MODEL 9
REMARK VINA RESULT:      -7.2      0.839      1.155
REMARK  Name = 
REMARK  6 active torsions:
REMARK  status: ('A' for Active; 'I' for Inactive)
REMARK    1  A    between atoms: C_1  and  O_2
REMARK    2  A    between atoms: O_2  and  C_3
REMARK    3  A    between atoms: C_9  and  N_10
REMARK    4  A    between atoms: C_15  and  N_16
REMARK    5  A    between atoms: N_16  and  C_17
REMARK    6  A    between atoms: C_17  and  C_18
REMARK                            x       y       z     vdW  Elec       q    Type
REMARK                         _______ _______ _______ _____ _____    ______ ____
ROOT
ATOM      1  C   UNL     1       0.992  10.119  20.263  0.00  0.00    +0.000 A 
ATOM      2  C   UNL     1       0.573   9.444  21.412  0.00  0.00    +0.000 A 
ATOM      3  C   UNL     1       0.805   8.072  21.556  0.00  0.00    +0.000 A 
ATOM      4  C   UNL     1       1.459   7.360  20.547  0.00  0.00    +0.000 A 
ATOM      5  N   UNL     1       1.737   6.003  20.686  0.00  0.00    +0.000 N 
ATOM      6  C   UNL     1       2.505   5.240  19.785  0.00  0.00    +0.000 A 
ATOM      7  C   UNL     1       2.831   3.888  20.027  0.00  0.00    +0.000 A 
ATOM      8  C   UNL     1       3.639   3.180  19.137  0.00  0.00    +0.000 A 
ATOM      9  C   UNL     1       4.126   3.803  17.994  0.00  0.00    +0.000 A 
ATOM     10  C   UNL     1       3.825   5.143  17.681  0.00  0.00    +0.000 A 
ATOM     11  C   UNL     1       2.999   5.855  18.593  0.00  0.00    +0.000 A 
ATOM     12  C   UNL     1       2.570   7.274  18.330  0.00  0.00    +0.000 A 
ATOM     13  O   UNL     1       2.777   7.839  17.260  0.00  0.00    +0.000 OA
ATOM     14  C   UNL     1       1.875   8.037  19.399  0.00  0.00    +0.000 A 
ATOM     15  C   UNL     1       1.644   9.411  19.254  0.00  0.00    +0.000 A 
ATOM     16  H   UNL     1       1.366   5.527  21.511  0.00  0.00    +0.000 HD
ENDROOT
BRANCH   7  17
ATOM     17  N   UNL     1       2.341   3.174  21.215  0.00  0.00    +0.000 N 
ATOM     18  O   UNL     1       3.140   2.492  21.868  0.00  0.00    +0.000 OA
ATOM     19  O   UNL     1       1.137   3.287  21.491  0.00  0.00    +0.000 OA
ENDBRANCH   7  17
BRANCH   1  21
ATOM     20  C   UNL     1       1.056  12.155  19.049  0.00  0.00    +0.000 C 
ATOM     21  O   UNL     1       0.713  11.458  20.242  0.00  0.00    +0.000 OA
ENDBRANCH   1  21
BRANCH  10  22
ATOM     22  N   UNL     1       4.312   5.703  16.492  0.00  0.00    +0.000 N 
ATOM     23  H   UNL     1       3.587   6.166  15.944  0.00  0.00    +0.000 HD
BRANCH  22  24
ATOM     24  C   UNL     1       5.621   6.349  16.442  0.00  0.00    +0.000 C 
BRANCH  24  25
ATOM     25  C   UNL     1       6.698   5.795  17.307  0.00  0.00    +0.000 A 
ATOM     26  C   UNL     1       7.489   4.667  17.265  0.00  0.00    +0.000 A 
ATOM     27  C   UNL     1       8.214   4.643  18.485  0.00  0.00    +0.000 A 
ATOM     28  C   UNL     1       7.832   5.764  19.184  0.00  0.00    +0.000 A 
ATOM     29  O   UNL     1       6.919   6.473  18.475  0.00  0.00    +0.000 OA
ENDBRANCH  24  25
ENDBRANCH  22  24
ENDBRANCH  10  22
TORSDOF 5
ENDMDL
