MODEL 1
REMARK VINA RESULT:      -8.2      0.000      0.000
REMARK  Name = 
REMARK  5 active torsions:
REMARK  status: ('A' for Active; 'I' for Inactive)
REMARK    1  A    between atoms: C_2  and  C_3
REMARK    2  A    between atoms: C_3  and  N_4
REMARK    3  A    between atoms: N_15  and  C_16
REMARK    4  A    between atoms: C_19  and  O_20
REMARK    5  A    between atoms: O_20  and  C_21
REMARK                            x       y       z     vdW  Elec       q    Type
REMARK                         _______ _______ _______ _____ _____    ______ ____
ROOT
ATOM      1  O   UNL     1       1.173   4.810  20.100  0.00  0.00    +0.000 OA
ATOM      2  C   UNL     1       2.359   5.099  19.975  0.00  0.00    +0.000 C 
ATOM      3  N   UNL     1       2.857   6.368  19.701  0.00  0.00    +0.000 N 
ATOM      4  H   UNL     1       3.806   6.419  19.338  0.00  0.00    +0.000 HD
ENDROOT
BRANCH   3   5
ATOM      5  C   UNL     1       2.114   7.572  19.714  0.00  0.00    +0.000 A 
ATOM      6  C   UNL     1       1.975   8.398  18.599  0.00  0.00    +0.000 A 
ATOM      7  C   UNL     1       1.217   9.572  18.673  0.00  0.00    +0.000 A 
ATOM      8  C   UNL     1       0.587   9.959  19.862  0.00  0.00    +0.000 A 
ATOM      9  C   UNL     1       0.700   9.118  20.974  0.00  0.00    +0.000 A 
ATOM     10 CL   UNL     1      -0.118   9.394  22.470  0.00  0.00    +0.000 Cl
ATOM     11  C   UNL     1       1.456   7.932  20.894  0.00  0.00    +0.000 A 
BRANCH   8  12
ATOM     12  O   UNL     1      -0.161  11.094  19.728  0.00  0.00    +0.000 OA
BRANCH  12  13
ATOM     13  C   UNL     1      -1.397  11.001  19.041  0.00  0.00    +0.000 C 
ATOM     14  F   UNL     1      -2.369  11.642  19.732  0.00  0.00    +0.000 F 
ATOM     15  F   UNL     1      -1.247  11.684  17.870  0.00  0.00    +0.000 F 
ENDBRANCH  12  13
ENDBRANCH   8  12
ENDBRANCH   3   5
BRANCH   2  16
ATOM     16  C   UNL     1       3.434   4.014  20.004  0.00  0.00    +0.000 C 
BRANCH  16  17
ATOM     17  N   UNL     1       4.262   4.117  18.824  0.00  0.00    +0.000 N 
ATOM     18  C   UNL     1       5.562   4.575  18.824  0.00  0.00    +0.000 C 
ATOM     19  O   UNL     1       6.259   4.854  19.781  0.00  0.00    +0.000 OA
ATOM     20  C   UNL     1       5.904   4.814  17.378  0.00  0.00    +0.000 C 
ATOM     21  C   UNL     1       7.333   4.725  16.891  0.00  0.00    +0.000 C 
ATOM     22  C   UNL     1       7.345   4.967  15.371  0.00  0.00    +0.000 C 
ATOM     23  C   UNL     1       6.353   4.070  14.607  0.00  0.00    +0.000 C 
ATOM     24  C   UNL     1       4.937   4.082  15.211  0.00  0.00    +0.000 C 
ATOM     25  C   UNL     1       5.047   3.763  16.688  0.00  0.00    +0.000 C 
ATOM     26  C   UNL     1       3.827   3.760  17.569  0.00  0.00    +0.000 C 
ATOM     27  O   UNL     1       2.703   3.384  17.274  0.00  0.00    +0.000 OA
ENDBRANCH  16  17
ENDBRANCH   2  16
TORSDOF 5
ENDMDL
MODEL 2
REMARK VINA RESULT:      -8.2      1.056      2.049
REMARK  Name = 
REMARK  5 active torsions:
REMARK  status: ('A' for Active; 'I' for Inactive)
REMARK    1  A    between atoms: C_2  and  C_3
REMARK    2  A    between atoms: C_3  and  N_4
REMARK    3  A    between atoms: N_15  and  C_16
REMARK    4  A    between atoms: C_19  and  O_20
REMARK    5  A    between atoms: O_20  and  C_21
REMARK                            x       y       z     vdW  Elec       q    Type
REMARK                         _______ _______ _______ _____ _____    ______ ____
ROOT
ATOM      1  O   UNL     1       1.208   4.830  20.242  0.00  0.00    +0.000 OA
ATOM      2  C   UNL     1       2.381   5.150  20.080  0.00  0.00    +0.000 C 
ATOM      3  N   UNL     1       2.836   6.432  19.795  0.00  0.00    +0.000 N 
ATOM      4  H   UNL     1       3.772   6.509  19.402  0.00  0.00    +0.000 HD
ENDROOT
BRANCH   3   5
ATOM      5  C   UNL     1       2.064   7.617  19.837  0.00  0.00    +0.000 A 
ATOM      6  C   UNL     1       1.883   8.452  18.736  0.00  0.00    +0.000 A 
ATOM      7  C   UNL     1       1.098   9.606  18.840  0.00  0.00    +0.000 A 
ATOM      8  C   UNL     1       0.481   9.962  20.045  0.00  0.00    +0.000 A 
ATOM      9  C   UNL     1       0.637   9.110  21.144  0.00  0.00    +0.000 A 
ATOM     10 CL   UNL     1      -0.159   9.346  22.659  0.00  0.00    +0.000 Cl
ATOM     11  C   UNL     1       1.421   7.944  21.034  0.00  0.00    +0.000 A 
BRANCH   8  12
ATOM     12  O   UNL     1      -0.298  11.079  19.941  0.00  0.00    +0.000 OA
BRANCH  12  13
ATOM     13  C   UNL     1       0.288  12.332  20.244  0.00  0.00    +0.000 C 
ATOM     14  F   UNL     1       1.421  12.159  20.965  0.00  0.00    +0.000 F 
ATOM     15  F   UNL     1       0.670  12.885  19.058  0.00  0.00    +0.000 F 
ENDBRANCH  12  13
ENDBRANCH   8  12
ENDBRANCH   3   5
BRANCH   2  16
ATOM     16  C   UNL     1       3.484   4.092  20.068  0.00  0.00    +0.000 C 
BRANCH  16  17
ATOM     17  N   UNL     1       4.253   4.204  18.849  0.00  0.00    +0.000 N 
ATOM     18  C   UNL     1       3.774   3.882  17.598  0.00  0.00    +0.000 C 
ATOM     19  O   UNL     1       2.641   3.570  17.284  0.00  0.00    +0.000 OA
ATOM     20  C   UNL     1       4.985   3.839  16.704  0.00  0.00    +0.000 C 
ATOM     21  C   UNL     1       4.870   4.124  15.223  0.00  0.00    +0.000 C 
ATOM     22  C   UNL     1       6.277   4.055  14.604  0.00  0.00    +0.000 C 
ATOM     23  C   UNL     1       7.309   4.926  15.344  0.00  0.00    +0.000 C 
ATOM     24  C   UNL     1       7.307   4.705  16.868  0.00  0.00    +0.000 C 
ATOM     25  C   UNL     1       5.886   4.868  17.369  0.00  0.00    +0.000 C 
ATOM     26  C   UNL     1       5.552   4.652  18.821  0.00  0.00    +0.000 C 
ATOM     27  O   UNL     1       6.238   4.943  19.788  0.00  0.00    +0.000 OA
ENDBRANCH  16  17
ENDBRANCH   2  16
TORSDOF 5
ENDMDL
MODEL 3
REMARK VINA RESULT:      -8.2      1.065      1.080
REMARK  Name = 
REMARK  5 active torsions:
REMARK  status: ('A' for Active; 'I' for Inactive)
REMARK    1  A    between atoms: C_2  and  C_3
REMARK    2  A    between atoms: C_3  and  N_4
REMARK    3  A    between atoms: N_15  and  C_16
REMARK    4  A    between atoms: C_19  and  O_20
REMARK    5  A    between atoms: O_20  and  C_21
REMARK                            x       y       z     vdW  Elec       q    Type
REMARK                         _______ _______ _______ _____ _____    ______ ____
ROOT
ATOM      1  O   UNL     1       1.162   4.779  20.259  0.00  0.00    +0.000 OA
ATOM      2  C   UNL     1       2.344   5.072  20.103  0.00  0.00    +0.000 C 
ATOM      3  N   UNL     1       2.829   6.343  19.816  0.00  0.00    +0.000 N 
ATOM      4  H   UNL     1       3.769   6.397  19.429  0.00  0.00    +0.000 HD
ENDROOT
BRANCH   3   5
ATOM      5  C   UNL     1       2.083   7.544  19.848  0.00  0.00    +0.000 A 
ATOM      6  C   UNL     1       1.922   8.375  18.740  0.00  0.00    +0.000 A 
ATOM      7  C   UNL     1       1.162   9.547  18.834  0.00  0.00    +0.000 A 
ATOM      8  C   UNL     1       0.552   9.925  20.036  0.00  0.00    +0.000 A 
ATOM      9  C   UNL     1       0.687   9.079  21.142  0.00  0.00    +0.000 A 
ATOM     10 CL   UNL     1      -0.105   9.344  22.653  0.00  0.00    +0.000 Cl
ATOM     11  C   UNL     1       1.445   7.895  21.042  0.00  0.00    +0.000 A 
BRANCH   8  12
ATOM     12  O   UNL     1      -0.202  11.058  19.921  0.00  0.00    +0.000 OA
BRANCH  12  13
ATOM     13  C   UNL     1       0.421  12.304  20.180  0.00  0.00    +0.000 C 
ATOM     14  F   UNL     1       1.602  12.116  20.815  0.00  0.00    +0.000 F 
ATOM     15  F   UNL     1       0.722  12.852  18.969  0.00  0.00    +0.000 F 
ENDBRANCH  12  13
ENDBRANCH   8  12
ENDBRANCH   3   5
BRANCH   2  16
ATOM     16  C   UNL     1       3.423   3.990  20.104  0.00  0.00    +0.000 C 
BRANCH  16  17
ATOM     17  N   UNL     1       4.229   4.106  18.909  0.00  0.00    +0.000 N 
ATOM     18  C   UNL     1       5.519   4.590  18.887  0.00  0.00    +0.000 C 
ATOM     19  O   UNL     1       6.226   4.888  19.832  0.00  0.00    +0.000 OA
ATOM     20  C   UNL     1       5.832   4.832  17.435  0.00  0.00    +0.000 C 
ATOM     21  C   UNL     1       7.255   4.770  16.926  0.00  0.00    +0.000 C 
ATOM     22  C   UNL     1       7.237   5.007  15.405  0.00  0.00    +0.000 C 
ATOM     23  C   UNL     1       6.252   4.087  14.660  0.00  0.00    +0.000 C 
ATOM     24  C   UNL     1       4.846   4.072  15.287  0.00  0.00    +0.000 C 
ATOM     25  C   UNL     1       4.986   3.761  16.763  0.00  0.00    +0.000 C 
ATOM     26  C   UNL     1       3.781   3.735  17.664  0.00  0.00    +0.000 C 
ATOM     27  O   UNL     1       2.661   3.336  17.387  0.00  0.00    +0.000 OA
ENDBRANCH  16  17
ENDBRANCH   2  16
TORSDOF 5
ENDMDL
MODEL 4
REMARK VINA RESULT:      -8.1      0.505      1.882
REMARK  Name = 
REMARK  5 active torsions:
REMARK  status: ('A' for Active; 'I' for Inactive)
REMARK    1  A    between atoms: C_2  and  C_3
REMARK    2  A    between atoms: C_3  and  N_4
REMARK    3  A    between atoms: N_15  and  C_16
REMARK    4  A    between atoms: C_19  and  O_20
REMARK    5  A    between atoms: O_20  and  C_21
REMARK                            x       y       z     vdW  Elec       q    Type
REMARK                         _______ _______ _______ _____ _____    ______ ____
ROOT
ATOM      1  O   UNL     1       1.198   5.044  20.191  0.00  0.00    +0.000 OA
ATOM      2  C   UNL     1       2.367   5.271  19.895  0.00  0.00    +0.000 C 
ATOM      3  N   UNL     1       2.863   6.487  19.440  0.00  0.00    +0.000 N 
ATOM      4  H   UNL     1       3.761   6.465  18.961  0.00  0.00    +0.000 HD
ENDROOT
BRANCH   3   5
ATOM      5  C   UNL     1       2.163   7.717  19.426  0.00  0.00    +0.000 A 
ATOM      6  C   UNL     1       2.030   8.509  18.286  0.00  0.00    +0.000 A 
ATOM      7  C   UNL     1       1.316   9.712  18.335  0.00  0.00    +0.000 A 
ATOM      8  C   UNL     1       0.725  10.161  19.521  0.00  0.00    +0.000 A 
ATOM      9  C   UNL     1       0.831   9.354  20.660  0.00  0.00    +0.000 A 
ATOM     10 CL   UNL     1       0.055   9.709  22.161  0.00  0.00    +0.000 Cl
ATOM     11  C   UNL     1       1.544   8.139  20.606  0.00  0.00    +0.000 A 
BRANCH   8  12
ATOM     12  O   UNL     1       0.014  11.316  19.364  0.00  0.00    +0.000 OA
BRANCH  12  13
ATOM     13  C   UNL     1      -1.377  11.215  19.113  0.00  0.00    +0.000 C 
ATOM     14  F   UNL     1      -1.726   9.922  18.911  0.00  0.00    +0.000 F 
ATOM     15  F   UNL     1      -2.012  11.608  20.254  0.00  0.00    +0.000 F 
ENDBRANCH  12  13
ENDBRANCH   8  12
ENDBRANCH   3   5
BRANCH   2  16
ATOM     16  C   UNL     1       3.404   4.150  19.898  0.00  0.00    +0.000 C 
BRANCH  16  17
ATOM     17  N   UNL     1       4.226   4.243  18.712  0.00  0.00    +0.000 N 
ATOM     18  C   UNL     1       3.795   3.929  17.442  0.00  0.00    +0.000 C 
ATOM     19  O   UNL     1       2.669   3.639  17.081  0.00  0.00    +0.000 OA
ATOM     20  C   UNL     1       5.041   3.860  16.601  0.00  0.00    +0.000 C 
ATOM     21  C   UNL     1       4.993   4.145  15.116  0.00  0.00    +0.000 C 
ATOM     22  C   UNL     1       6.424   4.045  14.556  0.00  0.00    +0.000 C 
ATOM     23  C   UNL     1       7.441   4.897  15.338  0.00  0.00    +0.000 C 
ATOM     24  C   UNL     1       7.370   4.679  16.861  0.00  0.00    +0.000 C 
ATOM     25  C   UNL     1       5.934   4.872  17.302  0.00  0.00    +0.000 C 
ATOM     26  C   UNL     1       5.534   4.665  18.739  0.00  0.00    +0.000 C 
ATOM     27  O   UNL     1       6.184   4.944  19.733  0.00  0.00    +0.000 OA
ENDBRANCH  16  17
ENDBRANCH   2  16
TORSDOF 5
ENDMDL
MODEL 5
REMARK VINA RESULT:      -7.9      1.158      2.325
REMARK  Name = 
REMARK  5 active torsions:
REMARK  status: ('A' for Active; 'I' for Inactive)
REMARK    1  A    between atoms: C_2  and  C_3
REMARK    2  A    between atoms: C_3  and  N_4
REMARK    3  A    between atoms: N_15  and  C_16
REMARK    4  A    between atoms: C_19  and  O_20
REMARK    5  A    between atoms: O_20  and  C_21
REMARK                            x       y       z     vdW  Elec       q    Type
REMARK                         _______ _______ _______ _____ _____    ______ ____
ROOT
ATOM      1  O   UNL     1       1.142   4.527  20.382  0.00  0.00    +0.000 OA
ATOM      2  C   UNL     1       2.310   4.807  20.131  0.00  0.00    +0.000 C 
ATOM      3  N   UNL     1       2.790   6.078  19.834  0.00  0.00    +0.000 N 
ATOM      4  H   UNL     1       3.693   6.129  19.367  0.00  0.00    +0.000 HD
ENDROOT
BRANCH   3   5
ATOM      5  C   UNL     1       2.069   7.288  19.960  0.00  0.00    +0.000 A 
ATOM      6  C   UNL     1       1.288   7.603  21.071  0.00  0.00    +0.000 A 
ATOM      7  C   UNL     1       0.606   8.823  21.140  0.00  0.00    +0.000 A 
ATOM      8  C   UNL     1       0.678   9.757  20.100  0.00  0.00    +0.000 A 
ATOM      9  C   UNL     1       1.484   9.458  18.996  0.00  0.00    +0.000 A 
ATOM     10 CL   UNL     1       1.771  10.556  17.695  0.00  0.00    +0.000 Cl
ATOM     11  C   UNL     1       2.176   8.232  18.934  0.00  0.00    +0.000 A 
BRANCH   8  12
ATOM     12  O   UNL     1       0.006  10.915  20.371  0.00  0.00    +0.000 OA
BRANCH  12  13
ATOM     13  C   UNL     1      -1.188  11.177  19.654  0.00  0.00    +0.000 C 
ATOM     14  F   UNL     1      -0.949  12.051  18.648  0.00  0.00    +0.000 F 
ATOM     15  F   UNL     1      -1.557  10.006  19.063  0.00  0.00    +0.000 F 
ENDBRANCH  12  13
ENDBRANCH   8  12
ENDBRANCH   3   5
BRANCH   2  16
ATOM     16  C   UNL     1       3.368   3.711  20.011  0.00  0.00    +0.000 C 
BRANCH  16  17
ATOM     17  N   UNL     1       4.165   3.931  18.825  0.00  0.00    +0.000 N 
ATOM     18  C   UNL     1       3.742   3.659  17.543  0.00  0.00    +0.000 C 
ATOM     19  O   UNL     1       2.636   3.308  17.176  0.00  0.00    +0.000 OA
ATOM     20  C   UNL     1       4.979   3.729  16.689  0.00  0.00    +0.000 C 
ATOM     21  C   UNL     1       4.893   4.093  15.223  0.00  0.00    +0.000 C 
ATOM     22  C   UNL     1       6.319   4.130  14.647  0.00  0.00    +0.000 C 
ATOM     23  C   UNL     1       7.282   5.008  15.468  0.00  0.00    +0.000 C 
ATOM     24  C   UNL     1       7.246   4.700  16.976  0.00  0.00    +0.000 C 
ATOM     25  C   UNL     1       5.805   4.762  17.439  0.00  0.00    +0.000 C 
ATOM     26  C   UNL     1       5.440   4.446  18.865  0.00  0.00    +0.000 C 
ATOM     27  O   UNL     1       6.080   4.715  19.868  0.00  0.00    +0.000 OA
ENDBRANCH  16  17
ENDBRANCH   2  16
TORSDOF 5
ENDMDL
MODEL 6
REMARK VINA RESULT:      -7.8      1.179      1.545
REMARK  Name = 
REMARK  5 active torsions:
REMARK  status: ('A' for Active; 'I' for Inactive)
REMARK    1  A    between atoms: C_2  and  C_3
REMARK    2  A    between atoms: C_3  and  N_4
REMARK    3  A    between atoms: N_15  and  C_16
REMARK    4  A    between atoms: C_19  and  O_20
REMARK    5  A    between atoms: O_20  and  C_21
REMARK                            x       y       z     vdW  Elec       q    Type
REMARK                         _______ _______ _______ _____ _____    ______ ____
ROOT
ATOM      1  O   UNL     1       1.190   4.472  20.408  0.00  0.00    +0.000 OA
ATOM      2  C   UNL     1       2.353   4.742  20.122  0.00  0.00    +0.000 C 
ATOM      3  N   UNL     1       2.831   6.007  19.797  0.00  0.00    +0.000 N 
ATOM      4  H   UNL     1       3.721   6.047  19.305  0.00  0.00    +0.000 HD
ENDROOT
BRANCH   3   5
ATOM      5  C   UNL     1       2.121   7.223  19.930  0.00  0.00    +0.000 A 
ATOM      6  C   UNL     1       1.349   7.541  21.046  0.00  0.00    +0.000 A 
ATOM      7  C   UNL     1       0.678   8.767  21.121  0.00  0.00    +0.000 A 
ATOM      8  C   UNL     1       0.752   9.703  20.083  0.00  0.00    +0.000 A 
ATOM      9  C   UNL     1       1.550   9.400  18.974  0.00  0.00    +0.000 A 
ATOM     10 CL   UNL     1       1.840  10.498  17.674  0.00  0.00    +0.000 Cl
ATOM     11  C   UNL     1       2.231   8.168  18.905  0.00  0.00    +0.000 A 
BRANCH   8  12
ATOM     12  O   UNL     1       0.091  10.866  20.360  0.00  0.00    +0.000 OA
BRANCH  12  13
ATOM     13  C   UNL     1      -1.118  11.127  19.670  0.00  0.00    +0.000 C 
ATOM     14  F   UNL     1      -0.900  11.988  18.648  0.00  0.00    +0.000 F 
ATOM     15  F   UNL     1      -1.509   9.951  19.102  0.00  0.00    +0.000 F 
ENDBRANCH  12  13
ENDBRANCH   8  12
ENDBRANCH   3   5
BRANCH   2  16
ATOM     16  C   UNL     1       3.400   3.638  19.985  0.00  0.00    +0.000 C 
BRANCH  16  17
ATOM     17  N   UNL     1       4.220   3.886  18.820  0.00  0.00    +0.000 N 
ATOM     18  C   UNL     1       5.448   4.510  18.854  0.00  0.00    +0.000 C 
ATOM     19  O   UNL     1       6.092   4.848  19.829  0.00  0.00    +0.000 OA
ATOM     20  C   UNL     1       5.771   4.838  17.421  0.00  0.00    +0.000 C 
ATOM     21  C   UNL     1       7.205   4.953  16.953  0.00  0.00    +0.000 C 
ATOM     22  C   UNL     1       7.201   5.242  15.442  0.00  0.00    +0.000 C 
ATOM     23  C   UNL     1       6.344   4.248  14.636  0.00  0.00    +0.000 C 
ATOM     24  C   UNL     1       4.932   4.055  15.219  0.00  0.00    +0.000 C 
ATOM     25  C   UNL     1       5.067   3.706  16.687  0.00  0.00    +0.000 C 
ATOM     26  C   UNL     1       3.849   3.515  17.549  0.00  0.00    +0.000 C 
ATOM     27  O   UNL     1       2.788   3.005  17.226  0.00  0.00    +0.000 OA
ENDBRANCH  16  17
ENDBRANCH   2  16
TORSDOF 5
ENDMDL
MODEL 7
REMARK VINA RESULT:      -7.8      1.574      1.845
REMARK  Name = 
REMARK  5 active torsions:
REMARK  status: ('A' for Active; 'I' for Inactive)
REMARK    1  A    between atoms: C_2  and  C_3
REMARK    2  A    between atoms: C_3  and  N_4
REMARK    3  A    between atoms: N_15  and  C_16
REMARK    4  A    between atoms: C_19  and  O_20
REMARK    5  A    between atoms: O_20  and  C_21
REMARK                            x       y       z     vdW  Elec       q    Type
REMARK                         _______ _______ _______ _____ _____    ______ ____
ROOT
ATOM      1  O   UNL     1       1.172   4.523  19.883  0.00  0.00    +0.000 OA
ATOM      2  C   UNL     1       2.337   4.889  20.005  0.00  0.00    +0.000 C 
ATOM      3  N   UNL     1       2.770   6.210  20.036  0.00  0.00    +0.000 N 
ATOM      4  H   UNL     1       3.757   6.373  19.847  0.00  0.00    +0.000 HD
ENDROOT
BRANCH   3   5
ATOM      5  C   UNL     1       1.942   7.353  20.131  0.00  0.00    +0.000 A 
ATOM      6  C   UNL     1       1.102   7.603  21.215  0.00  0.00    +0.000 A 
ATOM      7  C   UNL     1       0.314   8.759  21.254  0.00  0.00    +0.000 A 
ATOM      8  C   UNL     1       0.336   9.691  20.210  0.00  0.00    +0.000 A 
ATOM      9  C   UNL     1       1.201   9.459  19.134  0.00  0.00    +0.000 A 
ATOM     10 CL   UNL     1       1.432  10.572  17.834  0.00  0.00    +0.000 Cl
ATOM     11  C   UNL     1       1.999   8.298  19.102  0.00  0.00    +0.000 A 
BRANCH   8  12
ATOM     12  O   UNL     1      -0.443  10.787  20.452  0.00  0.00    +0.000 OA
BRANCH  12  13
ATOM     13  C   UNL     1       0.126  11.863  21.176  0.00  0.00    +0.000 C 
ATOM     14  F   UNL     1      -0.203  11.773  22.487  0.00  0.00    +0.000 F 
ATOM     15  F   UNL     1       1.479  11.711  21.111  0.00  0.00    +0.000 F 
ENDBRANCH  12  13
ENDBRANCH   8  12
ENDBRANCH   3   5
BRANCH   2  16
ATOM     16  C   UNL     1       3.477   3.872  20.025  0.00  0.00    +0.000 C 
BRANCH  16  17
ATOM     17  N   UNL     1       4.290   4.029  18.840  0.00  0.00    +0.000 N 
ATOM     18  C   UNL     1       5.566   4.550  18.837  0.00  0.00    +0.000 C 
ATOM     19  O   UNL     1       6.255   4.854  19.793  0.00  0.00    +0.000 OA
ATOM     20  C   UNL     1       5.885   4.822  17.392  0.00  0.00    +0.000 C 
ATOM     21  C   UNL     1       7.314   4.809  16.895  0.00  0.00    +0.000 C 
ATOM     22  C   UNL     1       7.303   5.068  15.378  0.00  0.00    +0.000 C 
ATOM     23  C   UNL     1       6.351   4.131  14.610  0.00  0.00    +0.000 C 
ATOM     24  C   UNL     1       4.940   4.066  15.223  0.00  0.00    +0.000 C 
ATOM     25  C   UNL     1       5.077   3.737  16.696  0.00  0.00    +0.000 C 
ATOM     26  C   UNL     1       3.864   3.664  17.585  0.00  0.00    +0.000 C 
ATOM     27  O   UNL     1       2.759   3.236  17.292  0.00  0.00    +0.000 OA
ENDBRANCH  16  17
ENDBRANCH   2  16
TORSDOF 5
ENDMDL
MODEL 8
REMARK VINA RESULT:      -7.8      1.461      2.543
REMARK  Name = 
REMARK  5 active torsions:
REMARK  status: ('A' for Active; 'I' for Inactive)
REMARK    1  A    between atoms: C_2  and  C_3
REMARK    2  A    between atoms: C_3  and  N_4
REMARK    3  A    between atoms: N_15  and  C_16
REMARK    4  A    between atoms: C_19  and  O_20
REMARK    5  A    between atoms: O_20  and  C_21
REMARK                            x       y       z     vdW  Elec       q    Type
REMARK                         _______ _______ _______ _____ _____    ______ ____
ROOT
ATOM      1  O   UNL     1       1.222   4.490  20.183  0.00  0.00    +0.000 OA
ATOM      2  C   UNL     1       2.393   4.846  20.092  0.00  0.00    +0.000 C 
ATOM      3  N   UNL     1       2.828   6.157  19.938  0.00  0.00    +0.000 N 
ATOM      4  H   UNL     1       3.775   6.286  19.587  0.00  0.00    +0.000 HD
ENDROOT
BRANCH   3   5
ATOM      5  C   UNL     1       2.029   7.317  20.058  0.00  0.00    +0.000 A 
ATOM      6  C   UNL     1       1.246   7.597  21.177  0.00  0.00    +0.000 A 
ATOM      7  C   UNL     1       0.484   8.769  21.238  0.00  0.00    +0.000 A 
ATOM      8  C   UNL     1       0.475   9.688  20.183  0.00  0.00    +0.000 A 
ATOM      9  C   UNL     1       1.282   9.426  19.070  0.00  0.00    +0.000 A 
ATOM     10 CL   UNL     1       1.473  10.518  17.747  0.00  0.00    +0.000 Cl
ATOM     11  C   UNL     1       2.055   8.249  19.015  0.00  0.00    +0.000 A 
BRANCH   8  12
ATOM     12  O   UNL     1      -0.271  10.802  20.447  0.00  0.00    +0.000 OA
BRANCH  12  13
ATOM     13  C   UNL     1       0.327  11.841  21.203  0.00  0.00    +0.000 C 
ATOM     14  F   UNL     1       1.413  12.327  20.557  0.00  0.00    +0.000 F 
ATOM     15  F   UNL     1      -0.576  12.861  21.252  0.00  0.00    +0.000 F 
ENDBRANCH  12  13
ENDBRANCH   8  12
ENDBRANCH   3   5
BRANCH   2  16
ATOM     16  C   UNL     1       3.518   3.815  20.027  0.00  0.00    +0.000 C 
BRANCH  16  17
ATOM     17  N   UNL     1       4.285   4.007  18.816  0.00  0.00    +0.000 N 
ATOM     18  C   UNL     1       3.832   3.697  17.552  0.00  0.00    +0.000 C 
ATOM     19  O   UNL     1       2.720   3.329  17.222  0.00  0.00    +0.000 OA
ATOM     20  C   UNL     1       5.048   3.751  16.666  0.00  0.00    +0.000 C 
ATOM     21  C   UNL     1       4.922   4.074  15.194  0.00  0.00    +0.000 C 
ATOM     22  C   UNL     1       6.334   4.105  14.581  0.00  0.00    +0.000 C 
ATOM     23  C   UNL     1       7.310   5.012  15.354  0.00  0.00    +0.000 C 
ATOM     24  C   UNL     1       7.314   4.745  16.870  0.00  0.00    +0.000 C 
ATOM     25  C   UNL     1       5.884   4.810  17.367  0.00  0.00    +0.000 C 
ATOM     26  C   UNL     1       5.556   4.531  18.810  0.00  0.00    +0.000 C 
ATOM     27  O   UNL     1       6.219   4.832  19.789  0.00  0.00    +0.000 OA
ENDBRANCH  16  17
ENDBRANCH   2  16
TORSDOF 5
ENDMDL
MODEL 9
REMARK VINA RESULT:      -7.5      4.029      8.964
REMARK  Name = 
REMARK  5 active torsions:
REMARK  status: ('A' for Active; 'I' for Inactive)
REMARK    1  A    between atoms: C_2  and  C_3
REMARK    2  A    between atoms: C_3  and  N_4
REMARK    3  A    between atoms: N_15  and  C_16
REMARK    4  A    between atoms: C_19  and  O_20
REMARK    5  A    between atoms: O_20  and  C_21
REMARK                            x       y       z     vdW  Elec       q    Type
REMARK                         _______ _______ _______ _____ _____    ______ ____
ROOT
ATOM      1  O   UNL     1       0.764   9.014  17.655  0.00  0.00    +0.000 OA
ATOM      2  C   UNL     1       1.375   9.455  18.623  0.00  0.00    +0.000 C 
ATOM      3  N   UNL     1       1.979   8.689  19.614  0.00  0.00    +0.000 N 
ATOM      4  H   UNL     1       2.191   9.160  20.491  0.00  0.00    +0.000 HD
ENDROOT
BRANCH   3   5
ATOM      5  C   UNL     1       2.168   7.288  19.581  0.00  0.00    +0.000 A 
ATOM      6  C   UNL     1       1.608   6.418  20.515  0.00  0.00    +0.000 A 
ATOM      7  C   UNL     1       1.824   5.038  20.423  0.00  0.00    +0.000 A 
ATOM      8  C   UNL     1       2.611   4.491  19.403  0.00  0.00    +0.000 A 
ATOM      9  C   UNL     1       3.151   5.358  18.446  0.00  0.00    +0.000 A 
ATOM     10 CL   UNL     1       4.038   4.826  17.063  0.00  0.00    +0.000 Cl
ATOM     11  C   UNL     1       2.924   6.746  18.538  0.00  0.00    +0.000 A 
BRANCH   8  12
ATOM     12  O   UNL     1       2.655   3.126  19.431  0.00  0.00    +0.000 OA
BRANCH  12  13
ATOM     13  C   UNL     1       1.772   2.413  18.583  0.00  0.00    +0.000 C 
ATOM     14  F   UNL     1       0.814   3.239  18.100  0.00  0.00    +0.000 F 
ATOM     15  F   UNL     1       2.503   2.005  17.507  0.00  0.00    +0.000 F 
ENDBRANCH  12  13
ENDBRANCH   8  12
ENDBRANCH   3   5
BRANCH   2  16
ATOM     16  C   UNL     1       1.432  10.958  18.892  0.00  0.00    +0.000 C 
BRANCH  16  17
ATOM     17  N   UNL     1       0.322  11.345  19.733  0.00  0.00    +0.000 N 
ATOM     18  C   UNL     1      -0.843  11.915  19.269  0.00  0.00    +0.000 C 
ATOM     19  O   UNL     1      -1.187  12.086  18.114  0.00  0.00    +0.000 OA
ATOM     20  C   UNL     1      -1.551  12.435  20.491  0.00  0.00    +0.000 C 
ATOM     21  C   UNL     1      -3.057  12.568  20.521  0.00  0.00    +0.000 C 
ATOM     22  C   UNL     1      -3.473  13.072  21.914  0.00  0.00    +0.000 C 
ATOM     23  C   UNL     1      -2.883  12.235  23.063  0.00  0.00    +0.000 C 
ATOM     24  C   UNL     1      -1.366  12.008  22.930  0.00  0.00    +0.000 C 
ATOM     25  C   UNL     1      -1.089  11.446  21.550  0.00  0.00    +0.000 C 
ATOM     26  C   UNL     1       0.321  11.173  21.098  0.00  0.00    +0.000 C 
ATOM     27  O   UNL     1       1.245  10.752  21.774  0.00  0.00    +0.000 OA
ENDBRANCH  16  17
ENDBRANCH   2  16
TORSDOF 5
ENDMDL
