MODEL 1
REMARK VINA RESULT:      -8.2      0.000      0.000
REMARK  Name = 
REMARK  3 active torsions:
REMARK  status: ('A' for Active; 'I' for Inactive)
REMARK    1  A    between atoms: C_1  and  N_2
REMARK    2  A    between atoms: C_3  and  C_5
REMARK    3  A    between atoms: C_13  and  C_14
REMARK                            x       y       z     vdW  Elec       q    Type
REMARK                         _______ _______ _______ _____ _____    ______ ____
ROOT
ATOM      1  C   UNL     1       2.476   7.178  18.806  0.00  0.00    +0.000 A 
ATOM      2  C   UNL     1       1.878   6.422  19.795  0.00  0.00    +0.000 A 
ATOM      3  C   UNL     1       2.379   5.150  20.053  0.00  0.00    +0.000 A 
ATOM      4  C   UNL     1       1.739   4.352  21.017  0.00  0.00    +0.000 A 
ATOM      5  C   UNL     1       2.207   3.074  21.312  0.00  0.00    +0.000 A 
ATOM      6  C   UNL     1       3.352   2.606  20.686  0.00  0.00    +0.000 A 
ATOM      7  C   UNL     1       4.005   3.401  19.737  0.00  0.00    +0.000 A 
ATOM      8  C   UNL     1       3.504   4.675  19.336  0.00  0.00    +0.000 A 
ATOM      9  C   UNL     1       4.017   5.504  18.284  0.00  0.00    +0.000 A 
ATOM     10  N   UNL     1       3.497   6.736  18.029  0.00  0.00    +0.000 NA
ENDROOT
BRANCH   9  11
ATOM     11  C   UNL     1       5.082   5.085  17.316  0.00  0.00    +0.000 A 
ATOM     12  C   UNL     1       4.732   4.684  16.003  0.00  0.00    +0.000 A 
ATOM     13  C   UNL     1       5.675   4.248  15.067  0.00  0.00    +0.000 A 
ATOM     14  C   UNL     1       7.025   4.275  15.382  0.00  0.00    +0.000 A 
ATOM     15  C   UNL     1       7.421   4.727  16.636  0.00  0.00    +0.000 A 
ATOM     16  C   UNL     1       6.470   5.111  17.600  0.00  0.00    +0.000 A 
ATOM     17 CL   UNL     1       7.126   5.582  19.135  0.00  0.00    +0.000 Cl
ENDBRANCH   9  11
BRANCH   1  20
ATOM     18  C   UNL     1       0.692  10.449  19.484  0.00  0.00    +0.000 C 
ATOM     19  N   UNL     1       1.270   9.138  19.602  0.00  0.00    +0.000 N 
ATOM     20  C   UNL     1       1.979   8.571  18.567  0.00  0.00    +0.000 C 
ATOM     21  O   UNL     1       2.189   9.143  17.499  0.00  0.00    +0.000 OA
ATOM     22  H   UNL     1       1.075   8.545  20.406  0.00  0.00    +0.000 HD
ENDBRANCH   1  20
TORSDOF 2
ENDMDL
MODEL 2
REMARK VINA RESULT:      -7.7      2.572      5.446
REMARK  Name = 
REMARK  3 active torsions:
REMARK  status: ('A' for Active; 'I' for Inactive)
REMARK    1  A    between atoms: C_1  and  N_2
REMARK    2  A    between atoms: C_3  and  C_5
REMARK    3  A    between atoms: C_13  and  C_14
REMARK                            x       y       z     vdW  Elec       q    Type
REMARK                         _______ _______ _______ _____ _____    ______ ____
ROOT
ATOM      1  C   UNL     1       5.052   4.985  16.741  0.00  0.00    +0.000 A 
ATOM      2  C   UNL     1       4.660   3.671  16.906  0.00  0.00    +0.000 A 
ATOM      3  C   UNL     1       3.458   3.414  17.558  0.00  0.00    +0.000 A 
ATOM      4  C   UNL     1       3.080   2.079  17.783  0.00  0.00    +0.000 A 
ATOM      5  C   UNL     1       1.885   1.774  18.427  0.00  0.00    +0.000 A 
ATOM      6  C   UNL     1       1.030   2.799  18.802  0.00  0.00    +0.000 A 
ATOM      7  C   UNL     1       1.391   4.131  18.567  0.00  0.00    +0.000 A 
ATOM      8  C   UNL     1       2.649   4.490  17.998  0.00  0.00    +0.000 A 
ATOM      9  C   UNL     1       3.168   5.817  17.841  0.00  0.00    +0.000 A 
ATOM     10  N   UNL     1       4.360   6.048  17.223  0.00  0.00    +0.000 NA
ENDROOT
BRANCH   9  11
ATOM     11  C   UNL     1       2.530   7.051  18.404  0.00  0.00    +0.000 A 
ATOM     12  C   UNL     1       2.245   8.153  17.560  0.00  0.00    +0.000 A 
ATOM     13  C   UNL     1       1.684   9.344  18.033  0.00  0.00    +0.000 A 
ATOM     14  C   UNL     1       1.308   9.451  19.363  0.00  0.00    +0.000 A 
ATOM     15  C   UNL     1       1.506   8.369  20.214  0.00  0.00    +0.000 A 
ATOM     16  C   UNL     1       2.123   7.190  19.754  0.00  0.00    +0.000 A 
ATOM     17 CL   UNL     1       2.359   5.965  20.958  0.00  0.00    +0.000 Cl
ENDBRANCH   9  11
BRANCH   1  20
ATOM     18  C   UNL     1       7.469   5.090  13.827  0.00  0.00    +0.000 C 
ATOM     19  N   UNL     1       6.305   4.921  14.653  0.00  0.00    +0.000 N 
ATOM     20  C   UNL     1       6.315   5.268  15.986  0.00  0.00    +0.000 C 
ATOM     21  O   UNL     1       7.291   5.763  16.548  0.00  0.00    +0.000 OA
ATOM     22  H   UNL     1       5.480   4.434  14.311  0.00  0.00    +0.000 HD
ENDBRANCH   1  20
TORSDOF 2
ENDMDL
MODEL 3
REMARK VINA RESULT:      -7.7      3.675      6.195
REMARK  Name = 
REMARK  3 active torsions:
REMARK  status: ('A' for Active; 'I' for Inactive)
REMARK    1  A    between atoms: C_1  and  N_2
REMARK    2  A    between atoms: C_3  and  C_5
REMARK    3  A    between atoms: C_13  and  C_14
REMARK                            x       y       z     vdW  Elec       q    Type
REMARK                         _______ _______ _______ _____ _____    ______ ____
ROOT
ATOM      1  C   UNL     1       5.820   4.272  14.899  0.00  0.00    +0.000 A 
ATOM      2  C   UNL     1       6.846   5.003  15.465  0.00  0.00    +0.000 A 
ATOM      3  C   UNL     1       6.815   5.241  16.836  0.00  0.00    +0.000 A 
ATOM      4  C   UNL     1       7.823   6.033  17.410  0.00  0.00    +0.000 A 
ATOM      5  C   UNL     1       7.836   6.294  18.777  0.00  0.00    +0.000 A 
ATOM      6  C   UNL     1       6.872   5.718  19.590  0.00  0.00    +0.000 A 
ATOM      7  C   UNL     1       5.873   4.914  19.029  0.00  0.00    +0.000 A 
ATOM      8  C   UNL     1       5.768   4.701  17.623  0.00  0.00    +0.000 A 
ATOM      9  C   UNL     1       4.713   4.011  16.939  0.00  0.00    +0.000 A 
ATOM     10  N   UNL     1       4.747   3.810  15.592  0.00  0.00    +0.000 NA
ENDROOT
BRANCH   9  11
ATOM     11  C   UNL     1       3.449   3.533  17.589  0.00  0.00    +0.000 A 
ATOM     12  C   UNL     1       3.251   2.151  17.828  0.00  0.00    +0.000 A 
ATOM     13  C   UNL     1       2.080   1.641  18.397  0.00  0.00    +0.000 A 
ATOM     14  C   UNL     1       1.087   2.507  18.829  0.00  0.00    +0.000 A 
ATOM     15  C   UNL     1       1.268   3.878  18.677  0.00  0.00    +0.000 A 
ATOM     16  C   UNL     1       2.421   4.390  18.052  0.00  0.00    +0.000 A 
ATOM     17 CL   UNL     1       2.459   6.115  17.879  0.00  0.00    +0.000 Cl
ENDBRANCH   9  11
BRANCH   1  20
ATOM     18  C   UNL     1       4.635   3.154  11.481  0.00  0.00    +0.000 C 
ATOM     19  N   UNL     1       4.702   3.534  12.865  0.00  0.00    +0.000 N 
ATOM     20  C   UNL     1       5.881   3.962  13.435  0.00  0.00    +0.000 C 
ATOM     21  O   UNL     1       6.933   4.075  12.808  0.00  0.00    +0.000 OA
ATOM     22  H   UNL     1       3.914   3.389  13.492  0.00  0.00    +0.000 HD
ENDBRANCH   1  20
TORSDOF 2
ENDMDL
MODEL 4
REMARK VINA RESULT:      -7.7      1.459      1.488
REMARK  Name = 
REMARK  3 active torsions:
REMARK  status: ('A' for Active; 'I' for Inactive)
REMARK    1  A    between atoms: C_1  and  N_2
REMARK    2  A    between atoms: C_3  and  C_5
REMARK    3  A    between atoms: C_13  and  C_14
REMARK                            x       y       z     vdW  Elec       q    Type
REMARK                         _______ _______ _______ _____ _____    ______ ____
ROOT
ATOM      1  C   UNL     1       2.542   6.572  18.568  0.00  0.00    +0.000 A 
ATOM      2  C   UNL     1       1.810   5.559  19.156  0.00  0.00    +0.000 A 
ATOM      3  C   UNL     1       2.197   4.242  18.930  0.00  0.00    +0.000 A 
ATOM      4  C   UNL     1       1.423   3.205  19.476  0.00  0.00    +0.000 A 
ATOM      5  C   UNL     1       1.774   1.872  19.280  0.00  0.00    +0.000 A 
ATOM      6  C   UNL     1       2.933   1.567  18.584  0.00  0.00    +0.000 A 
ATOM      7  C   UNL     1       3.719   2.595  18.050  0.00  0.00    +0.000 A 
ATOM      8  C   UNL     1       3.344   3.968  18.145  0.00  0.00    +0.000 A 
ATOM      9  C   UNL     1       4.002   5.079  17.522  0.00  0.00    +0.000 A 
ATOM     10  N   UNL     1       3.593   6.361  17.734  0.00  0.00    +0.000 NA
ENDROOT
BRANCH   9  11
ATOM     11  C   UNL     1       5.115   4.957  16.525  0.00  0.00    +0.000 A 
ATOM     12  C   UNL     1       4.837   4.547  15.198  0.00  0.00    +0.000 A 
ATOM     13  C   UNL     1       5.836   4.379  14.233  0.00  0.00    +0.000 A 
ATOM     14  C   UNL     1       7.151   4.698  14.535  0.00  0.00    +0.000 A 
ATOM     15  C   UNL     1       7.460   5.171  15.806  0.00  0.00    +0.000 A 
ATOM     16  C   UNL     1       6.465   5.285  16.797  0.00  0.00    +0.000 A 
ATOM     17 CL   UNL     1       7.029   5.822  18.347  0.00  0.00    +0.000 Cl
ENDBRANCH   9  11
BRANCH   1  20
ATOM     18  C   UNL     1       1.990  10.267  17.953  0.00  0.00    +0.000 C 
ATOM     19  N   UNL     1       2.270   8.866  17.798  0.00  0.00    +0.000 N 
ATOM     20  C   UNL     1       2.166   7.993  18.858  0.00  0.00    +0.000 C 
ATOM     21  O   UNL     1       1.806   8.335  19.983  0.00  0.00    +0.000 OA
ATOM     22  H   UNL     1       2.664   8.499  16.935  0.00  0.00    +0.000 HD
ENDBRANCH   1  20
TORSDOF 2
ENDMDL
MODEL 5
REMARK VINA RESULT:      -7.7      1.428      1.454
REMARK  Name = 
REMARK  3 active torsions:
REMARK  status: ('A' for Active; 'I' for Inactive)
REMARK    1  A    between atoms: C_1  and  N_2
REMARK    2  A    between atoms: C_3  and  C_5
REMARK    3  A    between atoms: C_13  and  C_14
REMARK                            x       y       z     vdW  Elec       q    Type
REMARK                         _______ _______ _______ _____ _____    ______ ____
ROOT
ATOM      1  C   UNL     1       2.272   6.540  19.586  0.00  0.00    +0.000 A 
ATOM      2  C   UNL     1       1.492   5.463  19.961  0.00  0.00    +0.000 A 
ATOM      3  C   UNL     1       1.872   4.191  19.544  0.00  0.00    +0.000 A 
ATOM      4  C   UNL     1       1.052   3.098  19.871  0.00  0.00    +0.000 A 
ATOM      5  C   UNL     1       1.393   1.806  19.479  0.00  0.00    +0.000 A 
ATOM      6  C   UNL     1       2.585   1.590  18.806  0.00  0.00    +0.000 A 
ATOM      7  C   UNL     1       3.415   2.672  18.490  0.00  0.00    +0.000 A 
ATOM      8  C   UNL     1       3.057   4.020  18.788  0.00  0.00    +0.000 A 
ATOM      9  C   UNL     1       3.767   5.201  18.391  0.00  0.00    +0.000 A 
ATOM     10  N   UNL     1       3.365   6.441  18.787  0.00  0.00    +0.000 NA
ENDROOT
BRANCH   9  11
ATOM     11  C   UNL     1       4.932   5.215  17.449  0.00  0.00    +0.000 A 
ATOM     12  C   UNL     1       4.717   5.137  16.051  0.00  0.00    +0.000 A 
ATOM     13  C   UNL     1       5.764   5.110  15.124  0.00  0.00    +0.000 A 
ATOM     14  C   UNL     1       7.074   5.243  15.556  0.00  0.00    +0.000 A 
ATOM     15  C   UNL     1       7.329   5.392  16.915  0.00  0.00    +0.000 A 
ATOM     16  C   UNL     1       6.281   5.362  17.855  0.00  0.00    +0.000 A 
ATOM     17 CL   UNL     1       6.776   5.489  19.513  0.00  0.00    +0.000 Cl
ENDBRANCH   9  11
BRANCH   1  20
ATOM     18  C   UNL     1       1.292   9.249  22.044  0.00  0.00    +0.000 C 
ATOM     19  N   UNL     1       1.702   8.010  21.442  0.00  0.00    +0.000 N 
ATOM     20  C   UNL     1       1.902   7.903  20.084  0.00  0.00    +0.000 C 
ATOM     21  O   UNL     1       1.773   8.847  19.306  0.00  0.00    +0.000 OA
ATOM     22  H   UNL     1       1.745   7.149  21.982  0.00  0.00    +0.000 HD
ENDBRANCH   1  20
TORSDOF 2
ENDMDL
MODEL 6
REMARK VINA RESULT:      -7.5      2.583      4.594
REMARK  Name = 
REMARK  3 active torsions:
REMARK  status: ('A' for Active; 'I' for Inactive)
REMARK    1  A    between atoms: C_1  and  N_2
REMARK    2  A    between atoms: C_3  and  C_5
REMARK    3  A    between atoms: C_13  and  C_14
REMARK                            x       y       z     vdW  Elec       q    Type
REMARK                         _______ _______ _______ _____ _____    ______ ____
ROOT
ATOM      1  C   UNL     1       3.939   3.859  19.758  0.00  0.00    +0.000 A 
ATOM      2  C   UNL     1       3.135   4.893  20.196  0.00  0.00    +0.000 A 
ATOM      3  C   UNL     1       2.984   6.009  19.378  0.00  0.00    +0.000 A 
ATOM      4  C   UNL     1       2.216   7.090  19.842  0.00  0.00    +0.000 A 
ATOM      5  C   UNL     1       2.033   8.226  19.058  0.00  0.00    +0.000 A 
ATOM      6  C   UNL     1       2.570   8.266  17.780  0.00  0.00    +0.000 A 
ATOM      7  C   UNL     1       3.324   7.187  17.304  0.00  0.00    +0.000 A 
ATOM      8  C   UNL     1       3.615   6.047  18.111  0.00  0.00    +0.000 A 
ATOM      9  C   UNL     1       4.481   4.957  17.769  0.00  0.00    +0.000 A 
ATOM     10  N   UNL     1       4.638   3.884  18.594  0.00  0.00    +0.000 NA
ENDROOT
BRANCH   9  11
ATOM     11  C   UNL     1       5.359   4.918  16.554  0.00  0.00    +0.000 A 
ATOM     12  C   UNL     1       4.914   4.268  15.376  0.00  0.00    +0.000 A 
ATOM     13  C   UNL     1       5.701   4.167  14.224  0.00  0.00    +0.000 A 
ATOM     14  C   UNL     1       6.939   4.787  14.176  0.00  0.00    +0.000 A 
ATOM     15  C   UNL     1       7.388   5.495  15.286  0.00  0.00    +0.000 A 
ATOM     16  C   UNL     1       6.623   5.550  16.467  0.00  0.00    +0.000 A 
ATOM     17 CL   UNL     1       7.358   6.413  17.780  0.00  0.00    +0.000 Cl
ENDBRANCH   9  11
BRANCH   1  20
ATOM     18  C   UNL     1       5.347   0.592  21.055  0.00  0.00    +0.000 C 
ATOM     19  N   UNL     1       5.143   1.827  20.348  0.00  0.00    +0.000 N 
ATOM     20  C   UNL     1       4.056   2.630  20.607  0.00  0.00    +0.000 C 
ATOM     21  O   UNL     1       3.211   2.370  21.462  0.00  0.00    +0.000 OA
ATOM     22  H   UNL     1       5.730   2.087  19.559  0.00  0.00    +0.000 HD
ENDBRANCH   1  20
TORSDOF 2
ENDMDL
MODEL 7
REMARK VINA RESULT:      -7.5      1.926      4.708
REMARK  Name = 
REMARK  3 active torsions:
REMARK  status: ('A' for Active; 'I' for Inactive)
REMARK    1  A    between atoms: C_1  and  N_2
REMARK    2  A    between atoms: C_3  and  C_5
REMARK    3  A    between atoms: C_13  and  C_14
REMARK                            x       y       z     vdW  Elec       q    Type
REMARK                         _______ _______ _______ _____ _____    ______ ____
ROOT
ATOM      1  C   UNL     1       2.650   7.895  18.152  0.00  0.00    +0.000 A 
ATOM      2  C   UNL     1       3.682   7.827  17.237  0.00  0.00    +0.000 A 
ATOM      3  C   UNL     1       4.300   6.599  17.021  0.00  0.00    +0.000 A 
ATOM      4  C   UNL     1       5.389   6.534  16.135  0.00  0.00    +0.000 A 
ATOM      5  C   UNL     1       6.035   5.327  15.885  0.00  0.00    +0.000 A 
ATOM      6  C   UNL     1       5.563   4.165  16.474  0.00  0.00    +0.000 A 
ATOM      7  C   UNL     1       4.468   4.218  17.345  0.00  0.00    +0.000 A 
ATOM      8  C   UNL     1       3.838   5.447  17.703  0.00  0.00    +0.000 A 
ATOM      9  C   UNL     1       2.806   5.626  18.682  0.00  0.00    +0.000 A 
ATOM     10  N   UNL     1       2.231   6.841  18.898  0.00  0.00    +0.000 NA
ENDROOT
BRANCH   9  11
ATOM     11  C   UNL     1       2.325   4.555  19.615  0.00  0.00    +0.000 A 
ATOM     12  C   UNL     1       2.642   4.619  20.994  0.00  0.00    +0.000 A 
ATOM     13  C   UNL     1       2.254   3.633  21.907  0.00  0.00    +0.000 A 
ATOM     14  C   UNL     1       1.457   2.579  21.489  0.00  0.00    +0.000 A 
ATOM     15  C   UNL     1       1.064   2.511  20.156  0.00  0.00    +0.000 A 
ATOM     16  C   UNL     1       1.501   3.472  19.224  0.00  0.00    +0.000 A 
ATOM     17 CL   UNL     1       0.978   3.203  17.592  0.00  0.00    +0.000 Cl
ENDBRANCH   9  11
BRANCH   1  20
ATOM     18  C   UNL     1       0.379  10.473  19.743  0.00  0.00    +0.000 C 
ATOM     19  N   UNL     1       1.153   9.294  19.467  0.00  0.00    +0.000 N 
ATOM     20  C   UNL     1       1.943   9.201  18.342  0.00  0.00    +0.000 C 
ATOM     21  O   UNL     1       2.062  10.111  17.523  0.00  0.00    +0.000 OA
ATOM     22  H   UNL     1       1.052   8.453  20.030  0.00  0.00    +0.000 HD
ENDBRANCH   1  20
TORSDOF 2
ENDMDL
MODEL 8
REMARK VINA RESULT:      -7.5      3.254      6.012
REMARK  Name = 
REMARK  3 active torsions:
REMARK  status: ('A' for Active; 'I' for Inactive)
REMARK    1  A    between atoms: C_1  and  N_2
REMARK    2  A    between atoms: C_3  and  C_5
REMARK    3  A    between atoms: C_13  and  C_14
REMARK                            x       y       z     vdW  Elec       q    Type
REMARK                         _______ _______ _______ _____ _____    ______ ____
ROOT
ATOM      1  C   UNL     1       6.939   6.122  17.002  0.00  0.00    +0.000 A 
ATOM      2  C   UNL     1       7.463   5.885  15.746  0.00  0.00    +0.000 A 
ATOM      3  C   UNL     1       6.749   5.072  14.871  0.00  0.00    +0.000 A 
ATOM      4  C   UNL     1       7.303   4.778  13.614  0.00  0.00    +0.000 A 
ATOM      5  C   UNL     1       6.624   3.972  12.704  0.00  0.00    +0.000 A 
ATOM      6  C   UNL     1       5.360   3.500  13.022  0.00  0.00    +0.000 A 
ATOM      7  C   UNL     1       4.794   3.801  14.266  0.00  0.00    +0.000 A 
ATOM      8  C   UNL     1       5.496   4.541  15.263  0.00  0.00    +0.000 A 
ATOM      9  C   UNL     1       5.064   4.788  16.608  0.00  0.00    +0.000 A 
ATOM     10  N   UNL     1       5.789   5.565  17.459  0.00  0.00    +0.000 NA
ENDROOT
BRANCH   9  11
ATOM     11  C   UNL     1       3.858   4.161  17.241  0.00  0.00    +0.000 A 
ATOM     12  C   UNL     1       3.772   2.752  17.366  0.00  0.00    +0.000 A 
ATOM     13  C   UNL     1       2.659   2.107  17.914  0.00  0.00    +0.000 A 
ATOM     14  C   UNL     1       1.615   2.854  18.437  0.00  0.00    +0.000 A 
ATOM     15  C   UNL     1       1.687   4.242  18.399  0.00  0.00    +0.000 A 
ATOM     16  C   UNL     1       2.780   4.893  17.796  0.00  0.00    +0.000 A 
ATOM     17 CL   UNL     1       2.681   6.624  17.768  0.00  0.00    +0.000 Cl
ENDBRANCH   9  11
BRANCH   1  20
ATOM     18  C   UNL     1       8.499   9.331  18.269  0.00  0.00    +0.000 C 
ATOM     19  N   UNL     1       7.775   8.353  17.504  0.00  0.00    +0.000 N 
ATOM     20  C   UNL     1       7.674   7.046  17.924  0.00  0.00    +0.000 C 
ATOM     21  O   UNL     1       8.162   6.634  18.976  0.00  0.00    +0.000 OA
ATOM     22  H   UNL     1       7.416   8.568  16.577  0.00  0.00    +0.000 HD
ENDBRANCH   1  20
TORSDOF 2
ENDMDL
MODEL 9
REMARK VINA RESULT:      -7.5      1.391      1.688
REMARK  Name = 
REMARK  3 active torsions:
REMARK  status: ('A' for Active; 'I' for Inactive)
REMARK    1  A    between atoms: C_1  and  N_2
REMARK    2  A    between atoms: C_3  and  C_5
REMARK    3  A    between atoms: C_13  and  C_14
REMARK                            x       y       z     vdW  Elec       q    Type
REMARK                         _______ _______ _______ _____ _____    ______ ____
ROOT
ATOM      1  C   UNL     1       2.286   7.014  19.608  0.00  0.00    +0.000 A 
ATOM      2  C   UNL     1       1.805   6.100  20.524  0.00  0.00    +0.000 A 
ATOM      3  C   UNL     1       2.383   4.835  20.566  0.00  0.00    +0.000 A 
ATOM      4  C   UNL     1       1.860   3.880  21.454  0.00  0.00    +0.000 A 
ATOM      5  C   UNL     1       2.408   2.602  21.534  0.00  0.00    +0.000 A 
ATOM      6  C   UNL     1       3.519   2.287  20.767  0.00  0.00    +0.000 A 
ATOM      7  C   UNL     1       4.056   3.238  19.891  0.00  0.00    +0.000 A 
ATOM      8  C   UNL     1       3.467   4.524  19.708  0.00  0.00    +0.000 A 
ATOM      9  C   UNL     1       3.855   5.514  18.746  0.00  0.00    +0.000 A 
ATOM     10  N   UNL     1       3.260   6.739  18.703  0.00  0.00    +0.000 NA
ENDROOT
BRANCH   9  11
ATOM     11  C   UNL     1       4.856   5.290  17.653  0.00  0.00    +0.000 A 
ATOM     12  C   UNL     1       6.078   6.007  17.650  0.00  0.00    +0.000 A 
ATOM     13  C   UNL     1       7.034   5.868  16.639  0.00  0.00    +0.000 A 
ATOM     14  C   UNL     1       6.843   4.939  15.629  0.00  0.00    +0.000 A 
ATOM     15  C   UNL     1       5.690   4.162  15.630  0.00  0.00    +0.000 A 
ATOM     16  C   UNL     1       4.698   4.341  16.614  0.00  0.00    +0.000 A 
ATOM     17 CL   UNL     1       3.292   3.343  16.430  0.00  0.00    +0.000 Cl
ENDBRANCH   9  11
BRANCH   1  20
ATOM     18  C   UNL     1       0.517  10.101  20.904  0.00  0.00    +0.000 C 
ATOM     19  N   UNL     1       1.153   8.817  20.788  0.00  0.00    +0.000 N 
ATOM     20  C   UNL     1       1.708   8.397  19.601  0.00  0.00    +0.000 C 
ATOM     21  O   UNL     1       1.726   9.085  18.582  0.00  0.00    +0.000 OA
ATOM     22  H   UNL     1       1.109   8.136  21.543  0.00  0.00    +0.000 HD
ENDBRANCH   1  20
TORSDOF 2
ENDMDL
