MODEL 1
REMARK VINA RESULT:      -7.7      0.000      0.000
REMARK  Name = 
REMARK  9 active torsions:
REMARK  status: ('A' for Active; 'I' for Inactive)
REMARK    1  A    between atoms: C_1  and  C_2
REMARK    2  A    between atoms: C_6  and  C_7
REMARK    3  A    between atoms: C_8  and  O_9
REMARK    4  A    between atoms: O_9  and  C_10
REMARK    5  A    between atoms: C_10  and  C_11
REMARK    6  A    between atoms: N_13  and  S_14
REMARK    7  A    between atoms: S_14  and  C_17
REMARK    8  A    between atoms: C_18  and  C_19
REMARK    9  A    between atoms: C_22  and  C_23
REMARK                            x       y       z     vdW  Elec       q    Type
REMARK                         _______ _______ _______ _____ _____    ______ ____
ROOT
ATOM      1  C   UNL     1       2.830   4.798  19.771  0.00  0.00    +0.000 C 
ATOM      2  O   UNL     1       2.668   3.629  20.103  0.00  0.00    +0.000 OA
ATOM      3  N   UNL     1       3.814   5.170  18.844  0.00  0.00    +0.000 N 
ATOM      4  H   UNL     1       3.915   6.137  18.538  0.00  0.00    +0.000 HD
ENDROOT
BRANCH   3   5
ATOM      5  S   UNL     1       4.937   4.124  18.194  0.00  0.00    +0.000 S 
ATOM      6  O   UNL     1       5.761   3.705  19.307  0.00  0.00    +0.000 OA
ATOM      7  O   UNL     1       4.255   3.153  17.369  0.00  0.00    +0.000 OA
BRANCH   5   8
ATOM      8  C   UNL     1       6.021   4.957  17.176  0.00  0.00    +0.000 A 
ATOM      9  C   UNL     1       6.121   5.014  15.761  0.00  0.00    +0.000 A 
ATOM     10  C   UNL     1       5.339   4.410  14.659  0.00  0.00    +0.000 C 
ATOM     11  N   UNL     1       7.163   5.790  15.401  0.00  0.00    +0.000 NA
ATOM     12  O   UNL     1       7.734   6.240  16.562  0.00  0.00    +0.000 OA
ATOM     13  C   UNL     1       7.052   5.741  17.628  0.00  0.00    +0.000 A 
ATOM     14  C   UNL     1       7.565   6.137  18.956  0.00  0.00    +0.000 C 
ENDBRANCH   5   8
ENDBRANCH   3   5
BRANCH   1  15
ATOM     15  C   UNL     1       1.991   5.948  20.342  0.00  0.00    +0.000 C 
BRANCH  15  16
ATOM     16  O   UNL     1       2.531   7.229  20.078  0.00  0.00    +0.000 OA
BRANCH  16  24
ATOM     17  C   UNL     1       0.547   8.703  22.070  0.00  0.00    +0.000 C 
ATOM     18  C   UNL     1       0.811   8.989  20.617  0.00  0.00    +0.000 A 
ATOM     19  C   UNL     1       0.072  10.072  20.085  0.00  0.00    +0.000 A 
ATOM     20  C   UNL     1       0.200  10.473  18.761  0.00  0.00    +0.000 A 
ATOM     21  C   UNL     1       1.077   9.791  17.929  0.00  0.00    +0.000 A 
ATOM     22  C   UNL     1       1.828   8.712  18.420  0.00  0.00    +0.000 A 
ATOM     23  C   UNL     1       2.765   8.018  17.463  0.00  0.00    +0.000 C 
ATOM     24  C   UNL     1       1.708   8.293  19.774  0.00  0.00    +0.000 A 
ENDBRANCH  16  24
ENDBRANCH  15  16
ENDBRANCH   1  15
TORSDOF 5
ENDMDL
MODEL 2
REMARK VINA RESULT:      -7.5      0.503      1.723
REMARK  Name = 
REMARK  9 active torsions:
REMARK  status: ('A' for Active; 'I' for Inactive)
REMARK    1  A    between atoms: C_1  and  C_2
REMARK    2  A    between atoms: C_6  and  C_7
REMARK    3  A    between atoms: C_8  and  O_9
REMARK    4  A    between atoms: O_9  and  C_10
REMARK    5  A    between atoms: C_10  and  C_11
REMARK    6  A    between atoms: N_13  and  S_14
REMARK    7  A    between atoms: S_14  and  C_17
REMARK    8  A    between atoms: C_18  and  C_19
REMARK    9  A    between atoms: C_22  and  C_23
REMARK                            x       y       z     vdW  Elec       q    Type
REMARK                         _______ _______ _______ _____ _____    ______ ____
ROOT
ATOM      1  C   UNL     1       2.622   4.741  19.872  0.00  0.00    +0.000 C 
ATOM      2  O   UNL     1       2.363   3.568  20.121  0.00  0.00    +0.000 OA
ATOM      3  N   UNL     1       3.685   5.098  19.030  0.00  0.00    +0.000 N 
ATOM      4  H   UNL     1       3.868   6.071  18.792  0.00  0.00    +0.000 HD
ENDROOT
BRANCH   3   5
ATOM      5  S   UNL     1       4.775   4.016  18.383  0.00  0.00    +0.000 S 
ATOM      6  O   UNL     1       5.455   3.430  19.517  0.00  0.00    +0.000 OA
ATOM      7  O   UNL     1       4.095   3.185  17.414  0.00  0.00    +0.000 OA
BRANCH   5   8
ATOM      8  C   UNL     1       6.012   4.834  17.543  0.00  0.00    +0.000 A 
ATOM      9  C   UNL     1       7.139   5.560  18.010  0.00  0.00    +0.000 A 
ATOM     10  C   UNL     1       7.671   5.860  19.358  0.00  0.00    +0.000 C 
ATOM     11  N   UNL     1       7.832   6.060  16.967  0.00  0.00    +0.000 NA
ATOM     12  O   UNL     1       7.172   5.664  15.834  0.00  0.00    +0.000 OA
ATOM     13  C   UNL     1       6.080   4.930  16.176  0.00  0.00    +0.000 A 
ATOM     14  C   UNL     1       5.261   4.440  15.048  0.00  0.00    +0.000 C 
ENDBRANCH   5   8
ENDBRANCH   3   5
BRANCH   1  15
ATOM     15  C   UNL     1       1.827   5.911  20.465  0.00  0.00    +0.000 C 
BRANCH  15  16
ATOM     16  O   UNL     1       2.414   7.176  20.225  0.00  0.00    +0.000 OA
BRANCH  16  24
ATOM     17  C   UNL     1       0.336   8.716  22.065  0.00  0.00    +0.000 C 
ATOM     18  C   UNL     1       0.705   8.982  20.631  0.00  0.00    +0.000 A 
ATOM     19  C   UNL     1       0.031  10.077  20.040  0.00  0.00    +0.000 A 
ATOM     20  C   UNL     1       0.258  10.461  18.725  0.00  0.00    +0.000 A 
ATOM     21  C   UNL     1       1.173   9.750  17.961  0.00  0.00    +0.000 A 
ATOM     22  C   UNL     1       1.863   8.658  18.510  0.00  0.00    +0.000 A 
ATOM     23  C   UNL     1       2.845   7.934  17.625  0.00  0.00    +0.000 C 
ATOM     24  C   UNL     1       1.640   8.256  19.856  0.00  0.00    +0.000 A 
ENDBRANCH  16  24
ENDBRANCH  15  16
ENDBRANCH   1  15
TORSDOF 5
ENDMDL
MODEL 3
REMARK VINA RESULT:      -7.4      1.167      1.859
REMARK  Name = 
REMARK  9 active torsions:
REMARK  status: ('A' for Active; 'I' for Inactive)
REMARK    1  A    between atoms: C_1  and  C_2
REMARK    2  A    between atoms: C_6  and  C_7
REMARK    3  A    between atoms: C_8  and  O_9
REMARK    4  A    between atoms: O_9  and  C_10
REMARK    5  A    between atoms: C_10  and  C_11
REMARK    6  A    between atoms: N_13  and  S_14
REMARK    7  A    between atoms: S_14  and  C_17
REMARK    8  A    between atoms: C_18  and  C_19
REMARK    9  A    between atoms: C_22  and  C_23
REMARK                            x       y       z     vdW  Elec       q    Type
REMARK                         _______ _______ _______ _____ _____    ______ ____
ROOT
ATOM      1  C   UNL     1       2.833   5.301  19.820  0.00  0.00    +0.000 C 
ATOM      2  O   UNL     1       2.508   4.219  19.342  0.00  0.00    +0.000 OA
ATOM      3  N   UNL     1       4.160   5.752  19.783  0.00  0.00    +0.000 N 
ATOM      4  H   UNL     1       4.416   6.671  20.141  0.00  0.00    +0.000 HD
ENDROOT
BRANCH   3   5
ATOM      5  S   UNL     1       5.444   4.852  19.220  0.00  0.00    +0.000 S 
ATOM      6  O   UNL     1       6.614   5.402  19.870  0.00  0.00    +0.000 OA
ATOM      7  O   UNL     1       5.122   3.447  19.337  0.00  0.00    +0.000 OA
BRANCH   5   8
ATOM      8  C   UNL     1       5.716   5.156  17.566  0.00  0.00    +0.000 A 
ATOM      9  C   UNL     1       6.561   6.090  16.911  0.00  0.00    +0.000 A 
ATOM     10  C   UNL     1       7.516   7.113  17.394  0.00  0.00    +0.000 C 
ATOM     11  N   UNL     1       6.424   5.982  15.574  0.00  0.00    +0.000 NA
ATOM     12  O   UNL     1       5.507   4.988  15.356  0.00  0.00    +0.000 OA
ATOM     13  C   UNL     1       5.080   4.492  16.547  0.00  0.00    +0.000 A 
ATOM     14  C   UNL     1       4.074   3.412  16.466  0.00  0.00    +0.000 C 
ENDBRANCH   5   8
ENDBRANCH   3   5
BRANCH   1  15
ATOM     15  C   UNL     1       1.833   6.240  20.505  0.00  0.00    +0.000 C 
BRANCH  15  16
ATOM     16  O   UNL     1       2.197   7.606  20.433  0.00  0.00    +0.000 OA
BRANCH  16  24
ATOM     17  C   UNL     1      -0.142   8.905  22.141  0.00  0.00    +0.000 C 
ATOM     18  C   UNL     1       0.242   9.170  20.711  0.00  0.00    +0.000 A 
ATOM     19  C   UNL     1      -0.553  10.140  20.055  0.00  0.00    +0.000 A 
ATOM     20  C   UNL     1      -0.331  10.506  18.734  0.00  0.00    +0.000 A 
ATOM     21  C   UNL     1       0.701   9.904  18.029  0.00  0.00    +0.000 A 
ATOM     22  C   UNL     1       1.513   8.938  18.644  0.00  0.00    +0.000 A 
ATOM     23  C   UNL     1       2.619   8.326  17.821  0.00  0.00    +0.000 C 
ATOM     24  C   UNL     1       1.297   8.555  19.997  0.00  0.00    +0.000 A 
ENDBRANCH  16  24
ENDBRANCH  15  16
ENDBRANCH   1  15
TORSDOF 5
ENDMDL
MODEL 4
REMARK VINA RESULT:      -7.4      0.904      2.072
REMARK  Name = 
REMARK  9 active torsions:
REMARK  status: ('A' for Active; 'I' for Inactive)
REMARK    1  A    between atoms: C_1  and  C_2
REMARK    2  A    between atoms: C_6  and  C_7
REMARK    3  A    between atoms: C_8  and  O_9
REMARK    4  A    between atoms: O_9  and  C_10
REMARK    5  A    between atoms: C_10  and  C_11
REMARK    6  A    between atoms: N_13  and  S_14
REMARK    7  A    between atoms: S_14  and  C_17
REMARK    8  A    between atoms: C_18  and  C_19
REMARK    9  A    between atoms: C_22  and  C_23
REMARK                            x       y       z     vdW  Elec       q    Type
REMARK                         _______ _______ _______ _____ _____    ______ ____
ROOT
ATOM      1  C   UNL     1       3.049   5.140  19.547  0.00  0.00    +0.000 C 
ATOM      2  O   UNL     1       2.811   4.226  18.764  0.00  0.00    +0.000 OA
ATOM      3  N   UNL     1       4.361   5.556  19.815  0.00  0.00    +0.000 N 
ATOM      4  H   UNL     1       4.550   6.345  20.432  0.00  0.00    +0.000 HD
ENDROOT
BRANCH   3   5
ATOM      5  S   UNL     1       5.725   4.803  19.226  0.00  0.00    +0.000 S 
ATOM      6  O   UNL     1       6.817   5.295  20.037  0.00  0.00    +0.000 OA
ATOM      7  O   UNL     1       5.467   3.385  19.109  0.00  0.00    +0.000 OA
BRANCH   5   8
ATOM      8  C   UNL     1       6.096   5.363  17.660  0.00  0.00    +0.000 A 
ATOM      9  C   UNL     1       5.627   4.956  16.383  0.00  0.00    +0.000 A 
ATOM     10  C   UNL     1       4.653   3.936  15.933  0.00  0.00    +0.000 C 
ATOM     11  N   UNL     1       6.229   5.678  15.417  0.00  0.00    +0.000 NA
ATOM     12  O   UNL     1       7.074   6.549  16.050  0.00  0.00    +0.000 OA
ATOM     13  C   UNL     1       6.998   6.362  17.395  0.00  0.00    +0.000 A 
ATOM     14  C   UNL     1       7.870   7.233  18.211  0.00  0.00    +0.000 C 
ENDBRANCH   5   8
ENDBRANCH   3   5
BRANCH   1  15
ATOM     15  C   UNL     1       1.948   5.893  20.303  0.00  0.00    +0.000 C 
BRANCH  15  16
ATOM     16  O   UNL     1       2.255   7.253  20.546  0.00  0.00    +0.000 OA
BRANCH  16  24
ATOM     17  C   UNL     1       3.019   7.956  17.546  0.00  0.00    +0.000 C 
ATOM     18  C   UNL     1       1.996   8.607  18.437  0.00  0.00    +0.000 A 
ATOM     19  C   UNL     1       1.279   9.669  17.836  0.00  0.00    +0.000 A 
ATOM     20  C   UNL     1       0.295  10.373  18.518  0.00  0.00    +0.000 A 
ATOM     21  C   UNL     1       0.003  10.030  19.830  0.00  0.00    +0.000 A 
ATOM     22  C   UNL     1       0.691   8.982  20.461  0.00  0.00    +0.000 A 
ATOM     23  C   UNL     1       0.321   8.659  21.887  0.00  0.00    +0.000 C 
ATOM     24  C   UNL     1       1.700   8.252  19.773  0.00  0.00    +0.000 A 
ENDBRANCH  16  24
ENDBRANCH  15  16
ENDBRANCH   1  15
TORSDOF 5
ENDMDL
MODEL 5
REMARK VINA RESULT:      -7.4      0.967      1.056
REMARK  Name = 
REMARK  9 active torsions:
REMARK  status: ('A' for Active; 'I' for Inactive)
REMARK    1  A    between atoms: C_1  and  C_2
REMARK    2  A    between atoms: C_6  and  C_7
REMARK    3  A    between atoms: C_8  and  O_9
REMARK    4  A    between atoms: O_9  and  C_10
REMARK    5  A    between atoms: C_10  and  C_11
REMARK    6  A    between atoms: N_13  and  S_14
REMARK    7  A    between atoms: S_14  and  C_17
REMARK    8  A    between atoms: C_18  and  C_19
REMARK    9  A    between atoms: C_22  and  C_23
REMARK                            x       y       z     vdW  Elec       q    Type
REMARK                         _______ _______ _______ _____ _____    ______ ____
ROOT
ATOM      1  C   UNL     1       3.028   5.360  19.593  0.00  0.00    +0.000 C 
ATOM      2  O   UNL     1       2.734   4.382  18.913  0.00  0.00    +0.000 OA
ATOM      3  N   UNL     1       4.361   5.750  19.785  0.00  0.00    +0.000 N 
ATOM      4  H   UNL     1       4.596   6.589  20.313  0.00  0.00    +0.000 HD
ENDROOT
BRANCH   3   5
ATOM      5  S   UNL     1       5.680   4.888  19.241  0.00  0.00    +0.000 S 
ATOM      6  O   UNL     1       6.802   5.374  20.015  0.00  0.00    +0.000 OA
ATOM      7  O   UNL     1       5.347   3.482  19.218  0.00  0.00    +0.000 OA
BRANCH   5   8
ATOM      8  C   UNL     1       6.068   5.325  17.640  0.00  0.00    +0.000 A 
ATOM      9  C   UNL     1       5.615   4.818  16.394  0.00  0.00    +0.000 A 
ATOM     10  C   UNL     1       4.648   3.763  16.014  0.00  0.00    +0.000 C 
ATOM     11  N   UNL     1       6.228   5.463  15.381  0.00  0.00    +0.000 NA
ATOM     12  O   UNL     1       7.064   6.383  15.954  0.00  0.00    +0.000 OA
ATOM     13  C   UNL     1       6.973   6.302  17.308  0.00  0.00    +0.000 A 
ATOM     14  C   UNL     1       7.833   7.236  18.064  0.00  0.00    +0.000 C 
ENDBRANCH   5   8
ENDBRANCH   3   5
BRANCH   1  15
ATOM     15  C   UNL     1       1.977   6.228  20.296  0.00  0.00    +0.000 C 
BRANCH  15  16
ATOM     16  O   UNL     1       2.291   7.608  20.299  0.00  0.00    +0.000 OA
BRANCH  16  24
ATOM     17  C   UNL     1      -0.066   8.804  22.058  0.00  0.00    +0.000 C 
ATOM     18  C   UNL     1       0.299   9.114  20.632  0.00  0.00    +0.000 A 
ATOM     19  C   UNL     1      -0.525  10.080  20.007  0.00  0.00    +0.000 A 
ATOM     20  C   UNL     1      -0.323  10.485  18.695  0.00  0.00    +0.000 A 
ATOM     21  C   UNL     1       0.718   9.927  17.967  0.00  0.00    +0.000 A 
ATOM     22  C   UNL     1       1.559   8.967  18.551  0.00  0.00    +0.000 A 
ATOM     23  C   UNL     1       2.673   8.404  17.704  0.00  0.00    +0.000 C 
ATOM     24  C   UNL     1       1.363   8.544  19.895  0.00  0.00    +0.000 A 
ENDBRANCH  16  24
ENDBRANCH  15  16
ENDBRANCH   1  15
TORSDOF 5
ENDMDL
MODEL 6
REMARK VINA RESULT:      -7.3      0.503      2.509
REMARK  Name = 
REMARK  9 active torsions:
REMARK  status: ('A' for Active; 'I' for Inactive)
REMARK    1  A    between atoms: C_1  and  C_2
REMARK    2  A    between atoms: C_6  and  C_7
REMARK    3  A    between atoms: C_8  and  O_9
REMARK    4  A    between atoms: O_9  and  C_10
REMARK    5  A    between atoms: C_10  and  C_11
REMARK    6  A    between atoms: N_13  and  S_14
REMARK    7  A    between atoms: S_14  and  C_17
REMARK    8  A    between atoms: C_18  and  C_19
REMARK    9  A    between atoms: C_22  and  C_23
REMARK                            x       y       z     vdW  Elec       q    Type
REMARK                         _______ _______ _______ _____ _____    ______ ____
ROOT
ATOM      1  C   UNL     1       2.857   4.648  19.772  0.00  0.00    +0.000 C 
ATOM      2  O   UNL     1       2.962   3.585  20.376  0.00  0.00    +0.000 OA
ATOM      3  N   UNL     1       3.698   4.970  18.698  0.00  0.00    +0.000 N 
ATOM      4  H   UNL     1       3.578   5.834  18.172  0.00  0.00    +0.000 HD
ENDROOT
BRANCH   3   5
ATOM      5  S   UNL     1       4.989   4.039  18.202  0.00  0.00    +0.000 S 
ATOM      6  O   UNL     1       5.724   3.728  19.408  0.00  0.00    +0.000 OA
ATOM      7  O   UNL     1       4.506   2.988  17.334  0.00  0.00    +0.000 OA
BRANCH   5   8
ATOM      8  C   UNL     1       6.085   4.966  17.284  0.00  0.00    +0.000 A 
ATOM      9  C   UNL     1       7.154   5.814  17.677  0.00  0.00    +0.000 A 
ATOM     10  C   UNL     1       7.726   6.191  18.989  0.00  0.00    +0.000 C 
ATOM     11  N   UNL     1       7.732   6.365  16.590  0.00  0.00    +0.000 NA
ATOM     12  O   UNL     1       7.056   5.882  15.502  0.00  0.00    +0.000 OA
ATOM     13  C   UNL     1       6.067   5.045  15.914  0.00  0.00    +0.000 A 
ATOM     14  C   UNL     1       5.242   4.452  14.840  0.00  0.00    +0.000 C 
ENDBRANCH   5   8
ENDBRANCH   3   5
BRANCH   1  15
ATOM     15  C   UNL     1       1.819   5.713  20.142  0.00  0.00    +0.000 C 
BRANCH  15  16
ATOM     16  O   UNL     1       2.376   6.996  20.362  0.00  0.00    +0.000 OA
BRANCH  16  24
ATOM     17  C   UNL     1       3.064   7.791  17.367  0.00  0.00    +0.000 C 
ATOM     18  C   UNL     1       2.172   8.499  18.351  0.00  0.00    +0.000 A 
ATOM     19  C   UNL     1       1.557   9.672  17.853  0.00  0.00    +0.000 A 
ATOM     20  C   UNL     1       0.700  10.441  18.629  0.00  0.00    +0.000 A 
ATOM     21  C   UNL     1       0.436  10.053  19.934  0.00  0.00    +0.000 A 
ATOM     22  C   UNL     1       1.026   8.895  20.465  0.00  0.00    +0.000 A 
ATOM     23  C   UNL     1       0.693   8.530  21.889  0.00  0.00    +0.000 C 
ATOM     24  C   UNL     1       1.904   8.098  19.680  0.00  0.00    +0.000 A 
ENDBRANCH  16  24
ENDBRANCH  15  16
ENDBRANCH   1  15
TORSDOF 5
ENDMDL
MODEL 7
REMARK VINA RESULT:      -7.0      1.062      1.279
REMARK  Name = 
REMARK  9 active torsions:
REMARK  status: ('A' for Active; 'I' for Inactive)
REMARK    1  A    between atoms: C_1  and  C_2
REMARK    2  A    between atoms: C_6  and  C_7
REMARK    3  A    between atoms: C_8  and  O_9
REMARK    4  A    between atoms: O_9  and  C_10
REMARK    5  A    between atoms: C_10  and  C_11
REMARK    6  A    between atoms: N_13  and  S_14
REMARK    7  A    between atoms: S_14  and  C_17
REMARK    8  A    between atoms: C_18  and  C_19
REMARK    9  A    between atoms: C_22  and  C_23
REMARK                            x       y       z     vdW  Elec       q    Type
REMARK                         _______ _______ _______ _____ _____    ______ ____
ROOT
ATOM      1  C   UNL     1       3.039   6.087  18.985  0.00  0.00    +0.000 C 
ATOM      2  O   UNL     1       3.098   6.374  17.794  0.00  0.00    +0.000 OA
ATOM      3  N   UNL     1       3.757   5.007  19.519  0.00  0.00    +0.000 N 
ATOM      4  H   UNL     1       3.738   4.801  20.516  0.00  0.00    +0.000 HD
ENDROOT
BRANCH   3   5
ATOM      5  S   UNL     1       4.652   3.933  18.612  0.00  0.00    +0.000 S 
ATOM      6  O   UNL     1       5.407   3.157  19.571  0.00  0.00    +0.000 OA
ATOM      7  O   UNL     1       3.784   3.288  17.653  0.00  0.00    +0.000 OA
BRANCH   5   8
ATOM      8  C   UNL     1       5.850   4.751  17.716  0.00  0.00    +0.000 A 
ATOM      9  C   UNL     1       6.028   4.909  16.317  0.00  0.00    +0.000 A 
ATOM     10  C   UNL     1       5.259   4.460  15.134  0.00  0.00    +0.000 C 
ATOM     11  N   UNL     1       7.145   5.622  16.070  0.00  0.00    +0.000 NA
ATOM     12  O   UNL     1       7.688   5.930  17.289  0.00  0.00    +0.000 OA
ATOM     13  C   UNL     1       6.915   5.408  18.277  0.00  0.00    +0.000 A 
ATOM     14  C   UNL     1       7.387   5.656  19.656  0.00  0.00    +0.000 C 
ENDBRANCH   5   8
ENDBRANCH   3   5
BRANCH   1  15
ATOM     15  C   UNL     1       2.173   6.864  19.984  0.00  0.00    +0.000 C 
BRANCH  15  16
ATOM     16  O   UNL     1       2.315   8.268  19.885  0.00  0.00    +0.000 OA
BRANCH  16  24
ATOM     17  C   UNL     1       0.914   9.076  22.617  0.00  0.00    +0.000 C 
ATOM     18  C   UNL     1       0.565   9.498  21.216  0.00  0.00    +0.000 A 
ATOM     19  C   UNL     1      -0.536  10.383  21.122  0.00  0.00    +0.000 A 
ATOM     20  C   UNL     1      -0.987  10.873  19.904  0.00  0.00    +0.000 A 
ATOM     21  C   UNL     1      -0.343  10.485  18.738  0.00  0.00    +0.000 A 
ATOM     22  C   UNL     1       0.753   9.609  18.788  0.00  0.00    +0.000 A 
ATOM     23  C   UNL     1       1.408   9.231  17.484  0.00  0.00    +0.000 C 
ATOM     24  C   UNL     1       1.226   9.101  20.030  0.00  0.00    +0.000 A 
ENDBRANCH  16  24
ENDBRANCH  15  16
ENDBRANCH   1  15
TORSDOF 5
ENDMDL
MODEL 8
REMARK VINA RESULT:      -6.9      3.836      7.992
REMARK  Name = 
REMARK  9 active torsions:
REMARK  status: ('A' for Active; 'I' for Inactive)
REMARK    1  A    between atoms: C_1  and  C_2
REMARK    2  A    between atoms: C_6  and  C_7
REMARK    3  A    between atoms: C_8  and  O_9
REMARK    4  A    between atoms: O_9  and  C_10
REMARK    5  A    between atoms: C_10  and  C_11
REMARK    6  A    between atoms: N_13  and  S_14
REMARK    7  A    between atoms: S_14  and  C_17
REMARK    8  A    between atoms: C_18  and  C_19
REMARK    9  A    between atoms: C_22  and  C_23
REMARK                            x       y       z     vdW  Elec       q    Type
REMARK                         _______ _______ _______ _____ _____    ______ ____
ROOT
ATOM      1  C   UNL     1       1.936   8.503  18.570  0.00  0.00    +0.000 C 
ATOM      2  O   UNL     1       2.052   8.968  17.441  0.00  0.00    +0.000 OA
ATOM      3  N   UNL     1       1.212   9.168  19.570  0.00  0.00    +0.000 N 
ATOM      4  H   UNL     1       1.082   8.756  20.492  0.00  0.00    +0.000 HD
ENDROOT
BRANCH   3   5
ATOM      5  S   UNL     1       0.548  10.687  19.396  0.00  0.00    +0.000 S 
ATOM      6  O   UNL     1       1.661  11.561  19.095  0.00  0.00    +0.000 OA
ATOM      7  O   UNL     1      -0.593  10.604  18.512  0.00  0.00    +0.000 OA
BRANCH   5   8
ATOM      8  C   UNL     1      -0.033  11.266  20.890  0.00  0.00    +0.000 A 
ATOM      9  C   UNL     1      -0.156  10.635  22.156  0.00  0.00    +0.000 A 
ATOM     10  C   UNL     1       0.179   9.283  22.658  0.00  0.00    +0.000 C 
ATOM     11  N   UNL     1      -0.699  11.488  23.048  0.00  0.00    +0.000 NA
ATOM     12  O   UNL     1      -0.923  12.662  22.378  0.00  0.00    +0.000 OA
ATOM     13  C   UNL     1      -0.526  12.531  21.084  0.00  0.00    +0.000 A 
ATOM     14  C   UNL     1      -0.718  13.725  20.234  0.00  0.00    +0.000 C 
ENDBRANCH   5   8
ENDBRANCH   3   5
BRANCH   1  15
ATOM     15  C   UNL     1       2.576   7.174  18.990  0.00  0.00    +0.000 C 
BRANCH  15  16
ATOM     16  O   UNL     1       2.292   6.104  18.108  0.00  0.00    +0.000 OA
BRANCH  16  24
ATOM     17  C   UNL     1       0.867   4.250  20.255  0.00  0.00    +0.000 C 
ATOM     18  C   UNL     1       2.045   3.939  19.372  0.00  0.00    +0.000 A 
ATOM     19  C   UNL     1       2.570   2.634  19.525  0.00  0.00    +0.000 A 
ATOM     20  C   UNL     1       3.654   2.183  18.783  0.00  0.00    +0.000 A 
ATOM     21  C   UNL     1       4.245   3.035  17.861  0.00  0.00    +0.000 A 
ATOM     22  C   UNL     1       3.752   4.336  17.679  0.00  0.00    +0.000 A 
ATOM     23  C   UNL     1       4.439   5.208  16.658  0.00  0.00    +0.000 C 
ATOM     24  C   UNL     1       2.642   4.810  18.432  0.00  0.00    +0.000 A 
ENDBRANCH  16  24
ENDBRANCH  15  16
ENDBRANCH   1  15
TORSDOF 5
ENDMDL
MODEL 9
REMARK VINA RESULT:      -6.8      2.469      3.793
REMARK  Name = 
REMARK  9 active torsions:
REMARK  status: ('A' for Active; 'I' for Inactive)
REMARK    1  A    between atoms: C_1  and  C_2
REMARK    2  A    between atoms: C_6  and  C_7
REMARK    3  A    between atoms: C_8  and  O_9
REMARK    4  A    between atoms: O_9  and  C_10
REMARK    5  A    between atoms: C_10  and  C_11
REMARK    6  A    between atoms: N_13  and  S_14
REMARK    7  A    between atoms: S_14  and  C_17
REMARK    8  A    between atoms: C_18  and  C_19
REMARK    9  A    between atoms: C_22  and  C_23
REMARK                            x       y       z     vdW  Elec       q    Type
REMARK                         _______ _______ _______ _____ _____    ______ ____
ROOT
ATOM      1  C   UNL     1       1.912   6.428  20.242  0.00  0.00    +0.000 C 
ATOM      2  O   UNL     1       1.534   5.335  20.650  0.00  0.00    +0.000 OA
ATOM      3  N   UNL     1       2.509   6.578  18.982  0.00  0.00    +0.000 N 
ATOM      4  H   UNL     1       2.780   7.495  18.631  0.00  0.00    +0.000 HD
ENDROOT
BRANCH   3   5
ATOM      5  S   UNL     1       2.888   5.313  17.965  0.00  0.00    +0.000 S 
ATOM      6  O   UNL     1       1.618   4.732  17.586  0.00  0.00    +0.000 OA
ATOM      7  O   UNL     1       3.821   5.777  16.964  0.00  0.00    +0.000 OA
BRANCH   5   8
ATOM      8  C   UNL     1       3.669   4.063  18.821  0.00  0.00    +0.000 A 
ATOM      9  C   UNL     1       3.214   2.783  19.233  0.00  0.00    +0.000 A 
ATOM     10  C   UNL     1       1.936   2.054  19.068  0.00  0.00    +0.000 C 
ATOM     11  N   UNL     1       4.186   2.143  19.914  0.00  0.00    +0.000 NA
ATOM     12  O   UNL     1       5.263   2.988  19.943  0.00  0.00    +0.000 OA
ATOM     13  C   UNL     1       4.956   4.141  19.290  0.00  0.00    +0.000 A 
ATOM     14  C   UNL     1       6.028   5.157  19.249  0.00  0.00    +0.000 C 
ENDBRANCH   5   8
ENDBRANCH   3   5
BRANCH   1  15
ATOM     15  C   UNL     1       1.780   7.713  21.068  0.00  0.00    +0.000 C 
BRANCH  15  16
ATOM     16  O   UNL     1       0.476   8.265  21.055  0.00  0.00    +0.000 OA
BRANCH  16  24
ATOM     17  C   UNL     1       0.846   9.710  18.253  0.00  0.00    +0.000 C 
ATOM     18  C   UNL     1       0.423  10.300  19.571  0.00  0.00    +0.000 A 
ATOM     19  C   UNL     1       0.148  11.687  19.536  0.00  0.00    +0.000 A 
ATOM     20  C   UNL     1      -0.259  12.387  20.665  0.00  0.00    +0.000 A 
ATOM     21  C   UNL     1      -0.400  11.709  21.867  0.00  0.00    +0.000 A 
ATOM     22  C   UNL     1      -0.137  10.332  21.942  0.00  0.00    +0.000 A 
ATOM     23  C   UNL     1      -0.314   9.658  23.279  0.00  0.00    +0.000 C 
ATOM     24  C   UNL     1       0.279   9.604  20.794  0.00  0.00    +0.000 A 
ENDBRANCH  16  24
ENDBRANCH  15  16
ENDBRANCH   1  15
TORSDOF 5
ENDMDL
