MODEL 1
REMARK VINA RESULT:      -7.3      0.000      0.000
REMARK  Name = 
REMARK  2 active torsions:
REMARK  status: ('A' for Active; 'I' for Inactive)
REMARK    1  A    between atoms: C_5  and  C_6
REMARK    2  A    between atoms: N_13  and  C_14
REMARK                            x       y       z     vdW  Elec       q    Type
REMARK                         _______ _______ _______ _____ _____    ______ ____
ROOT
ATOM      1  S   UNL     1       0.434   2.345  18.921  0.00  0.00    +0.000 S 
ATOM      2  C   UNL     1       2.022   2.572  18.482  0.00  0.00    +0.000 A 
ATOM      3  N   UNL     1       2.761   1.557  17.891  0.00  0.00    +0.000 N 
ATOM      4  N   UNL     1       3.910   2.047  17.358  0.00  0.00    +0.000 NA
ATOM      5  C   UNL     1       3.925   3.308  17.706  0.00  0.00    +0.000 A 
ATOM      6  N   UNL     1       2.842   3.695  18.467  0.00  0.00    +0.000 N 
ATOM      7  H   UNL     1       2.427   0.626  17.672  0.00  0.00    +0.000 HD
ENDROOT
BRANCH   5   8
ATOM      8  C   UNL     1       5.028   4.190  17.259  0.00  0.00    +0.000 A 
ATOM      9  C   UNL     1       5.243   4.526  15.916  0.00  0.00    +0.000 A 
ATOM     10  C   UNL     1       6.382   5.250  15.550  0.00  0.00    +0.000 A 
ATOM     11  C   UNL     1       7.275   5.694  16.526  0.00  0.00    +0.000 A 
ATOM     12  C   UNL     1       7.020   5.426  17.868  0.00  0.00    +0.000 A 
ATOM     13 CL   UNL     1       8.101   6.009  19.074  0.00  0.00    +0.000 Cl
ATOM     14  C   UNL     1       5.907   4.673  18.237  0.00  0.00    +0.000 A 
ENDBRANCH   5   8
BRANCH   6  15
ATOM     15  C   UNL     1       2.485   4.991  18.925  0.00  0.00    +0.000 A 
ATOM     16  C   UNL     1       2.518   6.073  18.026  0.00  0.00    +0.000 A 
ATOM     17  C   UNL     1       2.286   7.384  18.455  0.00  0.00    +0.000 A 
ATOM     18  C   UNL     1       1.941   7.632  19.778  0.00  0.00    +0.000 A 
ATOM     19  C   UNL     1       1.861   6.574  20.680  0.00  0.00    +0.000 A 
ATOM     20  C   UNL     1       2.167   5.268  20.272  0.00  0.00    +0.000 A 
ATOM     21 BR   UNL     1       2.366   4.003  21.684  0.00  0.00    +0.000 Br
ENDBRANCH   6  15
TORSDOF 2
ENDMDL
MODEL 2
REMARK VINA RESULT:      -7.2      1.190      1.594
REMARK  Name = 
REMARK  2 active torsions:
REMARK  status: ('A' for Active; 'I' for Inactive)
REMARK    1  A    between atoms: C_5  and  C_6
REMARK    2  A    between atoms: N_13  and  C_14
REMARK                            x       y       z     vdW  Elec       q    Type
REMARK                         _______ _______ _______ _____ _____    ______ ____
ROOT
ATOM      1  S   UNL     1       0.433   2.396  18.802  0.00  0.00    +0.000 S 
ATOM      2  C   UNL     1       2.062   2.558  18.506  0.00  0.00    +0.000 A 
ATOM      3  N   UNL     1       2.816   1.501  18.018  0.00  0.00    +0.000 N 
ATOM      4  N   UNL     1       4.025   1.937  17.579  0.00  0.00    +0.000 NA
ATOM      5  C   UNL     1       4.051   3.208  17.887  0.00  0.00    +0.000 A 
ATOM      6  N   UNL     1       2.917   3.654  18.532  0.00  0.00    +0.000 N 
ATOM      7  H   UNL     1       2.472   0.574  17.798  0.00  0.00    +0.000 HD
ENDROOT
BRANCH   5   8
ATOM      8  C   UNL     1       5.220   4.039  17.518  0.00  0.00    +0.000 A 
ATOM      9  C   UNL     1       5.948   4.793  18.450  0.00  0.00    +0.000 A 
ATOM     10  C   UNL     1       6.953   5.662  18.013  0.00  0.00    +0.000 A 
ATOM     11  C   UNL     1       7.277   5.736  16.658  0.00  0.00    +0.000 A 
ATOM     12  C   UNL     1       6.606   4.930  15.743  0.00  0.00    +0.000 A 
ATOM     13 CL   UNL     1       7.035   4.993  14.077  0.00  0.00    +0.000 Cl
ATOM     14  C   UNL     1       5.578   4.089  16.166  0.00  0.00    +0.000 A 
ENDBRANCH   5   8
BRANCH   6  15
ATOM     15  C   UNL     1       2.564   4.976  18.915  0.00  0.00    +0.000 A 
ATOM     16  C   UNL     1       2.647   6.013  17.968  0.00  0.00    +0.000 A 
ATOM     17  C   UNL     1       2.420   7.346  18.325  0.00  0.00    +0.000 A 
ATOM     18  C   UNL     1       2.031   7.662  19.621  0.00  0.00    +0.000 A 
ATOM     19  C   UNL     1       1.901   6.650  20.568  0.00  0.00    +0.000 A 
ATOM     20  C   UNL     1       2.201   5.321  20.234  0.00  0.00    +0.000 A 
ATOM     21 BR   UNL     1       2.328   4.123  21.711  0.00  0.00    +0.000 Br
ENDBRANCH   6  15
TORSDOF 2
ENDMDL
MODEL 3
REMARK VINA RESULT:      -7.0      2.697      4.736
REMARK  Name = 
REMARK  2 active torsions:
REMARK  status: ('A' for Active; 'I' for Inactive)
REMARK    1  A    between atoms: C_5  and  C_6
REMARK    2  A    between atoms: N_13  and  C_14
REMARK                            x       y       z     vdW  Elec       q    Type
REMARK                         _______ _______ _______ _____ _____    ______ ____
ROOT
ATOM      1  S   UNL     1       4.132   1.237  18.234  0.00  0.00    +0.000 S 
ATOM      2  C   UNL     1       3.262   2.646  18.078  0.00  0.00    +0.000 A 
ATOM      3  N   UNL     1       1.874   2.640  18.053  0.00  0.00    +0.000 N 
ATOM      4  N   UNL     1       1.386   3.897  18.217  0.00  0.00    +0.000 NA
ATOM      5  C   UNL     1       2.445   4.664  18.236  0.00  0.00    +0.000 A 
ATOM      6  N   UNL     1       3.635   3.986  18.076  0.00  0.00    +0.000 N 
ATOM      7  H   UNL     1       1.280   1.823  18.128  0.00  0.00    +0.000 HD
ENDROOT
BRANCH   5   8
ATOM      8  C   UNL     1       2.303   6.123  18.444  0.00  0.00    +0.000 A 
ATOM      9  C   UNL     1       2.587   7.070  17.450  0.00  0.00    +0.000 A 
ATOM     10  C   UNL     1       2.565   8.434  17.756  0.00  0.00    +0.000 A 
ATOM     11  C   UNL     1       2.198   8.861  19.033  0.00  0.00    +0.000 A 
ATOM     12  C   UNL     1       1.840   7.923  19.998  0.00  0.00    +0.000 A 
ATOM     13 CL   UNL     1       1.350   8.453  21.560  0.00  0.00    +0.000 Cl
ATOM     14  C   UNL     1       1.898   6.560  19.711  0.00  0.00    +0.000 A 
ENDBRANCH   5   8
BRANCH   6  15
ATOM     15  C   UNL     1       4.965   4.479  18.148  0.00  0.00    +0.000 A 
ATOM     16  C   UNL     1       5.460   4.949  19.377  0.00  0.00    +0.000 A 
ATOM     17  C   UNL     1       6.720   5.547  19.475  0.00  0.00    +0.000 A 
ATOM     18  C   UNL     1       7.545   5.619  18.358  0.00  0.00    +0.000 A 
ATOM     19  C   UNL     1       7.095   5.124  17.137  0.00  0.00    +0.000 A 
ATOM     20  C   UNL     1       5.803   4.592  17.017  0.00  0.00    +0.000 A 
ATOM     21 BR   UNL     1       5.209   4.297  15.230  0.00  0.00    +0.000 Br
ENDBRANCH   6  15
TORSDOF 2
ENDMDL
MODEL 4
REMARK VINA RESULT:      -6.8      2.810      4.945
REMARK  Name = 
REMARK  2 active torsions:
REMARK  status: ('A' for Active; 'I' for Inactive)
REMARK    1  A    between atoms: C_5  and  C_6
REMARK    2  A    between atoms: N_13  and  C_14
REMARK                            x       y       z     vdW  Elec       q    Type
REMARK                         _______ _______ _______ _____ _____    ______ ____
ROOT
ATOM      1  S   UNL     1       4.707   1.649  20.830  0.00  0.00    +0.000 S 
ATOM      2  C   UNL     1       3.604   2.863  20.552  0.00  0.00    +0.000 A 
ATOM      3  N   UNL     1       2.449   2.978  21.313  0.00  0.00    +0.000 N 
ATOM      4  N   UNL     1       1.861   4.186  21.113  0.00  0.00    +0.000 NA
ATOM      5  C   UNL     1       2.578   4.753  20.178  0.00  0.00    +0.000 A 
ATOM      6  N   UNL     1       3.621   3.976  19.719  0.00  0.00    +0.000 N 
ATOM      7  H   UNL     1       2.175   2.371  22.077  0.00  0.00    +0.000 HD
ENDROOT
BRANCH   5   8
ATOM      8  C   UNL     1       2.255   6.124  19.721  0.00  0.00    +0.000 A 
ATOM      9  C   UNL     1       2.465   6.562  18.406  0.00  0.00    +0.000 A 
ATOM     10  C   UNL     1       2.267   7.907  18.077  0.00  0.00    +0.000 A 
ATOM     11  C   UNL     1       1.801   8.803  19.039  0.00  0.00    +0.000 A 
ATOM     12  C   UNL     1       1.519   8.352  20.325  0.00  0.00    +0.000 A 
ATOM     13 CL   UNL     1       0.905   9.450  21.499  0.00  0.00    +0.000 Cl
ATOM     14  C   UNL     1       1.749   7.021  20.670  0.00  0.00    +0.000 A 
ENDBRANCH   5   8
BRANCH   6  15
ATOM     15  C   UNL     1       4.649   4.309  18.796  0.00  0.00    +0.000 A 
ATOM     16  C   UNL     1       5.721   5.114  19.220  0.00  0.00    +0.000 A 
ATOM     17  C   UNL     1       6.696   5.561  18.322  0.00  0.00    +0.000 A 
ATOM     18  C   UNL     1       6.661   5.150  16.995  0.00  0.00    +0.000 A 
ATOM     19  C   UNL     1       5.632   4.319  16.558  0.00  0.00    +0.000 A 
ATOM     20  C   UNL     1       4.611   3.929  17.437  0.00  0.00    +0.000 A 
ATOM     21 BR   UNL     1       3.102   3.106  16.613  0.00  0.00    +0.000 Br
ENDBRANCH   6  15
TORSDOF 2
ENDMDL
MODEL 5
REMARK VINA RESULT:      -6.7      8.580     10.039
REMARK  Name = 
REMARK  2 active torsions:
REMARK  status: ('A' for Active; 'I' for Inactive)
REMARK    1  A    between atoms: C_5  and  C_6
REMARK    2  A    between atoms: N_13  and  C_14
REMARK                            x       y       z     vdW  Elec       q    Type
REMARK                         _______ _______ _______ _____ _____    ______ ____
ROOT
ATOM      1  S   UNL     1       2.486  13.645  20.802  0.00  0.00    +0.000 S 
ATOM      2  C   UNL     1       1.066  13.386  19.974  0.00  0.00    +0.000 A 
ATOM      3  N   UNL     1       0.742  14.124  18.845  0.00  0.00    +0.000 N 
ATOM      4  N   UNL     1      -0.293  13.552  18.178  0.00  0.00    +0.000 NA
ATOM      5  C   UNL     1      -0.661  12.550  18.934  0.00  0.00    +0.000 A 
ATOM      6  N   UNL     1       0.069  12.424  20.097  0.00  0.00    +0.000 N 
ATOM      7  H   UNL     1       1.307  14.854  18.427  0.00  0.00    +0.000 HD
ENDROOT
BRANCH   5   8
ATOM      8  C   UNL     1      -1.757  11.654  18.500  0.00  0.00    +0.000 A 
ATOM      9  C   UNL     1      -1.541  10.486  17.755  0.00  0.00    +0.000 A 
ATOM     10  C   UNL     1      -2.630   9.761  17.261  0.00  0.00    +0.000 A 
ATOM     11  C   UNL     1      -3.933  10.159  17.560  0.00  0.00    +0.000 A 
ATOM     12  C   UNL     1      -4.146  11.275  18.365  0.00  0.00    +0.000 A 
ATOM     13 CL   UNL     1      -5.753  11.742  18.767  0.00  0.00    +0.000 Cl
ATOM     14  C   UNL     1      -3.067  12.025  18.829  0.00  0.00    +0.000 A 
ENDBRANCH   5   8
BRANCH   6  15
ATOM     15  C   UNL     1       0.013  11.406  21.086  0.00  0.00    +0.000 A 
ATOM     16  C   UNL     1       0.748  10.222  20.898  0.00  0.00    +0.000 A 
ATOM     17  C   UNL     1       0.637   9.146  21.785  0.00  0.00    +0.000 A 
ATOM     18  C   UNL     1      -0.155   9.261  22.921  0.00  0.00    +0.000 A 
ATOM     19  C   UNL     1      -0.862  10.438  23.153  0.00  0.00    +0.000 A 
ATOM     20  C   UNL     1      -0.813  11.491  22.228  0.00  0.00    +0.000 A 
ATOM     21 BR   UNL     1      -2.102  12.868  22.498  0.00  0.00    +0.000 Br
ENDBRANCH   6  15
TORSDOF 2
ENDMDL
MODEL 6
REMARK VINA RESULT:      -6.6      3.336      5.257
REMARK  Name = 
REMARK  2 active torsions:
REMARK  status: ('A' for Active; 'I' for Inactive)
REMARK    1  A    between atoms: C_5  and  C_6
REMARK    2  A    between atoms: N_13  and  C_14
REMARK                            x       y       z     vdW  Elec       q    Type
REMARK                         _______ _______ _______ _____ _____    ______ ____
ROOT
ATOM      1  S   UNL     1       5.814   3.997  14.558  0.00  0.00    +0.000 S 
ATOM      2  C   UNL     1       5.339   5.237  15.560  0.00  0.00    +0.000 A 
ATOM      3  N   UNL     1       5.522   6.565  15.203  0.00  0.00    +0.000 N 
ATOM      4  N   UNL     1       4.805   7.384  16.017  0.00  0.00    +0.000 NA
ATOM      5  C   UNL     1       4.282   6.587  16.912  0.00  0.00    +0.000 A 
ATOM      6  N   UNL     1       4.624   5.260  16.753  0.00  0.00    +0.000 N 
ATOM      7  H   UNL     1       5.936   6.900  14.341  0.00  0.00    +0.000 HD
ENDROOT
BRANCH   5   8
ATOM      8  C   UNL     1       3.387   7.129  17.958  0.00  0.00    +0.000 A 
ATOM      9  C   UNL     1       3.159   6.483  19.182  0.00  0.00    +0.000 A 
ATOM     10  C   UNL     1       2.197   6.979  20.067  0.00  0.00    +0.000 A 
ATOM     11  C   UNL     1       1.505   8.152  19.765  0.00  0.00    +0.000 A 
ATOM     12  C   UNL     1       1.786   8.836  18.586  0.00  0.00    +0.000 A 
ATOM     13 CL   UNL     1       0.961  10.305  18.234  0.00  0.00    +0.000 Cl
ATOM     14  C   UNL     1       2.717   8.327  17.681  0.00  0.00    +0.000 A 
ENDBRANCH   5   8
BRANCH   6  15
ATOM     15  C   UNL     1       4.163   4.123  17.468  0.00  0.00    +0.000 A 
ATOM     16  C   UNL     1       2.967   3.498  17.072  0.00  0.00    +0.000 A 
ATOM     17  C   UNL     1       2.414   2.448  17.811  0.00  0.00    +0.000 A 
ATOM     18  C   UNL     1       3.084   1.949  18.921  0.00  0.00    +0.000 A 
ATOM     19  C   UNL     1       4.291   2.523  19.312  0.00  0.00    +0.000 A 
ATOM     20  C   UNL     1       4.812   3.625  18.618  0.00  0.00    +0.000 A 
ATOM     21 BR   UNL     1       6.260   4.516  19.481  0.00  0.00    +0.000 Br
ENDBRANCH   6  15
TORSDOF 2
ENDMDL
MODEL 7
REMARK VINA RESULT:      -6.6      6.258      8.386
REMARK  Name = 
REMARK  2 active torsions:
REMARK  status: ('A' for Active; 'I' for Inactive)
REMARK    1  A    between atoms: C_5  and  C_6
REMARK    2  A    between atoms: N_13  and  C_14
REMARK                            x       y       z     vdW  Elec       q    Type
REMARK                         _______ _______ _______ _____ _____    ______ ____
ROOT
ATOM      1  S   UNL     1      -2.398   9.984  17.834  0.00  0.00    +0.000 S 
ATOM      2  C   UNL     1      -1.266  11.195  17.966  0.00  0.00    +0.000 A 
ATOM      3  N   UNL     1      -1.594  12.521  17.723  0.00  0.00    +0.000 N 
ATOM      4  N   UNL     1      -0.614  13.348  18.172  0.00  0.00    +0.000 NA
ATOM      5  C   UNL     1       0.334  12.546  18.583  0.00  0.00    +0.000 A 
ATOM      6  N   UNL     1       0.049  11.207  18.419  0.00  0.00    +0.000 N 
ATOM      7  H   UNL     1      -2.508  12.871  17.460  0.00  0.00    +0.000 HD
ENDROOT
BRANCH   5   8
ATOM      8  C   UNL     1       1.566  13.101  19.188  0.00  0.00    +0.000 A 
ATOM      9  C   UNL     1       1.763  13.199  20.572  0.00  0.00    +0.000 A 
ATOM     10  C   UNL     1       2.890  13.858  21.074  0.00  0.00    +0.000 A 
ATOM     11  C   UNL     1       3.853  14.364  20.201  0.00  0.00    +0.000 A 
ATOM     12  C   UNL     1       3.696  14.198  18.828  0.00  0.00    +0.000 A 
ATOM     13 CL   UNL     1       4.906  14.787  17.754  0.00  0.00    +0.000 Cl
ATOM     14  C   UNL     1       2.557  13.576  18.319  0.00  0.00    +0.000 A 
ENDBRANCH   5   8
BRANCH   6  15
ATOM     15  C   UNL     1       0.794  10.074  18.841  0.00  0.00    +0.000 A 
ATOM     16  C   UNL     1       1.530   9.340  17.893  0.00  0.00    +0.000 A 
ATOM     17  C   UNL     1       2.186   8.155  18.238  0.00  0.00    +0.000 A 
ATOM     18  C   UNL     1       2.183   7.716  19.556  0.00  0.00    +0.000 A 
ATOM     19  C   UNL     1       1.495   8.445  20.524  0.00  0.00    +0.000 A 
ATOM     20  C   UNL     1       0.773   9.594  20.168  0.00  0.00    +0.000 A 
ATOM     21 BR   UNL     1      -0.397  10.265  21.515  0.00  0.00    +0.000 Br
ENDBRANCH   6  15
TORSDOF 2
ENDMDL
MODEL 8
REMARK VINA RESULT:      -6.5      2.586      4.891
REMARK  Name = 
REMARK  2 active torsions:
REMARK  status: ('A' for Active; 'I' for Inactive)
REMARK    1  A    between atoms: C_5  and  C_6
REMARK    2  A    between atoms: N_13  and  C_14
REMARK                            x       y       z     vdW  Elec       q    Type
REMARK                         _______ _______ _______ _____ _____    ______ ____
ROOT
ATOM      1  S   UNL     1       4.296   1.181  17.799  0.00  0.00    +0.000 S 
ATOM      2  C   UNL     1       3.341   2.524  18.026  0.00  0.00    +0.000 A 
ATOM      3  N   UNL     1       1.965   2.418  18.164  0.00  0.00    +0.000 N 
ATOM      4  N   UNL     1       1.437   3.581  18.627  0.00  0.00    +0.000 NA
ATOM      5  C   UNL     1       2.449   4.409  18.672  0.00  0.00    +0.000 A 
ATOM      6  N   UNL     1       3.641   3.865  18.243  0.00  0.00    +0.000 N 
ATOM      7  H   UNL     1       1.428   1.559  18.147  0.00  0.00    +0.000 HD
ENDROOT
BRANCH   5   8
ATOM      8  C   UNL     1       2.259   5.787  19.177  0.00  0.00    +0.000 A 
ATOM      9  C   UNL     1       1.954   6.078  20.514  0.00  0.00    +0.000 A 
ATOM     10  C   UNL     1       1.653   7.389  20.894  0.00  0.00    +0.000 A 
ATOM     11  C   UNL     1       1.717   8.423  19.959  0.00  0.00    +0.000 A 
ATOM     12  C   UNL     1       2.096   8.146  18.649  0.00  0.00    +0.000 A 
ATOM     13 CL   UNL     1       2.213   9.428  17.506  0.00  0.00    +0.000 Cl
ATOM     14  C   UNL     1       2.360   6.836  18.254  0.00  0.00    +0.000 A 
ENDBRANCH   5   8
BRANCH   6  15
ATOM     15  C   UNL     1       4.942   4.435  18.253  0.00  0.00    +0.000 A 
ATOM     16  C   UNL     1       5.482   4.899  19.466  0.00  0.00    +0.000 A 
ATOM     17  C   UNL     1       6.708   5.569  19.509  0.00  0.00    +0.000 A 
ATOM     18  C   UNL     1       7.458   5.723  18.349  0.00  0.00    +0.000 A 
ATOM     19  C   UNL     1       6.966   5.237  17.141  0.00  0.00    +0.000 A 
ATOM     20  C   UNL     1       5.702   4.631  17.080  0.00  0.00    +0.000 A 
ATOM     21 BR   UNL     1       5.020   4.352  15.322  0.00  0.00    +0.000 Br
ENDBRANCH   6  15
TORSDOF 2
ENDMDL
MODEL 9
REMARK VINA RESULT:      -6.5      3.191      5.273
REMARK  Name = 
REMARK  2 active torsions:
REMARK  status: ('A' for Active; 'I' for Inactive)
REMARK    1  A    between atoms: C_5  and  C_6
REMARK    2  A    between atoms: N_13  and  C_14
REMARK                            x       y       z     vdW  Elec       q    Type
REMARK                         _______ _______ _______ _____ _____    ______ ____
ROOT
ATOM      1  S   UNL     1       5.151   3.677  17.507  0.00  0.00    +0.000 S 
ATOM      2  C   UNL     1       4.583   5.204  17.841  0.00  0.00    +0.000 A 
ATOM      3  N   UNL     1       5.078   6.319  17.181  0.00  0.00    +0.000 N 
ATOM      4  N   UNL     1       4.278   7.397  17.393  0.00  0.00    +0.000 NA
ATOM      5  C   UNL     1       3.378   6.979  18.245  0.00  0.00    +0.000 A 
ATOM      6  N   UNL     1       3.539   5.666  18.635  0.00  0.00    +0.000 N 
ATOM      7  H   UNL     1       5.793   6.320  16.463  0.00  0.00    +0.000 HD
ENDROOT
BRANCH   5   8
ATOM      8  C   UNL     1       2.293   7.885  18.685  0.00  0.00    +0.000 A 
ATOM      9  C   UNL     1       1.591   8.722  17.807  0.00  0.00    +0.000 A 
ATOM     10  C   UNL     1       0.675   9.652  18.309  0.00  0.00    +0.000 A 
ATOM     11  C   UNL     1       0.409   9.706  19.678  0.00  0.00    +0.000 A 
ATOM     12  C   UNL     1       1.049   8.821  20.541  0.00  0.00    +0.000 A 
ATOM     13 CL   UNL     1       0.690   8.863  22.224  0.00  0.00    +0.000 Cl
ATOM     14  C   UNL     1       1.992   7.918  20.052  0.00  0.00    +0.000 A 
ENDBRANCH   5   8
BRANCH   6  15
ATOM     15  C   UNL     1       2.700   4.864  19.454  0.00  0.00    +0.000 A 
ATOM     16  C   UNL     1       3.031   4.682  20.809  0.00  0.00    +0.000 A 
ATOM     17  C   UNL     1       2.302   3.813  21.627  0.00  0.00    +0.000 A 
ATOM     18  C   UNL     1       1.179   3.165  21.127  0.00  0.00    +0.000 A 
ATOM     19  C   UNL     1       0.804   3.360  19.800  0.00  0.00    +0.000 A 
ATOM     20  C   UNL     1       1.576   4.171  18.955  0.00  0.00    +0.000 A 
ATOM     21 BR   UNL     1       1.150   4.049  17.101  0.00  0.00    +0.000 Br
ENDBRANCH   6  15
TORSDOF 2
ENDMDL
