MODEL 1
REMARK VINA RESULT:      -7.8      0.000      0.000
REMARK  Name = 
REMARK  10 active torsions:
REMARK  status: ('A' for Active; 'I' for Inactive)
REMARK    1  A    between atoms: C_1  and  O_2
REMARK    2  A    between atoms: O_2  and  C_3
REMARK    3  A    between atoms: C_6  and  O_7
REMARK    4  A    between atoms: O_7  and  C_8
REMARK    5  A    between atoms: C_8  and  C_9
REMARK    6  A    between atoms: C_9  and  O_10
REMARK    7  A    between atoms: C_9  and  C_11
REMARK    8  A    between atoms: C_11  and  N_12
REMARK    9  A    between atoms: C_13  and  C_14
REMARK   10  A    between atoms: N_15  and  C_16
REMARK                            x       y       z     vdW  Elec       q    Type
REMARK                         _______ _______ _______ _____ _____    ______ ____
ROOT
ATOM      1  C   UNL     1       6.821   4.535  17.503  0.00  0.00    +0.000 C 
ENDROOT
BRANCH   1   2
ATOM      2  O   UNL     1       8.149   4.169  17.857  0.00  0.00    +0.000 OA
ATOM      3  H   UNL     1       8.598   4.935  18.324  0.00  0.00    +0.000 HD
ENDBRANCH   1   2
BRANCH   1   4
ATOM      4  C   UNL     1       6.933   5.908  16.782  0.00  0.00    +0.000 C 
BRANCH   4   5
ATOM      5  O   UNL     1       7.463   5.776  15.528  0.00  0.00    +0.000 OA
BRANCH   5   9
ATOM      6  C   UNL     1       6.115   3.407  12.351  0.00  0.00    +0.000 A 
ATOM      7  C   UNL     1       5.389   3.406  13.550  0.00  0.00    +0.000 A 
ATOM      8  C   UNL     1       5.811   4.186  14.643  0.00  0.00    +0.000 A 
ATOM      9  C   UNL     1       6.988   4.970  14.539  0.00  0.00    +0.000 A 
ATOM     10  C   UNL     1       7.708   4.950  13.348  0.00  0.00    +0.000 A 
ATOM     11  C   UNL     1       7.284   4.184  12.263  0.00  0.00    +0.000 A 
BRANCH   6  13
ATOM     12  C   UNL     1       5.829   1.304  11.159  0.00  0.00    +0.000 C 
ATOM     13  O   UNL     1       5.655   2.666  11.308  0.00  0.00    +0.000 OA
ENDBRANCH   6  13
ENDBRANCH   5   9
ENDBRANCH   4   5
ENDBRANCH   1   4
BRANCH   1  14
ATOM     14  C   UNL     1       5.948   4.302  18.797  0.00  0.00    +0.000 C 
BRANCH  14  15
ATOM     15  N   UNL     1       4.467   4.102  19.078  0.00  0.00    +0.000 N 
ATOM     16  C   UNL     1       3.731   4.799  18.194  0.00  0.00    +0.000 A 
ATOM     17  C   UNL     1       3.484   3.796  17.042  0.00  0.00    +0.000 C 
ATOM     18  N   UNL     1       2.565   5.237  18.753  0.00  0.00    +0.000 N 
ATOM     19  C   UNL     1       2.661   6.544  19.456  0.00  0.00    +0.000 C 
ATOM     20  C   UNL     1       2.317   4.277  19.641  0.00  0.00    +0.000 A 
ATOM     21  C   UNL     1       1.099   4.145  20.293  0.00  0.00    +0.000 A 
ATOM     22  C   UNL     1       0.993   3.135  21.236  0.00  0.00    +0.000 A 
ATOM     23  C   UNL     1       2.105   2.345  21.555  0.00  0.00    +0.000 A 
ATOM     24  C   UNL     1       3.394   2.566  20.919  0.00  0.00    +0.000 A 
ATOM     25  C   UNL     1       3.470   3.550  19.895  0.00  0.00    +0.000 A 
ENDBRANCH  14  15
ENDBRANCH   1  14
TORSDOF 7
ENDMDL
MODEL 2
REMARK VINA RESULT:      -7.7      1.350      1.631
REMARK  Name = 
REMARK  10 active torsions:
REMARK  status: ('A' for Active; 'I' for Inactive)
REMARK    1  A    between atoms: C_1  and  O_2
REMARK    2  A    between atoms: O_2  and  C_3
REMARK    3  A    between atoms: C_6  and  O_7
REMARK    4  A    between atoms: O_7  and  C_8
REMARK    5  A    between atoms: C_8  and  C_9
REMARK    6  A    between atoms: C_9  and  O_10
REMARK    7  A    between atoms: C_9  and  C_11
REMARK    8  A    between atoms: C_11  and  N_12
REMARK    9  A    between atoms: C_13  and  C_14
REMARK   10  A    between atoms: N_15  and  C_16
REMARK                            x       y       z     vdW  Elec       q    Type
REMARK                         _______ _______ _______ _____ _____    ______ ____
ROOT
ATOM      1  C   UNL     1       7.015   5.269  18.139  0.00  0.00    +0.000 C 
ENDROOT
BRANCH   1   2
ATOM      2  O   UNL     1       8.160   5.369  18.977  0.00  0.00    +0.000 OA
ATOM      3  H   UNL     1       8.691   4.519  18.929  0.00  0.00    +0.000 HD
ENDBRANCH   1   2
BRANCH   1   4
ATOM      4  C   UNL     1       7.146   6.417  17.098  0.00  0.00    +0.000 C 
BRANCH   4   5
ATOM      5  O   UNL     1       7.696   5.975  15.926  0.00  0.00    +0.000 OA
BRANCH   5   9
ATOM      6  C   UNL     1       5.914   3.636  12.947  0.00  0.00    +0.000 A 
ATOM      7  C   UNL     1       5.334   3.662  14.223  0.00  0.00    +0.000 A 
ATOM      8  C   UNL     1       5.905   4.432  15.253  0.00  0.00    +0.000 A 
ATOM      9  C   UNL     1       7.084   5.180  15.006  0.00  0.00    +0.000 A 
ATOM     10  C   UNL     1       7.658   5.133  13.739  0.00  0.00    +0.000 A 
ATOM     11  C   UNL     1       7.088   4.376  12.717  0.00  0.00    +0.000 A 
BRANCH   6  13
ATOM     12  C   UNL     1       4.157   3.262  11.303  0.00  0.00    +0.000 C 
ATOM     13  O   UNL     1       5.313   2.905  11.970  0.00  0.00    +0.000 OA
ENDBRANCH   6  13
ENDBRANCH   5   9
ENDBRANCH   4   5
ENDBRANCH   1   4
BRANCH   1  14
ATOM     14  C   UNL     1       5.781   5.112  19.108  0.00  0.00    +0.000 C 
BRANCH  14  15
ATOM     15  N   UNL     1       4.318   4.733  18.940  0.00  0.00    +0.000 N 
ATOM     16  C   UNL     1       3.532   5.778  19.256  0.00  0.00    +0.000 A 
ATOM     17  C   UNL     1       3.330   6.511  17.907  0.00  0.00    +0.000 C 
ATOM     18  N   UNL     1       2.349   5.364  19.797  0.00  0.00    +0.000 N 
ATOM     19  C   UNL     1       2.375   5.152  21.269  0.00  0.00    +0.000 C 
ATOM     20  C   UNL     1       2.168   4.196  19.187  0.00  0.00    +0.000 A 
ATOM     21  C   UNL     1       0.968   3.500  19.224  0.00  0.00    +0.000 A 
ATOM     22  C   UNL     1       0.933   2.266  18.593  0.00  0.00    +0.000 A 
ATOM     23  C   UNL     1       2.094   1.732  18.017  0.00  0.00    +0.000 A 
ATOM     24  C   UNL     1       3.359   2.446  18.073  0.00  0.00    +0.000 A 
ATOM     25  C   UNL     1       3.364   3.746  18.651  0.00  0.00    +0.000 A 
ENDBRANCH  14  15
ENDBRANCH   1  14
TORSDOF 7
ENDMDL
MODEL 3
REMARK VINA RESULT:      -7.5      5.415      7.979
REMARK  Name = 
REMARK  10 active torsions:
REMARK  status: ('A' for Active; 'I' for Inactive)
REMARK    1  A    between atoms: C_1  and  O_2
REMARK    2  A    between atoms: O_2  and  C_3
REMARK    3  A    between atoms: C_6  and  O_7
REMARK    4  A    between atoms: O_7  and  C_8
REMARK    5  A    between atoms: C_8  and  C_9
REMARK    6  A    between atoms: C_9  and  O_10
REMARK    7  A    between atoms: C_9  and  C_11
REMARK    8  A    between atoms: C_11  and  N_12
REMARK    9  A    between atoms: C_13  and  C_14
REMARK   10  A    between atoms: N_15  and  C_16
REMARK                            x       y       z     vdW  Elec       q    Type
REMARK                         _______ _______ _______ _____ _____    ______ ____
ROOT
ATOM      1  C   UNL     1       8.206   8.048  17.792  0.00  0.00    +0.000 C 
ENDROOT
BRANCH   1   2
ATOM      2  O   UNL     1       8.374   7.316  19.000  0.00  0.00    +0.000 OA
ATOM      3  H   UNL     1       7.626   7.529  19.633  0.00  0.00    +0.000 HD
ENDBRANCH   1   2
BRANCH   1   4
ATOM      4  C   UNL     1       8.209   9.549  18.199  0.00  0.00    +0.000 C 
BRANCH   4   5
ATOM      5  O   UNL     1       9.216   9.830  19.082  0.00  0.00    +0.000 OA
BRANCH   5   9
ATOM      6  C   UNL     1      11.546  13.307  19.008  0.00  0.00    +0.000 A 
ATOM      7  C   UNL     1      11.082  12.830  20.241  0.00  0.00    +0.000 A 
ATOM      8  C   UNL     1      10.292  11.667  20.309  0.00  0.00    +0.000 A 
ATOM      9  C   UNL     1       9.950  10.976  19.119  0.00  0.00    +0.000 A 
ATOM     10  C   UNL     1      10.404  11.468  17.900  0.00  0.00    +0.000 A 
ATOM     11  C   UNL     1      11.192  12.616  17.835  0.00  0.00    +0.000 A 
BRANCH   6  13
ATOM     12  C   UNL     1      12.110  15.566  19.719  0.00  0.00    +0.000 C 
ATOM     13  O   UNL     1      12.333  14.415  18.988  0.00  0.00    +0.000 OA
ENDBRANCH   6  13
ENDBRANCH   5   9
ENDBRANCH   4   5
ENDBRANCH   1   4
BRANCH   1  14
ATOM     14  C   UNL     1       7.011   7.357  17.029  0.00  0.00    +0.000 C 
BRANCH  14  15
ATOM     15  N   UNL     1       6.191   6.091  17.228  0.00  0.00    +0.000 N 
ATOM     16  C   UNL     1       6.814   5.045  16.655  0.00  0.00    +0.000 A 
ATOM     17  C   UNL     1       7.688   4.464  17.793  0.00  0.00    +0.000 C 
ATOM     18  N   UNL     1       5.916   4.132  16.181  0.00  0.00    +0.000 N 
ATOM     19  C   UNL     1       5.434   4.390  14.798  0.00  0.00    +0.000 C 
ATOM     20  C   UNL     1       4.906   4.280  17.035  0.00  0.00    +0.000 A 
ATOM     21  C   UNL     1       3.846   3.388  17.115  0.00  0.00    +0.000 A 
ATOM     22  C   UNL     1       2.831   3.692  18.010  0.00  0.00    +0.000 A 
ATOM     23  C   UNL     1       2.860   4.892  18.732  0.00  0.00    +0.000 A 
ATOM     24  C   UNL     1       3.940   5.849  18.559  0.00  0.00    +0.000 A 
ATOM     25  C   UNL     1       5.016   5.491  17.701  0.00  0.00    +0.000 A 
ENDBRANCH  14  15
ENDBRANCH   1  14
TORSDOF 7
ENDMDL
MODEL 4
REMARK VINA RESULT:      -7.4      4.403      6.695
REMARK  Name = 
REMARK  10 active torsions:
REMARK  status: ('A' for Active; 'I' for Inactive)
REMARK    1  A    between atoms: C_1  and  O_2
REMARK    2  A    between atoms: O_2  and  C_3
REMARK    3  A    between atoms: C_6  and  O_7
REMARK    4  A    between atoms: O_7  and  C_8
REMARK    5  A    between atoms: C_8  and  C_9
REMARK    6  A    between atoms: C_9  and  O_10
REMARK    7  A    between atoms: C_9  and  C_11
REMARK    8  A    between atoms: C_11  and  N_12
REMARK    9  A    between atoms: C_13  and  C_14
REMARK   10  A    between atoms: N_15  and  C_16
REMARK                            x       y       z     vdW  Elec       q    Type
REMARK                         _______ _______ _______ _____ _____    ______ ____
ROOT
ATOM      1  C   UNL     1       7.653   6.239  18.558  0.00  0.00    +0.000 C 
ENDROOT
BRANCH   1   2
ATOM      2  O   UNL     1       8.631   6.027  19.568  0.00  0.00    +0.000 OA
ATOM      3  H   UNL     1       8.591   5.075  19.883  0.00  0.00    +0.000 HD
ENDBRANCH   1   2
BRANCH   1   4
ATOM      4  C   UNL     1       7.863   7.698  18.060  0.00  0.00    +0.000 C 
BRANCH   4   5
ATOM      5  O   UNL     1       8.726   8.386  18.868  0.00  0.00    +0.000 OA
BRANCH   5   9
ATOM      6  C   UNL     1       9.263  12.534  18.683  0.00  0.00    +0.000 A 
ATOM      7  C   UNL     1       9.758  11.837  19.794  0.00  0.00    +0.000 A 
ATOM      8  C   UNL     1       9.595  10.443  19.897  0.00  0.00    +0.000 A 
ATOM      9  C   UNL     1       8.912   9.735  18.875  0.00  0.00    +0.000 A 
ATOM     10  C   UNL     1       8.412  10.441  17.785  0.00  0.00    +0.000 A 
ATOM     11  C   UNL     1       8.581  11.820  17.681  0.00  0.00    +0.000 A 
BRANCH   6  13
ATOM     12  C   UNL     1      10.426  14.577  19.316  0.00  0.00    +0.000 C 
ATOM     13  O   UNL     1       9.470  13.875  18.606  0.00  0.00    +0.000 OA
ENDBRANCH   6  13
ENDBRANCH   5   9
ENDBRANCH   4   5
ENDBRANCH   1   4
BRANCH   1  14
ATOM     14  C   UNL     1       6.291   5.712  19.154  0.00  0.00    +0.000 C 
BRANCH  14  15
ATOM     15  N   UNL     1       4.970   5.236  18.572  0.00  0.00    +0.000 N 
ATOM     16  C   UNL     1       4.375   6.238  17.899  0.00  0.00    +0.000 A 
ATOM     17  C   UNL     1       4.890   6.070  16.449  0.00  0.00    +0.000 C 
ATOM     18  N   UNL     1       3.015   6.147  17.974  0.00  0.00    +0.000 N 
ATOM     19  C   UNL     1       2.409   6.805  19.162  0.00  0.00    +0.000 C 
ATOM     20  C   UNL     1       2.838   4.831  18.061  0.00  0.00    +0.000 A 
ATOM     21  C   UNL     1       1.600   4.222  17.911  0.00  0.00    +0.000 A 
ATOM     22  C   UNL     1       1.547   2.847  18.083  0.00  0.00    +0.000 A 
ATOM     23  C   UNL     1       2.692   2.137  18.469  0.00  0.00    +0.000 A 
ATOM     24  C   UNL     1       3.955   2.817  18.706  0.00  0.00    +0.000 A 
ATOM     25  C   UNL     1       4.017   4.214  18.448  0.00  0.00    +0.000 A 
ENDBRANCH  14  15
ENDBRANCH   1  14
TORSDOF 7
ENDMDL
MODEL 5
REMARK VINA RESULT:      -7.3      5.419      8.635
REMARK  Name = 
REMARK  10 active torsions:
REMARK  status: ('A' for Active; 'I' for Inactive)
REMARK    1  A    between atoms: C_1  and  O_2
REMARK    2  A    between atoms: O_2  and  C_3
REMARK    3  A    between atoms: C_6  and  O_7
REMARK    4  A    between atoms: O_7  and  C_8
REMARK    5  A    between atoms: C_8  and  C_9
REMARK    6  A    between atoms: C_9  and  O_10
REMARK    7  A    between atoms: C_9  and  C_11
REMARK    8  A    between atoms: C_11  and  N_12
REMARK    9  A    between atoms: C_13  and  C_14
REMARK   10  A    between atoms: N_15  and  C_16
REMARK                            x       y       z     vdW  Elec       q    Type
REMARK                         _______ _______ _______ _____ _____    ______ ____
ROOT
ATOM      1  C   UNL     1       1.977   8.074  19.879  0.00  0.00    +0.000 C 
ENDROOT
BRANCH   1   2
ATOM      2  O   UNL     1       1.027   8.101  20.936  0.00  0.00    +0.000 OA
ATOM      3  H   UNL     1       0.466   8.930  20.867  0.00  0.00    +0.000 HD
ENDBRANCH   1   2
BRANCH   1   4
ATOM      4  C   UNL     1       1.389   8.970  18.752  0.00  0.00    +0.000 C 
BRANCH   4   5
ATOM      5  O   UNL     1       0.536   9.915  19.254  0.00  0.00    +0.000 OA
BRANCH   5   9
ATOM      6  C   UNL     1      -3.036  11.020  17.371  0.00  0.00    +0.000 A 
ATOM      7  C   UNL     1      -2.712  11.605  18.604  0.00  0.00    +0.000 A 
ATOM      8  C   UNL     1      -1.523  11.257  19.271  0.00  0.00    +0.000 A 
ATOM      9  C   UNL     1      -0.648  10.298  18.701  0.00  0.00    +0.000 A 
ATOM     10  C   UNL     1      -0.989   9.713  17.485  0.00  0.00    +0.000 A 
ATOM     11  C   UNL     1      -2.163  10.064  16.822  0.00  0.00    +0.000 A 
BRANCH   6  13
ATOM     12  C   UNL     1      -5.245  12.042  17.348  0.00  0.00    +0.000 C 
ATOM     13  O   UNL     1      -4.178  11.407  16.743  0.00  0.00    +0.000 OA
ENDBRANCH   6  13
ENDBRANCH   5   9
ENDBRANCH   4   5
ENDBRANCH   1   4
BRANCH   1  14
ATOM     14  C   UNL     1       2.355   6.556  19.673  0.00  0.00    +0.000 C 
BRANCH  14  15
ATOM     15  N   UNL     1       3.014   5.748  18.567  0.00  0.00    +0.000 N 
ATOM     16  C   UNL     1       2.643   4.458  18.655  0.00  0.00    +0.000 A 
ATOM     17  C   UNL     1       1.389   4.368  17.752  0.00  0.00    +0.000 C 
ATOM     18  N   UNL     1       3.640   3.625  18.234  0.00  0.00    +0.000 N 
ATOM     19  C   UNL     1       4.621   3.243  19.283  0.00  0.00    +0.000 C 
ATOM     20  C   UNL     1       4.245   4.374  17.315  0.00  0.00    +0.000 A 
ATOM     21  C   UNL     1       5.178   3.868  16.421  0.00  0.00    +0.000 A 
ATOM     22  C   UNL     1       5.775   4.770  15.553  0.00  0.00    +0.000 A 
ATOM     23  C   UNL     1       5.490   6.138  15.648  0.00  0.00    +0.000 A 
ATOM     24  C   UNL     1       4.575   6.649  16.656  0.00  0.00    +0.000 A 
ATOM     25  C   UNL     1       3.907   5.707  17.486  0.00  0.00    +0.000 A 
ENDBRANCH  14  15
ENDBRANCH   1  14
TORSDOF 7
ENDMDL
MODEL 6
REMARK VINA RESULT:      -7.3      1.359      2.269
REMARK  Name = 
REMARK  10 active torsions:
REMARK  status: ('A' for Active; 'I' for Inactive)
REMARK    1  A    between atoms: C_1  and  O_2
REMARK    2  A    between atoms: O_2  and  C_3
REMARK    3  A    between atoms: C_6  and  O_7
REMARK    4  A    between atoms: O_7  and  C_8
REMARK    5  A    between atoms: C_8  and  C_9
REMARK    6  A    between atoms: C_9  and  O_10
REMARK    7  A    between atoms: C_9  and  C_11
REMARK    8  A    between atoms: C_11  and  N_12
REMARK    9  A    between atoms: C_13  and  C_14
REMARK   10  A    between atoms: N_15  and  C_16
REMARK                            x       y       z     vdW  Elec       q    Type
REMARK                         _______ _______ _______ _____ _____    ______ ____
ROOT
ATOM      1  C   UNL     1       6.889   6.333  17.474  0.00  0.00    +0.000 C 
ENDROOT
BRANCH   1   2
ATOM      2  O   UNL     1       7.199   7.602  16.912  0.00  0.00    +0.000 OA
ATOM      3  H   UNL     1       6.369   8.015  16.528  0.00  0.00    +0.000 HD
ENDBRANCH   1   2
BRANCH   1   4
ATOM      4  C   UNL     1       7.639   5.286  16.603  0.00  0.00    +0.000 C 
BRANCH   4   5
ATOM      5  O   UNL     1       7.627   5.629  15.279  0.00  0.00    +0.000 OA
BRANCH   5   9
ATOM      6  C   UNL     1       5.567   3.452  12.357  0.00  0.00    +0.000 A 
ATOM      7  C   UNL     1       6.843   3.948  12.056  0.00  0.00    +0.000 A 
ATOM      8  C   UNL     1       7.567   4.688  13.009  0.00  0.00    +0.000 A 
ATOM      9  C   UNL     1       6.998   4.948  14.282  0.00  0.00    +0.000 A 
ATOM     10  C   UNL     1       5.724   4.464  14.563  0.00  0.00    +0.000 A 
ATOM     11  C   UNL     1       5.011   3.724  13.620  0.00  0.00    +0.000 A 
BRANCH   6  13
ATOM     12  C   UNL     1       3.675   3.015  10.888  0.00  0.00    +0.000 C 
ATOM     13  O   UNL     1       4.914   2.714  11.420  0.00  0.00    +0.000 OA
ENDBRANCH   6  13
ENDBRANCH   5   9
ENDBRANCH   4   5
ENDBRANCH   1   4
BRANCH   1  14
ATOM     14  C   UNL     1       5.326   6.325  17.688  0.00  0.00    +0.000 C 
BRANCH  14  15
ATOM     15  N   UNL     1       4.343   5.431  18.428  0.00  0.00    +0.000 N 
ATOM     16  C   UNL     1       4.591   4.140  18.145  0.00  0.00    +0.000 A 
ATOM     17  C   UNL     1       5.578   3.700  19.254  0.00  0.00    +0.000 C 
ATOM     18  N   UNL     1       3.445   3.399  18.154  0.00  0.00    +0.000 N 
ATOM     19  C   UNL     1       2.710   3.369  16.862  0.00  0.00    +0.000 C 
ATOM     20  C   UNL     1       2.715   4.045  19.062  0.00  0.00    +0.000 A 
ATOM     21  C   UNL     1       1.550   3.526  19.605  0.00  0.00    +0.000 A 
ATOM     22  C   UNL     1       0.856   4.328  20.498  0.00  0.00    +0.000 A 
ATOM     23  C   UNL     1       1.292   5.633  20.763  0.00  0.00    +0.000 A 
ATOM     24  C   UNL     1       2.469   6.181  20.109  0.00  0.00    +0.000 A 
ATOM     25  C   UNL     1       3.218   5.322  19.258  0.00  0.00    +0.000 A 
ENDBRANCH  14  15
ENDBRANCH   1  14
TORSDOF 7
ENDMDL
MODEL 7
REMARK VINA RESULT:      -7.2      2.343      4.383
REMARK  Name = 
REMARK  10 active torsions:
REMARK  status: ('A' for Active; 'I' for Inactive)
REMARK    1  A    between atoms: C_1  and  O_2
REMARK    2  A    between atoms: O_2  and  C_3
REMARK    3  A    between atoms: C_6  and  O_7
REMARK    4  A    between atoms: O_7  and  C_8
REMARK    5  A    between atoms: C_8  and  C_9
REMARK    6  A    between atoms: C_9  and  O_10
REMARK    7  A    between atoms: C_9  and  C_11
REMARK    8  A    between atoms: C_11  and  N_12
REMARK    9  A    between atoms: C_13  and  C_14
REMARK   10  A    between atoms: N_15  and  C_16
REMARK                            x       y       z     vdW  Elec       q    Type
REMARK                         _______ _______ _______ _____ _____    ______ ____
ROOT
ATOM      1  C   UNL     1       3.284   3.353  20.098  0.00  0.00    +0.000 C 
ENDROOT
BRANCH   1   2
ATOM      2  O   UNL     1       2.978   2.647  21.294  0.00  0.00    +0.000 OA
ATOM      3  H   UNL     1       2.668   1.720  21.070  0.00  0.00    +0.000 HD
ENDBRANCH   1   2
BRANCH   1   4
ATOM      4  C   UNL     1       4.686   2.850  19.652  0.00  0.00    +0.000 C 
BRANCH   4   5
ATOM      5  O   UNL     1       5.476   3.879  19.217  0.00  0.00    +0.000 OA
BRANCH   5   9
ATOM      6  C   UNL     1       6.461   4.471  15.192  0.00  0.00    +0.000 A 
ATOM      7  C   UNL     1       7.386   4.846  16.176  0.00  0.00    +0.000 A 
ATOM      8  C   UNL     1       7.092   4.668  17.541  0.00  0.00    +0.000 A 
ATOM      9  C   UNL     1       5.844   4.116  17.927  0.00  0.00    +0.000 A 
ATOM     10  C   UNL     1       4.929   3.762  16.941  0.00  0.00    +0.000 A 
ATOM     11  C   UNL     1       5.225   3.932  15.590  0.00  0.00    +0.000 A 
BRANCH   6  13
ATOM     12  C   UNL     1       6.447   3.770  12.860  0.00  0.00    +0.000 C 
ATOM     13  O   UNL     1       6.797   4.629  13.884  0.00  0.00    +0.000 OA
ENDBRANCH   6  13
ENDBRANCH   5   9
ENDBRANCH   4   5
ENDBRANCH   1   4
BRANCH   1  14
ATOM     14  C   UNL     1       2.959   4.869  20.395  0.00  0.00    +0.000 C 
BRANCH  14  15
ATOM     15  N   UNL     1       2.488   6.054  19.566  0.00  0.00    +0.000 N 
ATOM     16  C   UNL     1       2.685   5.809  18.258  0.00  0.00    +0.000 A 
ATOM     17  C   UNL     1       1.355   5.164  17.797  0.00  0.00    +0.000 C 
ATOM     18  N   UNL     1       2.963   6.957  17.574  0.00  0.00    +0.000 N 
ATOM     19  C   UNL     1       4.400   7.337  17.549  0.00  0.00    +0.000 C 
ATOM     20  C   UNL     1       2.280   7.859  18.275  0.00  0.00    +0.000 A 
ATOM     21  C   UNL     1       2.049   9.150  17.824  0.00  0.00    +0.000 A 
ATOM     22  C   UNL     1       1.372  10.007  18.679  0.00  0.00    +0.000 A 
ATOM     23  C   UNL     1       1.017   9.586  19.967  0.00  0.00    +0.000 A 
ATOM     24  C   UNL     1       1.353   8.254  20.444  0.00  0.00    +0.000 A 
ATOM     25  C   UNL     1       1.974   7.358  19.530  0.00  0.00    +0.000 A 
ENDBRANCH  14  15
ENDBRANCH   1  14
TORSDOF 7
ENDMDL
MODEL 8
REMARK VINA RESULT:      -7.2      5.417      8.753
REMARK  Name = 
REMARK  10 active torsions:
REMARK  status: ('A' for Active; 'I' for Inactive)
REMARK    1  A    between atoms: C_1  and  O_2
REMARK    2  A    between atoms: O_2  and  C_3
REMARK    3  A    between atoms: C_6  and  O_7
REMARK    4  A    between atoms: O_7  and  C_8
REMARK    5  A    between atoms: C_8  and  C_9
REMARK    6  A    between atoms: C_9  and  O_10
REMARK    7  A    between atoms: C_9  and  C_11
REMARK    8  A    between atoms: C_11  and  N_12
REMARK    9  A    between atoms: C_13  and  C_14
REMARK   10  A    between atoms: N_15  and  C_16
REMARK                            x       y       z     vdW  Elec       q    Type
REMARK                         _______ _______ _______ _____ _____    ______ ____
ROOT
ATOM      1  C   UNL     1       2.023   7.959  19.980  0.00  0.00    +0.000 C 
ENDROOT
BRANCH   1   2
ATOM      2  O   UNL     1       1.090   7.985  21.052  0.00  0.00    +0.000 OA
ATOM      3  H   UNL     1       1.444   7.450  21.823  0.00  0.00    +0.000 HD
ENDBRANCH   1   2
BRANCH   1   4
ATOM      4  C   UNL     1       1.479   8.953  18.915  0.00  0.00    +0.000 C 
BRANCH   4   5
ATOM      5  O   UNL     1       0.738   9.950  19.488  0.00  0.00    +0.000 OA
BRANCH   5   9
ATOM      6  C   UNL     1      -2.945  11.509  18.252  0.00  0.00    +0.000 A 
ATOM      7  C   UNL     1      -2.323  10.534  17.459  0.00  0.00    +0.000 A 
ATOM      8  C   UNL     1      -1.083   9.988  17.838  0.00  0.00    +0.000 A 
ATOM      9  C   UNL     1      -0.447  10.434  19.024  0.00  0.00    +0.000 A 
ATOM     10  C   UNL     1      -1.067  11.414  19.793  0.00  0.00    +0.000 A 
ATOM     11  C   UNL     1      -2.299  11.949  19.421  0.00  0.00    +0.000 A 
BRANCH   6  13
ATOM     12  C   UNL     1      -4.934  11.472  16.849  0.00  0.00    +0.000 C 
ATOM     13  O   UNL     1      -4.158  11.988  17.868  0.00  0.00    +0.000 OA
ENDBRANCH   6  13
ENDBRANCH   5   9
ENDBRANCH   4   5
ENDBRANCH   1   4
BRANCH   1  14
ATOM     14  C   UNL     1       2.301   6.434  19.683  0.00  0.00    +0.000 C 
BRANCH  14  15
ATOM     15  N   UNL     1       2.991   5.659  18.572  0.00  0.00    +0.000 N 
ATOM     16  C   UNL     1       2.639   4.362  18.628  0.00  0.00    +0.000 A 
ATOM     17  C   UNL     1       1.401   4.272  17.702  0.00  0.00    +0.000 C 
ATOM     18  N   UNL     1       3.654   3.553  18.207  0.00  0.00    +0.000 N 
ATOM     19  C   UNL     1       4.624   3.164  19.266  0.00  0.00    +0.000 C 
ATOM     20  C   UNL     1       4.264   4.329  17.314  0.00  0.00    +0.000 A 
ATOM     21  C   UNL     1       5.219   3.856  16.427  0.00  0.00    +0.000 A 
ATOM     22  C   UNL     1       5.818   4.784  15.588  0.00  0.00    +0.000 A 
ATOM     23  C   UNL     1       5.510   6.146  15.705  0.00  0.00    +0.000 A 
ATOM     24  C   UNL     1       4.570   6.622  16.707  0.00  0.00    +0.000 A 
ATOM     25  C   UNL     1       3.902   5.654  17.506  0.00  0.00    +0.000 A 
ENDBRANCH  14  15
ENDBRANCH   1  14
TORSDOF 7
ENDMDL
MODEL 9
REMARK VINA RESULT:      -7.2      5.386      7.731
REMARK  Name = 
REMARK  10 active torsions:
REMARK  status: ('A' for Active; 'I' for Inactive)
REMARK    1  A    between atoms: C_1  and  O_2
REMARK    2  A    between atoms: O_2  and  C_3
REMARK    3  A    between atoms: C_6  and  O_7
REMARK    4  A    between atoms: O_7  and  C_8
REMARK    5  A    between atoms: C_8  and  C_9
REMARK    6  A    between atoms: C_9  and  O_10
REMARK    7  A    between atoms: C_9  and  C_11
REMARK    8  A    between atoms: C_11  and  N_12
REMARK    9  A    between atoms: C_13  and  C_14
REMARK   10  A    between atoms: N_15  and  C_16
REMARK                            x       y       z     vdW  Elec       q    Type
REMARK                         _______ _______ _______ _____ _____    ______ ____
ROOT
ATOM      1  C   UNL     1       8.036   8.178  17.698  0.00  0.00    +0.000 C 
ENDROOT
BRANCH   1   2
ATOM      2  O   UNL     1       8.449   7.582  18.921  0.00  0.00    +0.000 OA
ATOM      3  H   UNL     1       8.010   6.686  19.028  0.00  0.00    +0.000 HD
ENDBRANCH   1   2
BRANCH   1   4
ATOM      4  C   UNL     1       8.079   9.714  17.935  0.00  0.00    +0.000 C 
BRANCH   4   5
ATOM      5  O   UNL     1       9.214  10.090  18.600  0.00  0.00    +0.000 OA
BRANCH   5   9
ATOM      6  C   UNL     1      11.469  13.591  18.171  0.00  0.00    +0.000 A 
ATOM      7  C   UNL     1      10.156  13.568  17.681  0.00  0.00    +0.000 A 
ATOM      8  C   UNL     1       9.366  12.410  17.801  0.00  0.00    +0.000 A 
ATOM      9  C   UNL     1       9.904  11.249  18.412  0.00  0.00    +0.000 A 
ATOM     10  C   UNL     1      11.214  11.279  18.881  0.00  0.00    +0.000 A 
ATOM     11  C   UNL     1      11.993  12.429  18.767  0.00  0.00    +0.000 A 
BRANCH   6  13
ATOM     12  C   UNL     1      11.925  15.766  17.178  0.00  0.00    +0.000 C 
ATOM     13  O   UNL     1      12.188  14.740  18.065  0.00  0.00    +0.000 OA
ENDBRANCH   6  13
ENDBRANCH   5   9
ENDBRANCH   4   5
ENDBRANCH   1   4
BRANCH   1  14
ATOM     14  C   UNL     1       6.735   7.402  17.256  0.00  0.00    +0.000 C 
BRANCH  14  15
ATOM     15  N   UNL     1       6.118   6.053  17.588  0.00  0.00    +0.000 N 
ATOM     16  C   UNL     1       6.703   5.086  16.858  0.00  0.00    +0.000 A 
ATOM     17  C   UNL     1       7.864   4.595  17.756  0.00  0.00    +0.000 C 
ATOM     18  N   UNL     1       5.824   4.085  16.563  0.00  0.00    +0.000 N 
ATOM     19  C   UNL     1       5.022   4.301  15.329  0.00  0.00    +0.000 C 
ATOM     20  C   UNL     1       5.019   4.114  17.622  0.00  0.00    +0.000 A 
ATOM     21  C   UNL     1       4.103   3.111  17.904  0.00  0.00    +0.000 A 
ATOM     22  C   UNL     1       3.285   3.293  19.009  0.00  0.00    +0.000 A 
ATOM     23  C   UNL     1       3.347   4.483  19.746  0.00  0.00    +0.000 A 
ATOM     24  C   UNL     1       4.256   5.554  19.372  0.00  0.00    +0.000 A 
ATOM     25  C   UNL     1       5.146   5.323  18.288  0.00  0.00    +0.000 A 
ENDBRANCH  14  15
ENDBRANCH   1  14
TORSDOF 7
ENDMDL
