MODEL 1
REMARK VINA RESULT:      -7.0      0.000      0.000
REMARK  Name = 
REMARK  5 active torsions:
REMARK  status: ('A' for Active; 'I' for Inactive)
REMARK    1  A    between atoms: C_1  and  O_2
REMARK    2  A    between atoms: O_2  and  C_3
REMARK    3  A    between atoms: C_6  and  N_7
REMARK    4  A    between atoms: N_8  and  C_9
REMARK    5  A    between atoms: C_15  and  N_16
REMARK                            x       y       z     vdW  Elec       q    Type
REMARK                         _______ _______ _______ _____ _____    ______ ____
ROOT
ATOM      1  C   UNL     1       3.180   3.183  18.935  0.00  0.00    +0.000 A 
ATOM      2  C   UNL     1       1.873   3.671  19.020  0.00  0.00    +0.000 A 
ATOM      3  C   UNL     1       1.138   3.489  20.188  0.00  0.00    +0.000 A 
ATOM      4  C   UNL     1       1.735   2.836  21.258  0.00  0.00    +0.000 A 
ATOM      5  N   UNL     1       0.995   2.570  22.408  0.00  0.00    +0.000 N 
ATOM      6  N   UNL     1       2.998   2.382  21.224  0.00  0.00    +0.000 NA
ATOM      7  C   UNL     1       3.702   2.560  20.084  0.00  0.00    +0.000 A 
ATOM      8  H   UNL     1       0.535   3.394  22.773  0.00  0.00    +0.000 HD
ATOM      9  H   UNL     1       1.626   2.145  23.085  0.00  0.00    +0.000 HD
ENDROOT
BRANCH   7  10
ATOM     10  N   UNL     1       5.043   2.150  20.129  0.00  0.00    +0.000 N 
ATOM     11  H   UNL     1       5.584   2.775  19.540  0.00  0.00    +0.000 HD
ATOM     12  H   UNL     1       5.382   2.083  21.083  0.00  0.00    +0.000 HD
ENDBRANCH   7  10
BRANCH   1  14
ATOM     13  N   UNL     1       4.876   4.130  17.895  0.00  0.00    +0.000 NA
ATOM     14  N   UNL     1       3.964   3.286  17.763  0.00  0.00    +0.000 NA
BRANCH  13  18
ATOM     15  C   UNL     1       6.912   4.767  14.240  0.00  0.00    +0.000 A 
ATOM     16  C   UNL     1       5.607   4.279  14.273  0.00  0.00    +0.000 A 
ATOM     17  C   UNL     1       4.952   4.092  15.494  0.00  0.00    +0.000 A 
ATOM     18  C   UNL     1       5.596   4.362  16.705  0.00  0.00    +0.000 A 
ATOM     19  C   UNL     1       6.909   4.853  16.661  0.00  0.00    +0.000 A 
ATOM     20  C   UNL     1       7.566   5.047  15.439  0.00  0.00    +0.000 A 
BRANCH  15  22
ATOM     21  C   UNL     1       6.981   3.979  12.014  0.00  0.00    +0.000 C 
ATOM     22  O   UNL     1       7.459   4.894  12.993  0.00  0.00    +0.000 OA
ENDBRANCH  15  22
ENDBRANCH  13  18
ENDBRANCH   1  14
TORSDOF 4
ENDMDL
MODEL 2
REMARK VINA RESULT:      -6.9      0.848      1.393
REMARK  Name = 
REMARK  5 active torsions:
REMARK  status: ('A' for Active; 'I' for Inactive)
REMARK    1  A    between atoms: C_1  and  O_2
REMARK    2  A    between atoms: O_2  and  C_3
REMARK    3  A    between atoms: C_6  and  N_7
REMARK    4  A    between atoms: N_8  and  C_9
REMARK    5  A    between atoms: C_15  and  N_16
REMARK                            x       y       z     vdW  Elec       q    Type
REMARK                         _______ _______ _______ _____ _____    ______ ____
ROOT
ATOM      1  C   UNL     1       3.405   4.163  19.451  0.00  0.00    +0.000 A 
ATOM      2  C   UNL     1       2.224   4.812  19.826  0.00  0.00    +0.000 A 
ATOM      3  C   UNL     1       1.415   4.262  20.816  0.00  0.00    +0.000 A 
ATOM      4  C   UNL     1       1.813   3.080  21.426  0.00  0.00    +0.000 A 
ATOM      5  N   UNL     1       0.983   2.467  22.361  0.00  0.00    +0.000 N 
ATOM      6  N   UNL     1       2.956   2.447  21.115  0.00  0.00    +0.000 NA
ATOM      7  C   UNL     1       3.733   2.986  20.149  0.00  0.00    +0.000 A 
ATOM      8  H   UNL     1       0.687   3.102  23.092  0.00  0.00    +0.000 HD
ATOM      9  H   UNL     1       1.481   1.658  22.728  0.00  0.00    +0.000 HD
ENDROOT
BRANCH   7  10
ATOM     10  N   UNL     1       4.957   2.339  19.923  0.00  0.00    +0.000 N 
ATOM     11  H   UNL     1       5.226   2.500  18.958  0.00  0.00    +0.000 HD
ATOM     12  H   UNL     1       5.659   2.618  20.601  0.00  0.00    +0.000 HD
ENDBRANCH   7  10
BRANCH   1  14
ATOM     13  N   UNL     1       4.309   3.825  17.471  0.00  0.00    +0.000 NA
ATOM     14  N   UNL     1       4.246   4.638  18.418  0.00  0.00    +0.000 NA
BRANCH  13  18
ATOM     15  C   UNL     1       7.180   5.036  14.607  0.00  0.00    +0.000 A 
ATOM     16  C   UNL     1       7.238   5.474  15.929  0.00  0.00    +0.000 A 
ATOM     17  C   UNL     1       6.285   5.046  16.858  0.00  0.00    +0.000 A 
ATOM     18  C   UNL     1       5.241   4.197  16.481  0.00  0.00    +0.000 A 
ATOM     19  C   UNL     1       5.192   3.762  15.148  0.00  0.00    +0.000 A 
ATOM     20  C   UNL     1       6.148   4.184  14.215  0.00  0.00    +0.000 A 
BRANCH  15  22
ATOM     21  C   UNL     1       7.874   5.459  12.389  0.00  0.00    +0.000 C 
ATOM     22  O   UNL     1       8.152   5.531  13.782  0.00  0.00    +0.000 OA
ENDBRANCH  15  22
ENDBRANCH  13  18
ENDBRANCH   1  14
TORSDOF 4
ENDMDL
MODEL 3
REMARK VINA RESULT:      -6.8      3.517      7.407
REMARK  Name = 
REMARK  5 active torsions:
REMARK  status: ('A' for Active; 'I' for Inactive)
REMARK    1  A    between atoms: C_1  and  O_2
REMARK    2  A    between atoms: O_2  and  C_3
REMARK    3  A    between atoms: C_6  and  N_7
REMARK    4  A    between atoms: N_8  and  C_9
REMARK    5  A    between atoms: C_15  and  N_16
REMARK                            x       y       z     vdW  Elec       q    Type
REMARK                         _______ _______ _______ _____ _____    ______ ____
ROOT
ATOM      1  C   UNL     1       5.972   4.049  15.248  0.00  0.00    +0.000 A 
ATOM      2  C   UNL     1       5.864   3.715  13.895  0.00  0.00    +0.000 A 
ATOM      3  C   UNL     1       6.702   4.320  12.962  0.00  0.00    +0.000 A 
ATOM      4  C   UNL     1       7.646   5.236  13.406  0.00  0.00    +0.000 A 
ATOM      5  N   UNL     1       8.440   5.915  12.485  0.00  0.00    +0.000 N 
ATOM      6  N   UNL     1       7.799   5.558  14.700  0.00  0.00    +0.000 NA
ATOM      7  C   UNL     1       6.978   4.969  15.599  0.00  0.00    +0.000 A 
ATOM      8  H   UNL     1       8.904   5.291  11.838  0.00  0.00    +0.000 HD
ATOM      9  H   UNL     1       9.098   6.486  13.012  0.00  0.00    +0.000 HD
ENDROOT
BRANCH   7  10
ATOM     10  N   UNL     1       7.236   5.268  16.944  0.00  0.00    +0.000 N 
ATOM     11  H   UNL     1       7.043   6.253  17.091  0.00  0.00    +0.000 HD
ATOM     12  H   UNL     1       6.729   4.650  17.569  0.00  0.00    +0.000 HD
ENDBRANCH   7  10
BRANCH   1  14
ATOM     13  N   UNL     1       4.098   4.217  16.395  0.00  0.00    +0.000 NA
ATOM     14  N   UNL     1       5.119   3.513  16.241  0.00  0.00    +0.000 NA
BRANCH  13  18
ATOM     15  C   UNL     1       1.648   3.097  19.659  0.00  0.00    +0.000 A 
ATOM     16  C   UNL     1       1.905   4.435  19.365  0.00  0.00    +0.000 A 
ATOM     17  C   UNL     1       2.706   4.778  18.272  0.00  0.00    +0.000 A 
ATOM     18  C   UNL     1       3.288   3.793  17.468  0.00  0.00    +0.000 A 
ATOM     19  C   UNL     1       3.021   2.450  17.772  0.00  0.00    +0.000 A 
ATOM     20  C   UNL     1       2.215   2.102  18.864  0.00  0.00    +0.000 A 
BRANCH  15  22
ATOM     21  C   UNL     1       1.567   2.592  21.965  0.00  0.00    +0.000 C 
ATOM     22  O   UNL     1       0.867   2.879  20.760  0.00  0.00    +0.000 OA
ENDBRANCH  15  22
ENDBRANCH  13  18
ENDBRANCH   1  14
TORSDOF 4
ENDMDL
MODEL 4
REMARK VINA RESULT:      -6.8      6.331      8.073
REMARK  Name = 
REMARK  5 active torsions:
REMARK  status: ('A' for Active; 'I' for Inactive)
REMARK    1  A    between atoms: C_1  and  O_2
REMARK    2  A    between atoms: O_2  and  C_3
REMARK    3  A    between atoms: C_6  and  N_7
REMARK    4  A    between atoms: N_8  and  C_9
REMARK    5  A    between atoms: C_15  and  N_16
REMARK                            x       y       z     vdW  Elec       q    Type
REMARK                         _______ _______ _______ _____ _____    ______ ____
ROOT
ATOM      1  C   UNL     1       7.867   6.954  18.263  0.00  0.00    +0.000 A 
ATOM      2  C   UNL     1       7.221   7.076  17.029  0.00  0.00    +0.000 A 
ATOM      3  C   UNL     1       6.584   5.972  16.467  0.00  0.00    +0.000 A 
ATOM      4  C   UNL     1       6.591   4.770  17.162  0.00  0.00    +0.000 A 
ATOM      5  N   UNL     1       6.032   3.632  16.585  0.00  0.00    +0.000 N 
ATOM      6  N   UNL     1       7.173   4.625  18.363  0.00  0.00    +0.000 NA
ATOM      7  C   UNL     1       7.793   5.701  18.898  0.00  0.00    +0.000 A 
ATOM      8  H   UNL     1       5.088   3.788  16.257  0.00  0.00    +0.000 HD
ATOM      9  H   UNL     1       6.085   2.884  17.274  0.00  0.00    +0.000 HD
ENDROOT
BRANCH   7  10
ATOM     10  N   UNL     1       8.307   5.523  20.191  0.00  0.00    +0.000 N 
ATOM     11  H   UNL     1       9.222   5.959  20.229  0.00  0.00    +0.000 HD
ATOM     12  H   UNL     1       7.660   5.856  20.900  0.00  0.00    +0.000 HD
ENDBRANCH   7  10
BRANCH   1  14
ATOM     13  N   UNL     1       8.359   9.101  18.280  0.00  0.00    +0.000 NA
ATOM     14  N   UNL     1       8.577   8.018  18.865  0.00  0.00    +0.000 NA
BRANCH  13  18
ATOM     15  C   UNL     1      10.783  12.318  19.583  0.00  0.00    +0.000 A 
ATOM     16  C   UNL     1      10.637  12.014  18.230  0.00  0.00    +0.000 A 
ATOM     17  C   UNL     1       9.819  10.955  17.826  0.00  0.00    +0.000 A 
ATOM     18  C   UNL     1       9.151  10.162  18.764  0.00  0.00    +0.000 A 
ATOM     19  C   UNL     1       9.304  10.476  20.123  0.00  0.00    +0.000 A 
ATOM     20  C   UNL     1      10.119  11.540  20.531  0.00  0.00    +0.000 A 
BRANCH  15  22
ATOM     21  C   UNL     1      11.142  14.651  19.499  0.00  0.00    +0.000 C 
ATOM     22  O   UNL     1      11.620  13.361  19.862  0.00  0.00    +0.000 OA
ENDBRANCH  15  22
ENDBRANCH  13  18
ENDBRANCH   1  14
TORSDOF 4
ENDMDL
MODEL 5
REMARK VINA RESULT:      -6.8      6.313      8.061
REMARK  Name = 
REMARK  5 active torsions:
REMARK  status: ('A' for Active; 'I' for Inactive)
REMARK    1  A    between atoms: C_1  and  O_2
REMARK    2  A    between atoms: O_2  and  C_3
REMARK    3  A    between atoms: C_6  and  N_7
REMARK    4  A    between atoms: N_8  and  C_9
REMARK    5  A    between atoms: C_15  and  N_16
REMARK                            x       y       z     vdW  Elec       q    Type
REMARK                         _______ _______ _______ _____ _____    ______ ____
ROOT
ATOM      1  C   UNL     1       7.812   6.953  18.209  0.00  0.00    +0.000 A 
ATOM      2  C   UNL     1       7.124   7.058  16.997  0.00  0.00    +0.000 A 
ATOM      3  C   UNL     1       6.474   5.946  16.470  0.00  0.00    +0.000 A 
ATOM      4  C   UNL     1       6.511   4.752  17.177  0.00  0.00    +0.000 A 
ATOM      5  N   UNL     1       5.938   3.604  16.633  0.00  0.00    +0.000 N 
ATOM      6  N   UNL     1       7.135   4.623  18.359  0.00  0.00    +0.000 NA
ATOM      7  C   UNL     1       7.767   5.707  18.861  0.00  0.00    +0.000 A 
ATOM      8  H   UNL     1       4.983   3.752  16.336  0.00  0.00    +0.000 HD
ATOM      9  H   UNL     1       6.019   2.864  17.328  0.00  0.00    +0.000 HD
ENDROOT
BRANCH   7  10
ATOM     10  N   UNL     1       8.326   5.547  20.138  0.00  0.00    +0.000 N 
ATOM     11  H   UNL     1       9.319   5.372  20.027  0.00  0.00    +0.000 HD
ATOM     12  H   UNL     1       8.109   6.332  20.742  0.00  0.00    +0.000 HD
ENDBRANCH   7  10
BRANCH   1  14
ATOM     13  N   UNL     1       8.311   9.099  18.172  0.00  0.00    +0.000 NA
ATOM     14  N   UNL     1       8.537   8.028  18.775  0.00  0.00    +0.000 NA
BRANCH  13  18
ATOM     15  C   UNL     1      10.684  12.273  19.660  0.00  0.00    +0.000 A 
ATOM     16  C   UNL     1       9.994  11.414  20.515  0.00  0.00    +0.000 A 
ATOM     17  C   UNL     1       9.229  10.364  19.997  0.00  0.00    +0.000 A 
ATOM     18  C   UNL     1       9.116  10.168  18.618  0.00  0.00    +0.000 A 
ATOM     19  C   UNL     1       9.814  11.037  17.767  0.00  0.00    +0.000 A 
ATOM     20  C   UNL     1      10.586  12.087  18.282  0.00  0.00    +0.000 A 
BRANCH  15  22
ATOM     21  C   UNL     1      11.372  14.532  19.612  0.00  0.00    +0.000 C 
ATOM     22  O   UNL     1      11.384  13.272  20.275  0.00  0.00    +0.000 OA
ENDBRANCH  15  22
ENDBRANCH  13  18
ENDBRANCH   1  14
TORSDOF 4
ENDMDL
MODEL 6
REMARK VINA RESULT:      -6.8      3.493      7.414
REMARK  Name = 
REMARK  5 active torsions:
REMARK  status: ('A' for Active; 'I' for Inactive)
REMARK    1  A    between atoms: C_1  and  O_2
REMARK    2  A    between atoms: O_2  and  C_3
REMARK    3  A    between atoms: C_6  and  N_7
REMARK    4  A    between atoms: N_8  and  C_9
REMARK    5  A    between atoms: C_15  and  N_16
REMARK                            x       y       z     vdW  Elec       q    Type
REMARK                         _______ _______ _______ _____ _____    ______ ____
ROOT
ATOM      1  C   UNL     1       6.014   4.085  15.115  0.00  0.00    +0.000 A 
ATOM      2  C   UNL     1       5.906   3.793  13.752  0.00  0.00    +0.000 A 
ATOM      3  C   UNL     1       6.765   4.402  12.841  0.00  0.00    +0.000 A 
ATOM      4  C   UNL     1       7.730   5.280  13.317  0.00  0.00    +0.000 A 
ATOM      5  N   UNL     1       8.547   5.964  12.420  0.00  0.00    +0.000 N 
ATOM      6  N   UNL     1       7.883   5.560  14.621  0.00  0.00    +0.000 NA
ATOM      7  C   UNL     1       7.042   4.966  15.497  0.00  0.00    +0.000 A 
ATOM      8  H   UNL     1       8.998   5.347  11.758  0.00  0.00    +0.000 HD
ATOM      9  H   UNL     1       9.217   6.502  12.967  0.00  0.00    +0.000 HD
ENDROOT
BRANCH   7  10
ATOM     10  N   UNL     1       7.300   5.220  16.852  0.00  0.00    +0.000 N 
ATOM     11  H   UNL     1       7.797   4.421  17.234  0.00  0.00    +0.000 HD
ATOM     12  H   UNL     1       7.778   6.105  16.983  0.00  0.00    +0.000 HD
ENDBRANCH   7  10
BRANCH   1  14
ATOM     13  N   UNL     1       4.236   4.349  16.388  0.00  0.00    +0.000 NA
ATOM     14  N   UNL     1       5.142   3.543  16.087  0.00  0.00    +0.000 NA
BRANCH  13  18
ATOM     15  C   UNL     1       1.904   2.886  19.604  0.00  0.00    +0.000 A 
ATOM     16  C   UNL     1       3.124   2.304  19.263  0.00  0.00    +0.000 A 
ATOM     17  C   UNL     1       3.881   2.817  18.205  0.00  0.00    +0.000 A 
ATOM     18  C   UNL     1       3.424   3.901  17.450  0.00  0.00    +0.000 A 
ATOM     19  C   UNL     1       2.196   4.479  17.802  0.00  0.00    +0.000 A 
ATOM     20  C   UNL     1       1.436   3.972  18.864  0.00  0.00    +0.000 A 
BRANCH  15  22
ATOM     21  C   UNL     1       1.678   2.663  21.944  0.00  0.00    +0.000 C 
ATOM     22  O   UNL     1       1.242   2.292  20.641  0.00  0.00    +0.000 OA
ENDBRANCH  15  22
ENDBRANCH  13  18
ENDBRANCH   1  14
TORSDOF 4
ENDMDL
MODEL 7
REMARK VINA RESULT:      -6.6      3.463      7.357
REMARK  Name = 
REMARK  5 active torsions:
REMARK  status: ('A' for Active; 'I' for Inactive)
REMARK    1  A    between atoms: C_1  and  O_2
REMARK    2  A    between atoms: O_2  and  C_3
REMARK    3  A    between atoms: C_6  and  N_7
REMARK    4  A    between atoms: N_8  and  C_9
REMARK    5  A    between atoms: C_15  and  N_16
REMARK                            x       y       z     vdW  Elec       q    Type
REMARK                         _______ _______ _______ _____ _____    ______ ____
ROOT
ATOM      1  C   UNL     1       5.887   4.233  15.680  0.00  0.00    +0.000 A 
ATOM      2  C   UNL     1       5.594   3.764  14.396  0.00  0.00    +0.000 A 
ATOM      3  C   UNL     1       6.356   4.190  13.311  0.00  0.00    +0.000 A 
ATOM      4  C   UNL     1       7.410   5.066  13.536  0.00  0.00    +0.000 A 
ATOM      5  N   UNL     1       8.135   5.570  12.460  0.00  0.00    +0.000 N 
ATOM      6  N   UNL     1       7.739   5.512  14.759  0.00  0.00    +0.000 NA
ATOM      7  C   UNL     1       6.991   5.096  15.806  0.00  0.00    +0.000 A 
ATOM      8  H   UNL     1       8.472   4.842  11.844  0.00  0.00    +0.000 HD
ATOM      9  H   UNL     1       8.891   6.137  12.840  0.00  0.00    +0.000 HD
ENDROOT
BRANCH   7  10
ATOM     10  N   UNL     1       7.430   5.516  17.070  0.00  0.00    +0.000 N 
ATOM     11  H   UNL     1       7.756   4.701  17.578  0.00  0.00    +0.000 HD
ATOM     12  H   UNL     1       8.115   6.261  16.999  0.00  0.00    +0.000 HD
ENDBRANCH   7  10
BRANCH   1  14
ATOM     13  N   UNL     1       4.558   4.881  17.313  0.00  0.00    +0.000 NA
ATOM     14  N   UNL     1       5.123   3.883  16.816  0.00  0.00    +0.000 NA
BRANCH  13  18
ATOM     15  C   UNL     1       2.636   3.889  20.951  0.00  0.00    +0.000 A 
ATOM     16  C   UNL     1       3.518   3.008  20.328  0.00  0.00    +0.000 A 
ATOM     17  C   UNL     1       4.151   3.367  19.134  0.00  0.00    +0.000 A 
ATOM     18  C   UNL     1       3.895   4.599  18.525  0.00  0.00    +0.000 A 
ATOM     19  C   UNL     1       3.007   5.478  19.161  0.00  0.00    +0.000 A 
ATOM     20  C   UNL     1       2.374   5.124  20.360  0.00  0.00    +0.000 A 
BRANCH  15  22
ATOM     21  C   UNL     1       1.227   2.283  21.960  0.00  0.00    +0.000 C 
ATOM     22  O   UNL     1       2.062   3.427  22.102  0.00  0.00    +0.000 OA
ENDBRANCH  15  22
ENDBRANCH  13  18
ENDBRANCH   1  14
TORSDOF 4
ENDMDL
MODEL 8
REMARK VINA RESULT:      -6.5      5.086      6.482
REMARK  Name = 
REMARK  5 active torsions:
REMARK  status: ('A' for Active; 'I' for Inactive)
REMARK    1  A    between atoms: C_1  and  O_2
REMARK    2  A    between atoms: O_2  and  C_3
REMARK    3  A    between atoms: C_6  and  N_7
REMARK    4  A    between atoms: N_8  and  C_9
REMARK    5  A    between atoms: C_15  and  N_16
REMARK                            x       y       z     vdW  Elec       q    Type
REMARK                         _______ _______ _______ _____ _____    ______ ____
ROOT
ATOM      1  C   UNL     1       2.793   4.776  18.272  0.00  0.00    +0.000 A 
ATOM      2  C   UNL     1       1.902   3.791  17.837  0.00  0.00    +0.000 A 
ATOM      3  C   UNL     1       2.274   2.449  17.885  0.00  0.00    +0.000 A 
ATOM      4  C   UNL     1       3.526   2.120  18.387  0.00  0.00    +0.000 A 
ATOM      5  N   UNL     1       3.954   0.795  18.370  0.00  0.00    +0.000 N 
ATOM      6  N   UNL     1       4.394   3.038  18.842  0.00  0.00    +0.000 NA
ATOM      7  C   UNL     1       4.026   4.338  18.788  0.00  0.00    +0.000 A 
ATOM      8  H   UNL     1       3.283   0.166  18.792  0.00  0.00    +0.000 HD
ATOM      9  H   UNL     1       4.861   0.761  18.832  0.00  0.00    +0.000 HD
ENDROOT
BRANCH   7  10
ATOM     10  N   UNL     1       4.928   5.248  19.358  0.00  0.00    +0.000 N 
ATOM     11  H   UNL     1       4.619   5.449  20.303  0.00  0.00    +0.000 HD
ATOM     12  H   UNL     1       5.884   4.915  19.297  0.00  0.00    +0.000 HD
ENDBRANCH   7  10
BRANCH   1  14
ATOM     13  N   UNL     1       2.312   6.644  19.338  0.00  0.00    +0.000 NA
ATOM     14  N   UNL     1       2.500   6.158  18.202  0.00  0.00    +0.000 NA
BRANCH  13  18
ATOM     15  C   UNL     1       1.093  10.690  19.089  0.00  0.00    +0.000 A 
ATOM     16  C   UNL     1       1.706  10.044  18.016  0.00  0.00    +0.000 A 
ATOM     17  C   UNL     1       2.085   8.703  18.120  0.00  0.00    +0.000 A 
ATOM     18  C   UNL     1       1.886   7.987  19.304  0.00  0.00    +0.000 A 
ATOM     19  C   UNL     1       1.268   8.646  20.378  0.00  0.00    +0.000 A 
ATOM     20  C   UNL     1       0.882   9.989  20.276  0.00  0.00    +0.000 A 
BRANCH  15  22
ATOM     21  C   UNL     1       1.879  12.858  18.578  0.00  0.00    +0.000 C 
ATOM     22  O   UNL     1       0.782  12.004  18.882  0.00  0.00    +0.000 OA
ENDBRANCH  15  22
ENDBRANCH  13  18
ENDBRANCH   1  14
TORSDOF 4
ENDMDL
MODEL 9
REMARK VINA RESULT:      -6.5      5.095      6.777
REMARK  Name = 
REMARK  5 active torsions:
REMARK  status: ('A' for Active; 'I' for Inactive)
REMARK    1  A    between atoms: C_1  and  O_2
REMARK    2  A    between atoms: O_2  and  C_3
REMARK    3  A    between atoms: C_6  and  N_7
REMARK    4  A    between atoms: N_8  and  C_9
REMARK    5  A    between atoms: C_15  and  N_16
REMARK                            x       y       z     vdW  Elec       q    Type
REMARK                         _______ _______ _______ _____ _____    ______ ____
ROOT
ATOM      1  C   UNL     1       2.750   4.756  18.306  0.00  0.00    +0.000 A 
ATOM      2  C   UNL     1       1.873   3.754  17.882  0.00  0.00    +0.000 A 
ATOM      3  C   UNL     1       2.270   2.420  17.921  0.00  0.00    +0.000 A 
ATOM      4  C   UNL     1       3.536   2.114  18.403  0.00  0.00    +0.000 A 
ATOM      5  N   UNL     1       3.988   0.797  18.377  0.00  0.00    +0.000 N 
ATOM      6  N   UNL     1       4.393   3.047  18.848  0.00  0.00    +0.000 NA
ATOM      7  C   UNL     1       4.000   4.339  18.802  0.00  0.00    +0.000 A 
ATOM      8  H   UNL     1       3.336   0.154  18.806  0.00  0.00    +0.000 HD
ATOM      9  H   UNL     1       4.903   0.779  18.825  0.00  0.00    +0.000 HD
ENDROOT
BRANCH   7  10
ATOM     10  N   UNL     1       4.893   5.265  19.361  0.00  0.00    +0.000 N 
ATOM     11  H   UNL     1       5.661   5.394  18.711  0.00  0.00    +0.000 HD
ATOM     12  H   UNL     1       4.424   6.126  19.623  0.00  0.00    +0.000 HD
ENDBRANCH   7  10
BRANCH   1  14
ATOM     13  N   UNL     1       2.331   6.630  19.386  0.00  0.00    +0.000 NA
ATOM     14  N   UNL     1       2.431   6.132  18.244  0.00  0.00    +0.000 NA
BRANCH  13  18
ATOM     15  C   UNL     1       0.926  10.621  19.492  0.00  0.00    +0.000 A 
ATOM     16  C   UNL     1       0.813   9.778  20.596  0.00  0.00    +0.000 A 
ATOM     17  C   UNL     1       1.300   8.469  20.539  0.00  0.00    +0.000 A 
ATOM     18  C   UNL     1       1.882   7.966  19.372  0.00  0.00    +0.000 A 
ATOM     19  C   UNL     1       1.991   8.823  18.267  0.00  0.00    +0.000 A 
ATOM     20  C   UNL     1       1.510  10.138  18.322  0.00  0.00    +0.000 A 
BRANCH  15  22
ATOM     21  C   UNL     1      -1.019  11.945  19.707  0.00  0.00    +0.000 C 
ATOM     22  O   UNL     1       0.402  11.873  19.655  0.00  0.00    +0.000 OA
ENDBRANCH  15  22
ENDBRANCH  13  18
ENDBRANCH   1  14
TORSDOF 4
ENDMDL
