MODEL 1
REMARK VINA RESULT:      -8.4      0.000      0.000
REMARK  Name = 
REMARK  7 active torsions:
REMARK  status: ('A' for Active; 'I' for Inactive)
REMARK    1  A    between atoms: C_2  and  C_24
REMARK    2  A    between atoms: N_3  and  N_4
REMARK    3  A    between atoms: C_5  and  C_7
REMARK    4  A    between atoms: C_11  and  S_12
REMARK    5  A    between atoms: S_12  and  N_15
REMARK    6  A    between atoms: N_15  and  C_16
REMARK    7  A    between atoms: C_27  and  O_28
REMARK                            x       y       z     vdW  Elec       q    Type
REMARK                         _______ _______ _______ _____ _____    ______ ____
ROOT
ATOM      1  C   UNL     1       3.428   6.342  18.715  0.00  0.00    +0.000 A 
ATOM      2  C   UNL     1       3.046   5.073  19.179  0.00  0.00    +0.000 A 
ATOM      3  C   UNL     1       3.934   3.995  19.127  0.00  0.00    +0.000 A 
ATOM      4  C   UNL     1       5.216   4.173  18.611  0.00  0.00    +0.000 A 
ATOM      5  C   UNL     1       5.595   5.430  18.133  0.00  0.00    +0.000 A 
ATOM      6  C   UNL     1       4.702   6.514  18.159  0.00  0.00    +0.000 A 
ENDROOT
BRANCH   1   8
ATOM      7  N   UNL     1       2.132   7.863  20.142  0.00  0.00    +0.000 N 
ATOM      8  C   UNL     1       2.445   7.456  18.858  0.00  0.00    +0.000 C 
ATOM      9  O   UNL     1       1.905   7.947  17.868  0.00  0.00    +0.000 OA
ATOM     10  H   UNL     1       2.460   7.412  20.994  0.00  0.00    +0.000 HD
BRANCH   7  13
ATOM     11  O   UNL     1       1.703   9.185  22.467  0.00  0.00    +0.000 OA
ATOM     12  C   UNL     1       0.950   9.409  21.522  0.00  0.00    +0.000 C 
ATOM     13  N   UNL     1       1.079   8.776  20.302  0.00  0.00    +0.000 N 
ATOM     14  H   UNL     1       0.574   9.027  19.453  0.00  0.00    +0.000 HD
BRANCH  12  15
ATOM     15  C   UNL     1      -0.129  10.414  21.647  0.00  0.00    +0.000 A 
ATOM     16  C   UNL     1      -0.688  10.680  22.900  0.00  0.00    +0.000 A 
ATOM     17  C   UNL     1      -1.726  11.605  23.008  0.00  0.00    +0.000 A 
ATOM     18  C   UNL     1      -2.171  12.223  21.851  0.00  0.00    +0.000 A 
ATOM     19  N   UNL     1      -1.660  11.989  20.630  0.00  0.00    +0.000 NA
ATOM     20  C   UNL     1      -0.654  11.082  20.550  0.00  0.00    +0.000 A 
BRANCH  18  21
ATOM     21  O   UNL     1      -3.191  13.126  21.879  0.00  0.00    +0.000 OA
ATOM     22  H   UNL     1      -4.005  12.660  22.117  0.00  0.00    +0.000 HD
ENDBRANCH  18  21
ENDBRANCH  12  15
ENDBRANCH   7  13
ENDBRANCH   1   8
BRANCH   5  23
ATOM     23  S   UNL     1       7.226   5.650  17.448  0.00  0.00    +0.000 S 
ATOM     24  O   UNL     1       7.844   6.768  18.129  0.00  0.00    +0.000 OA
ATOM     25  O   UNL     1       7.869   4.353  17.400  0.00  0.00    +0.000 OA
BRANCH  23  26
ATOM     26  N   UNL     1       6.909   6.169  15.887  0.00  0.00    +0.000 N 
ATOM     27  H   UNL     1       7.163   7.129  15.657  0.00  0.00    +0.000 HD
BRANCH  26  28
ATOM     28  C   UNL     1       6.612   5.232  14.876  0.00  0.00    +0.000 A 
ATOM     29  C   UNL     1       7.514   5.087  13.822  0.00  0.00    +0.000 A 
ATOM     30  C   UNL     1       7.213   4.232  12.763  0.00  0.00    +0.000 A 
ATOM     31  C   UNL     1       6.023   3.505  12.781  0.00  0.00    +0.000 A 
ATOM     32 CL   UNL     1       5.649   2.461  11.467  0.00  0.00    +0.000 Cl
ATOM     33  C   UNL     1       5.138   3.621  13.853  0.00  0.00    +0.000 A 
ATOM     34  C   UNL     1       5.433   4.488  14.909  0.00  0.00    +0.000 A 
ENDBRANCH  26  28
ENDBRANCH  23  26
ENDBRANCH   5  23
TORSDOF 7
ENDMDL
MODEL 2
REMARK VINA RESULT:      -8.2      3.110      3.678
REMARK  Name = 
REMARK  7 active torsions:
REMARK  status: ('A' for Active; 'I' for Inactive)
REMARK    1  A    between atoms: C_2  and  C_24
REMARK    2  A    between atoms: N_3  and  N_4
REMARK    3  A    between atoms: C_5  and  C_7
REMARK    4  A    between atoms: C_11  and  S_12
REMARK    5  A    between atoms: S_12  and  N_15
REMARK    6  A    between atoms: N_15  and  C_16
REMARK    7  A    between atoms: C_27  and  O_28
REMARK                            x       y       z     vdW  Elec       q    Type
REMARK                         _______ _______ _______ _____ _____    ______ ____
ROOT
ATOM      1  C   UNL     1       2.116   5.915  20.139  0.00  0.00    +0.000 A 
ATOM      2  C   UNL     1       2.071   5.227  21.363  0.00  0.00    +0.000 A 
ATOM      3  C   UNL     1       2.291   3.848  21.417  0.00  0.00    +0.000 A 
ATOM      4  C   UNL     1       2.560   3.139  20.248  0.00  0.00    +0.000 A 
ATOM      5  C   UNL     1       2.589   3.816  19.026  0.00  0.00    +0.000 A 
ATOM      6  C   UNL     1       2.346   5.197  18.958  0.00  0.00    +0.000 A 
ENDROOT
BRANCH   1   8
ATOM      7  N   UNL     1       1.597   7.965  21.386  0.00  0.00    +0.000 N 
ATOM      8  C   UNL     1       1.929   7.395  20.170  0.00  0.00    +0.000 C 
ATOM      9  O   UNL     1       2.017   8.060  19.139  0.00  0.00    +0.000 OA
ATOM     10  H   UNL     1       1.396   7.447  22.239  0.00  0.00    +0.000 HD
BRANCH   7  13
ATOM     11  O   UNL     1      -0.706   8.841  22.511  0.00  0.00    +0.000 OA
ATOM     12  C   UNL     1       0.048   9.670  22.007  0.00  0.00    +0.000 C 
ATOM     13  N   UNL     1       1.237   9.321  21.397  0.00  0.00    +0.000 N 
ATOM     14  H   UNL     1       1.956   9.976  21.092  0.00  0.00    +0.000 HD
BRANCH  12  15
ATOM     15  C   UNL     1      -0.280  11.112  22.062  0.00  0.00    +0.000 A 
ATOM     16  C   UNL     1      -1.190  11.580  23.014  0.00  0.00    +0.000 A 
ATOM     17  C   UNL     1      -1.521  12.935  23.042  0.00  0.00    +0.000 A 
ATOM     18  C   UNL     1      -0.930  13.769  22.107  0.00  0.00    +0.000 A 
ATOM     19  N   UNL     1      -0.055  13.353  21.176  0.00  0.00    +0.000 NA
ATOM     20  C   UNL     1       0.247  12.030  21.166  0.00  0.00    +0.000 A 
BRANCH  18  21
ATOM     21  O   UNL     1      -1.217  15.101  22.066  0.00  0.00    +0.000 OA
ATOM     22  H   UNL     1      -2.000  15.228  21.513  0.00  0.00    +0.000 HD
ENDBRANCH  18  21
ENDBRANCH  12  15
ENDBRANCH   7  13
ENDBRANCH   1   8
BRANCH   5  23
ATOM     23  S   UNL     1       2.907   2.903  17.529  0.00  0.00    +0.000 S 
ATOM     24  O   UNL     1       2.573   1.517  17.777  0.00  0.00    +0.000 OA
ATOM     25  O   UNL     1       2.315   3.631  16.426  0.00  0.00    +0.000 OA
BRANCH  23  26
ATOM     26  N   UNL     1       4.577   2.966  17.400  0.00  0.00    +0.000 N 
ATOM     27  H   UNL     1       5.046   2.137  17.040  0.00  0.00    +0.000 HD
BRANCH  26  28
ATOM     28  C   UNL     1       5.246   4.206  17.480  0.00  0.00    +0.000 A 
ATOM     29  C   UNL     1       5.129   5.090  16.408  0.00  0.00    +0.000 A 
ATOM     30  C   UNL     1       5.843   6.287  16.414  0.00  0.00    +0.000 A 
ATOM     31  C   UNL     1       6.647   6.604  17.509  0.00  0.00    +0.000 A 
ATOM     32 CL   UNL     1       7.537   8.075  17.507  0.00  0.00    +0.000 Cl
ATOM     33  C   UNL     1       6.735   5.737  18.597  0.00  0.00    +0.000 A 
ATOM     34  C   UNL     1       6.030   4.531  18.586  0.00  0.00    +0.000 A 
ENDBRANCH  26  28
ENDBRANCH  23  26
ENDBRANCH   5  23
TORSDOF 7
ENDMDL
MODEL 3
REMARK VINA RESULT:      -8.1      1.219      1.401
REMARK  Name = 
REMARK  7 active torsions:
REMARK  status: ('A' for Active; 'I' for Inactive)
REMARK    1  A    between atoms: C_2  and  C_24
REMARK    2  A    between atoms: N_3  and  N_4
REMARK    3  A    between atoms: C_5  and  C_7
REMARK    4  A    between atoms: C_11  and  S_12
REMARK    5  A    between atoms: S_12  and  N_15
REMARK    6  A    between atoms: N_15  and  C_16
REMARK    7  A    between atoms: C_27  and  O_28
REMARK                            x       y       z     vdW  Elec       q    Type
REMARK                         _______ _______ _______ _____ _____    ______ ____
ROOT
ATOM      1  C   UNL     1       3.165   5.387  18.949  0.00  0.00    +0.000 A 
ATOM      2  C   UNL     1       2.838   4.039  18.729  0.00  0.00    +0.000 A 
ATOM      3  C   UNL     1       3.680   3.211  17.981  0.00  0.00    +0.000 A 
ATOM      4  C   UNL     1       4.861   3.721  17.445  0.00  0.00    +0.000 A 
ATOM      5  C   UNL     1       5.183   5.066  17.648  0.00  0.00    +0.000 A 
ATOM      6  C   UNL     1       4.331   5.911  18.377  0.00  0.00    +0.000 A 
ENDROOT
BRANCH   1   8
ATOM      7  N   UNL     1       2.205   7.555  19.583  0.00  0.00    +0.000 N 
ATOM      8  C   UNL     1       2.245   6.191  19.805  0.00  0.00    +0.000 C 
ATOM      9  O   UNL     1       1.593   5.656  20.702  0.00  0.00    +0.000 OA
ATOM     10  H   UNL     1       2.809   8.060  18.937  0.00  0.00    +0.000 HD
BRANCH   7  13
ATOM     11  O   UNL     1       0.784   9.729  18.809  0.00  0.00    +0.000 OA
ATOM     12  C   UNL     1       0.787   9.428  20.000  0.00  0.00    +0.000 C 
ATOM     13  N   UNL     1       1.491   8.347  20.494  0.00  0.00    +0.000 N 
ATOM     14  H   UNL     1       1.412   7.978  21.441  0.00  0.00    +0.000 HD
BRANCH  12  15
ATOM     15  C   UNL     1      -0.010  10.211  20.971  0.00  0.00    +0.000 A 
ATOM     16  C   UNL     1      -0.208   9.718  22.263  0.00  0.00    +0.000 A 
ATOM     17  C   UNL     1      -0.986  10.444  23.166  0.00  0.00    +0.000 A 
ATOM     18  C   UNL     1      -1.544  11.636  22.732  0.00  0.00    +0.000 A 
ATOM     19  N   UNL     1      -1.378  12.137  21.496  0.00  0.00    +0.000 NA
ATOM     20  C   UNL     1      -0.622  11.411  20.636  0.00  0.00    +0.000 A 
BRANCH  18  21
ATOM     21  O   UNL     1      -2.327  12.390  23.554  0.00  0.00    +0.000 OA
ATOM     22  H   UNL     1      -3.074  11.849  23.845  0.00  0.00    +0.000 HD
ENDBRANCH  18  21
ENDBRANCH  12  15
ENDBRANCH   7  13
ENDBRANCH   1   8
BRANCH   5  23
ATOM     23  S   UNL     1       6.680   5.722  16.939  0.00  0.00    +0.000 S 
ATOM     24  O   UNL     1       6.957   6.988  17.584  0.00  0.00    +0.000 OA
ATOM     25  O   UNL     1       7.666   4.662  16.914  0.00  0.00    +0.000 OA
BRANCH  23  26
ATOM     26  N   UNL     1       6.221   6.088  15.369  0.00  0.00    +0.000 N 
ATOM     27  H   UNL     1       6.061   7.070  15.149  0.00  0.00    +0.000 HD
BRANCH  26  28
ATOM     28  C   UNL     1       6.368   5.126  14.347  0.00  0.00    +0.000 A 
ATOM     29  C   UNL     1       7.502   5.190  13.538  0.00  0.00    +0.000 A 
ATOM     30  C   UNL     1       7.640   4.309  12.466  0.00  0.00    +0.000 A 
ATOM     31  C   UNL     1       6.655   3.352  12.229  0.00  0.00    +0.000 A 
ATOM     32 CL   UNL     1       6.821   2.276  10.899  0.00  0.00    +0.000 Cl
ATOM     33  C   UNL     1       5.538   3.264  13.061  0.00  0.00    +0.000 A 
ATOM     34  C   UNL     1       5.393   4.155  14.128  0.00  0.00    +0.000 A 
ENDBRANCH  26  28
ENDBRANCH  23  26
ENDBRANCH   5  23
TORSDOF 7
ENDMDL
MODEL 4
REMARK VINA RESULT:      -8.0      6.025      8.224
REMARK  Name = 
REMARK  7 active torsions:
REMARK  status: ('A' for Active; 'I' for Inactive)
REMARK    1  A    between atoms: C_2  and  C_24
REMARK    2  A    between atoms: N_3  and  N_4
REMARK    3  A    between atoms: C_5  and  C_7
REMARK    4  A    between atoms: C_11  and  S_12
REMARK    5  A    between atoms: S_12  and  N_15
REMARK    6  A    between atoms: N_15  and  C_16
REMARK    7  A    between atoms: C_27  and  O_28
REMARK                            x       y       z     vdW  Elec       q    Type
REMARK                         _______ _______ _______ _____ _____    ______ ____
ROOT
ATOM      1  C   UNL     1       8.002   7.703  18.148  0.00  0.00    +0.000 A 
ATOM      2  C   UNL     1       8.336   6.894  19.246  0.00  0.00    +0.000 A 
ATOM      3  C   UNL     1       8.119   5.514  19.210  0.00  0.00    +0.000 A 
ATOM      4  C   UNL     1       7.564   4.925  18.076  0.00  0.00    +0.000 A 
ATOM      5  C   UNL     1       7.214   5.728  16.987  0.00  0.00    +0.000 A 
ATOM      6  C   UNL     1       7.407   7.119  17.022  0.00  0.00    +0.000 A 
ENDROOT
BRANCH   1   8
ATOM      7  N   UNL     1       9.246   9.546  19.188  0.00  0.00    +0.000 N 
ATOM      8  C   UNL     1       8.317   9.159  18.239  0.00  0.00    +0.000 C 
ATOM      9  O   UNL     1       7.731   9.974  17.528  0.00  0.00    +0.000 OA
ATOM     10  H   UNL     1       9.670   8.928  19.878  0.00  0.00    +0.000 HD
BRANCH   7  13
ATOM     11  O   UNL     1      11.087  11.015  17.849  0.00  0.00    +0.000 OA
ATOM     12  C   UNL     1      10.374  11.584  18.672  0.00  0.00    +0.000 C 
ATOM     13  N   UNL     1       9.418  10.920  19.414  0.00  0.00    +0.000 N 
ATOM     14  H   UNL     1       8.714  11.367  20.001  0.00  0.00    +0.000 HD
BRANCH  12  15
ATOM     15  C   UNL     1      10.494  13.044  18.882  0.00  0.00    +0.000 A 
ATOM     16  C   UNL     1      10.005  13.926  17.915  0.00  0.00    +0.000 A 
ATOM     17  C   UNL     1      10.148  15.301  18.102  0.00  0.00    +0.000 A 
ATOM     18  C   UNL     1      10.785  15.739  19.252  0.00  0.00    +0.000 A 
ATOM     19  N   UNL     1      11.270  14.919  20.201  0.00  0.00    +0.000 NA
ATOM     20  C   UNL     1      11.123  13.587  19.993  0.00  0.00    +0.000 A 
BRANCH  18  21
ATOM     21  O   UNL     1      10.972  17.067  19.495  0.00  0.00    +0.000 OA
ATOM     22  H   UNL     1      10.968  17.536  18.649  0.00  0.00    +0.000 HD
ENDBRANCH  18  21
ENDBRANCH  12  15
ENDBRANCH   7  13
ENDBRANCH   1   8
BRANCH   5  23
ATOM     23  S   UNL     1       6.480   4.977  15.547  0.00  0.00    +0.000 S 
ATOM     24  O   UNL     1       7.033   5.628  14.378  0.00  0.00    +0.000 OA
ATOM     25  O   UNL     1       6.550   3.539  15.708  0.00  0.00    +0.000 OA
BRANCH  23  26
ATOM     26  N   UNL     1       4.881   5.467  15.644  0.00  0.00    +0.000 N 
ATOM     27  H   UNL     1       4.377   5.584  14.766  0.00  0.00    +0.000 HD
BRANCH  26  28
ATOM     28  C   UNL     1       4.195   5.403  16.875  0.00  0.00    +0.000 A 
ATOM     29  C   UNL     1       3.808   4.151  17.352  0.00  0.00    +0.000 A 
ATOM     30  C   UNL     1       3.056   4.056  18.522  0.00  0.00    +0.000 A 
ATOM     31  C   UNL     1       2.720   5.214  19.222  0.00  0.00    +0.000 A 
ATOM     32 CL   UNL     1       1.781   5.094  20.657  0.00  0.00    +0.000 Cl
ATOM     33  C   UNL     1       3.138   6.464  18.765  0.00  0.00    +0.000 A 
ATOM     34  C   UNL     1       3.882   6.561  17.586  0.00  0.00    +0.000 A 
ENDBRANCH  26  28
ENDBRANCH  23  26
ENDBRANCH   5  23
TORSDOF 7
ENDMDL
MODEL 5
REMARK VINA RESULT:      -8.0      3.364      4.197
REMARK  Name = 
REMARK  7 active torsions:
REMARK  status: ('A' for Active; 'I' for Inactive)
REMARK    1  A    between atoms: C_2  and  C_24
REMARK    2  A    between atoms: N_3  and  N_4
REMARK    3  A    between atoms: C_5  and  C_7
REMARK    4  A    between atoms: C_11  and  S_12
REMARK    5  A    between atoms: S_12  and  N_15
REMARK    6  A    between atoms: N_15  and  C_16
REMARK    7  A    between atoms: C_27  and  O_28
REMARK                            x       y       z     vdW  Elec       q    Type
REMARK                         _______ _______ _______ _____ _____    ______ ____
ROOT
ATOM      1  C   UNL     1       2.113   6.624  19.263  0.00  0.00    +0.000 A 
ATOM      2  C   UNL     1       1.926   6.319  20.621  0.00  0.00    +0.000 A 
ATOM      3  C   UNL     1       2.027   5.002  21.078  0.00  0.00    +0.000 A 
ATOM      4  C   UNL     1       2.317   3.974  20.184  0.00  0.00    +0.000 A 
ATOM      5  C   UNL     1       2.488   4.271  18.829  0.00  0.00    +0.000 A 
ATOM      6  C   UNL     1       2.365   5.587  18.356  0.00  0.00    +0.000 A 
ENDROOT
BRANCH   1   8
ATOM      7  N   UNL     1       1.412   8.930  19.730  0.00  0.00    +0.000 N 
ATOM      8  C   UNL     1       2.047   8.060  18.862  0.00  0.00    +0.000 C 
ATOM      9  O   UNL     1       2.496   8.430  17.778  0.00  0.00    +0.000 OA
ATOM     10  H   UNL     1       0.921   8.655  20.579  0.00  0.00    +0.000 HD
BRANCH   7  13
ATOM     11  O   UNL     1       1.107  11.004  21.446  0.00  0.00    +0.000 OA
ATOM     12  C   UNL     1       1.048  11.232  20.240  0.00  0.00    +0.000 C 
ATOM     13  N   UNL     1       1.177  10.241  19.288  0.00  0.00    +0.000 N 
ATOM     14  H   UNL     1       1.275  10.398  18.285  0.00  0.00    +0.000 HD
BRANCH  12  15
ATOM     15  C   UNL     1       0.864  12.616  19.749  0.00  0.00    +0.000 A 
ATOM     16  C   UNL     1       1.951  13.494  19.725  0.00  0.00    +0.000 A 
ATOM     17  C   UNL     1       1.766  14.807  19.291  0.00  0.00    +0.000 A 
ATOM     18  C   UNL     1       0.493  15.192  18.904  0.00  0.00    +0.000 A 
ATOM     19  N   UNL     1      -0.575  14.375  18.917  0.00  0.00    +0.000 NA
ATOM     20  C   UNL     1      -0.371  13.106  19.348  0.00  0.00    +0.000 A 
BRANCH  18  21
ATOM     21  O   UNL     1       0.235  16.462  18.482  0.00  0.00    +0.000 OA
ATOM     22  H   UNL     1      -0.348  16.885  19.127  0.00  0.00    +0.000 HD
ENDBRANCH  18  21
ENDBRANCH  12  15
ENDBRANCH   7  13
ENDBRANCH   1   8
BRANCH   5  23
ATOM     23  S   UNL     1       2.834   2.951  17.682  0.00  0.00    +0.000 S 
ATOM     24  O   UNL     1       2.431   1.708  18.304  0.00  0.00    +0.000 OA
ATOM     25  O   UNL     1       2.322   3.341  16.384  0.00  0.00    +0.000 OA
BRANCH  23  26
ATOM     26  N   UNL     1       4.509   2.929  17.632  0.00  0.00    +0.000 N 
ATOM     27  H   UNL     1       4.953   2.053  17.359  0.00  0.00    +0.000 HD
BRANCH  26  28
ATOM     28  C   UNL     1       5.233   4.139  17.651  0.00  0.00    +0.000 A 
ATOM     29  C   UNL     1       5.312   4.881  16.473  0.00  0.00    +0.000 A 
ATOM     30  C   UNL     1       6.088   6.039  16.432  0.00  0.00    +0.000 A 
ATOM     31  C   UNL     1       6.758   6.461  17.580  0.00  0.00    +0.000 A 
ATOM     32 CL   UNL     1       7.725   7.880  17.523  0.00  0.00    +0.000 Cl
ATOM     33  C   UNL     1       6.649   5.739  18.769  0.00  0.00    +0.000 A 
ATOM     34  C   UNL     1       5.882   4.571  18.807  0.00  0.00    +0.000 A 
ENDBRANCH  26  28
ENDBRANCH  23  26
ENDBRANCH   5  23
TORSDOF 7
ENDMDL
MODEL 6
REMARK VINA RESULT:      -8.0      0.698      1.358
REMARK  Name = 
REMARK  7 active torsions:
REMARK  status: ('A' for Active; 'I' for Inactive)
REMARK    1  A    between atoms: C_2  and  C_24
REMARK    2  A    between atoms: N_3  and  N_4
REMARK    3  A    between atoms: C_5  and  C_7
REMARK    4  A    between atoms: C_11  and  S_12
REMARK    5  A    between atoms: S_12  and  N_15
REMARK    6  A    between atoms: N_15  and  C_16
REMARK    7  A    between atoms: C_27  and  O_28
REMARK                            x       y       z     vdW  Elec       q    Type
REMARK                         _______ _______ _______ _____ _____    ______ ____
ROOT
ATOM      1  C   UNL     1       3.403   6.560  18.158  0.00  0.00    +0.000 A 
ATOM      2  C   UNL     1       2.794   5.314  18.373  0.00  0.00    +0.000 A 
ATOM      3  C   UNL     1       3.531   4.130  18.275  0.00  0.00    +0.000 A 
ATOM      4  C   UNL     1       4.887   4.178  17.961  0.00  0.00    +0.000 A 
ATOM      5  C   UNL     1       5.495   5.415  17.730  0.00  0.00    +0.000 A 
ATOM      6  C   UNL     1       4.758   6.608  17.802  0.00  0.00    +0.000 A 
ENDROOT
BRANCH   1   8
ATOM      7  N   UNL     1       2.046   8.012  19.599  0.00  0.00    +0.000 N 
ATOM      8  C   UNL     1       2.565   7.781  18.338  0.00  0.00    +0.000 C 
ATOM      9  O   UNL     1       2.312   8.515  17.384  0.00  0.00    +0.000 OA
ATOM     10  H   UNL     1       2.127   7.375  20.390  0.00  0.00    +0.000 HD
BRANCH   7  13
ATOM     11  O   UNL     1       1.013   8.704  22.006  0.00  0.00    +0.000 OA
ATOM     12  C   UNL     1       0.651   9.333  21.014  0.00  0.00    +0.000 C 
ATOM     13  N   UNL     1       1.109   9.046  19.743  0.00  0.00    +0.000 N 
ATOM     14  H   UNL     1       0.950   9.622  18.917  0.00  0.00    +0.000 HD
BRANCH  12  15
ATOM     15  C   UNL     1      -0.287  10.469  21.149  0.00  0.00    +0.000 A 
ATOM     16  C   UNL     1      -0.843  11.050  20.007  0.00  0.00    +0.000 A 
ATOM     17  C   UNL     1      -1.703  12.140  20.137  0.00  0.00    +0.000 A 
ATOM     18  C   UNL     1      -1.966  12.614  21.412  0.00  0.00    +0.000 A 
ATOM     19  N   UNL     1      -1.446  12.083  22.532  0.00  0.00    +0.000 NA
ATOM     20  C   UNL     1      -0.610  11.026  22.379  0.00  0.00    +0.000 A 
BRANCH  18  21
ATOM     21  O   UNL     1      -2.784  13.684  21.614  0.00  0.00    +0.000 OA
ATOM     22  H   UNL     1      -3.669  13.357  21.827  0.00  0.00    +0.000 HD
ENDBRANCH  18  21
ENDBRANCH  12  15
ENDBRANCH   7  13
ENDBRANCH   1   8
BRANCH   5  23
ATOM     23  S   UNL     1       7.224   5.473  17.302  0.00  0.00    +0.000 S 
ATOM     24  O   UNL     1       7.845   6.500  18.111  0.00  0.00    +0.000 OA
ATOM     25  O   UNL     1       7.729   4.116  17.295  0.00  0.00    +0.000 OA
BRANCH  23  26
ATOM     26  N   UNL     1       7.201   6.062  15.733  0.00  0.00    +0.000 N 
ATOM     27  H   UNL     1       7.693   6.938  15.559  0.00  0.00    +0.000 HD
BRANCH  26  28
ATOM     28  C   UNL     1       6.802   5.227  14.669  0.00  0.00    +0.000 A 
ATOM     29  C   UNL     1       5.569   4.580  14.763  0.00  0.00    +0.000 A 
ATOM     30  C   UNL     1       5.179   3.682  13.771  0.00  0.00    +0.000 A 
ATOM     31  C   UNL     1       6.014   3.459  12.676  0.00  0.00    +0.000 A 
ATOM     32 CL   UNL     1       5.536   2.341  11.462  0.00  0.00    +0.000 Cl
ATOM     33  C   UNL     1       7.230   4.133  12.564  0.00  0.00    +0.000 A 
ATOM     34  C   UNL     1       7.627   5.024  13.565  0.00  0.00    +0.000 A 
ENDBRANCH  26  28
ENDBRANCH  23  26
ENDBRANCH   5  23
TORSDOF 7
ENDMDL
MODEL 7
REMARK VINA RESULT:      -7.9      1.425      1.805
REMARK  Name = 
REMARK  7 active torsions:
REMARK  status: ('A' for Active; 'I' for Inactive)
REMARK    1  A    between atoms: C_2  and  C_24
REMARK    2  A    between atoms: N_3  and  N_4
REMARK    3  A    between atoms: C_5  and  C_7
REMARK    4  A    between atoms: C_11  and  S_12
REMARK    5  A    between atoms: S_12  and  N_15
REMARK    6  A    between atoms: N_15  and  C_16
REMARK    7  A    between atoms: C_27  and  O_28
REMARK                            x       y       z     vdW  Elec       q    Type
REMARK                         _______ _______ _______ _____ _____    ______ ____
ROOT
ATOM      1  C   UNL     1       3.503   5.708  19.020  0.00  0.00    +0.000 A 
ATOM      2  C   UNL     1       3.229   4.342  19.198  0.00  0.00    +0.000 A 
ATOM      3  C   UNL     1       4.180   3.372  18.869  0.00  0.00    +0.000 A 
ATOM      4  C   UNL     1       5.418   3.756  18.357  0.00  0.00    +0.000 A 
ATOM      5  C   UNL     1       5.689   5.113  18.163  0.00  0.00    +0.000 A 
ATOM      6  C   UNL     1       4.732   6.093  18.468  0.00  0.00    +0.000 A 
ENDROOT
BRANCH   1   8
ATOM      7  N   UNL     1       2.323   7.835  18.694  0.00  0.00    +0.000 N 
ATOM      8  C   UNL     1       2.460   6.684  19.449  0.00  0.00    +0.000 C 
ATOM      9  O   UNL     1       1.793   6.486  20.463  0.00  0.00    +0.000 OA
ATOM     10  H   UNL     1       2.929   8.102  17.920  0.00  0.00    +0.000 HD
BRANCH   7  13
ATOM     11  O   UNL     1       2.131  10.263  17.508  0.00  0.00    +0.000 OA
ATOM     12  C   UNL     1       1.444  10.045  18.502  0.00  0.00    +0.000 C 
ATOM     13  N   UNL     1       1.482   8.845  19.185  0.00  0.00    +0.000 N 
ATOM     14  H   UNL     1       0.836   8.568  19.923  0.00  0.00    +0.000 HD
BRANCH  12  15
ATOM     15  C   UNL     1       0.502  11.071  19.001  0.00  0.00    +0.000 A 
ATOM     16  C   UNL     1      -0.410  10.746  20.008  0.00  0.00    +0.000 A 
ATOM     17  C   UNL     1      -1.317  11.707  20.454  0.00  0.00    +0.000 A 
ATOM     18  C   UNL     1      -1.280  12.960  19.864  0.00  0.00    +0.000 A 
ATOM     19  N   UNL     1      -0.419  13.307  18.891  0.00  0.00    +0.000 NA
ATOM     20  C   UNL     1       0.449  12.353  18.472  0.00  0.00    +0.000 A 
BRANCH  18  21
ATOM     21  O   UNL     1      -2.145  13.944  20.239  0.00  0.00    +0.000 OA
ATOM     22  H   UNL     1      -2.656  14.213  19.463  0.00  0.00    +0.000 HD
ENDBRANCH  18  21
ENDBRANCH  12  15
ENDBRANCH   7  13
ENDBRANCH   1   8
BRANCH   5  23
ATOM     23  S   UNL     1       7.264   5.601  17.484  0.00  0.00    +0.000 S 
ATOM     24  O   UNL     1       7.715   6.769  18.209  0.00  0.00    +0.000 OA
ATOM     25  O   UNL     1       8.091   4.417  17.378  0.00  0.00    +0.000 OA
BRANCH  23  26
ATOM     26  N   UNL     1       6.859   6.132  15.947  0.00  0.00    +0.000 N 
ATOM     27  H   UNL     1       7.077   7.101  15.718  0.00  0.00    +0.000 HD
BRANCH  26  28
ATOM     28  C   UNL     1       6.536   5.200  14.938  0.00  0.00    +0.000 A 
ATOM     29  C   UNL     1       7.467   4.975  13.924  0.00  0.00    +0.000 A 
ATOM     30  C   UNL     1       7.149   4.124  12.866  0.00  0.00    +0.000 A 
ATOM     31  C   UNL     1       5.911   3.482  12.846  0.00  0.00    +0.000 A 
ATOM     32 CL   UNL     1       5.517   2.444  11.534  0.00  0.00    +0.000 Cl
ATOM     33  C   UNL     1       4.995   3.677  13.880  0.00  0.00    +0.000 A 
ATOM     34  C   UNL     1       5.308   4.540  14.934  0.00  0.00    +0.000 A 
ENDBRANCH  26  28
ENDBRANCH  23  26
ENDBRANCH   5  23
TORSDOF 7
ENDMDL
MODEL 8
REMARK VINA RESULT:      -7.9      4.919      9.893
REMARK  Name = 
REMARK  7 active torsions:
REMARK  status: ('A' for Active; 'I' for Inactive)
REMARK    1  A    between atoms: C_2  and  C_24
REMARK    2  A    between atoms: N_3  and  N_4
REMARK    3  A    between atoms: C_5  and  C_7
REMARK    4  A    between atoms: C_11  and  S_12
REMARK    5  A    between atoms: S_12  and  N_15
REMARK    6  A    between atoms: N_15  and  C_16
REMARK    7  A    between atoms: C_27  and  O_28
REMARK                            x       y       z     vdW  Elec       q    Type
REMARK                         _______ _______ _______ _____ _____    ______ ____
ROOT
ATOM      1  C   UNL     1       0.723   9.419  21.262  0.00  0.00    +0.000 A 
ATOM      2  C   UNL     1      -0.165   9.171  22.321  0.00  0.00    +0.000 A 
ATOM      3  C   UNL     1      -0.785  10.226  22.996  0.00  0.00    +0.000 A 
ATOM      4  C   UNL     1      -0.526  11.542  22.621  0.00  0.00    +0.000 A 
ATOM      5  C   UNL     1       0.370  11.795  21.579  0.00  0.00    +0.000 A 
ATOM      6  C   UNL     1       1.016  10.743  20.909  0.00  0.00    +0.000 A 
ENDROOT
BRANCH   1   8
ATOM      7  N   UNL     1       1.472   7.082  21.288  0.00  0.00    +0.000 N 
ATOM      8  C   UNL     1       1.300   8.241  20.552  0.00  0.00    +0.000 C 
ATOM      9  O   UNL     1       1.652   8.326  19.377  0.00  0.00    +0.000 OA
ATOM     10  H   UNL     1       1.309   6.995  22.289  0.00  0.00    +0.000 HD
BRANCH   7  13
ATOM     11  O   UNL     1       0.268   4.777  20.526  0.00  0.00    +0.000 OA
ATOM     12  C   UNL     1       1.475   4.897  20.328  0.00  0.00    +0.000 C 
ATOM     13  N   UNL     1       2.180   6.027  20.693  0.00  0.00    +0.000 N 
ATOM     14  H   UNL     1       3.143   6.230  20.427  0.00  0.00    +0.000 HD
BRANCH  12  15
ATOM     15  C   UNL     1       2.231   3.825  19.645  0.00  0.00    +0.000 A 
ATOM     16  C   UNL     1       1.704   3.226  18.497  0.00  0.00    +0.000 A 
ATOM     17  C   UNL     1       2.405   2.194  17.875  0.00  0.00    +0.000 A 
ATOM     18  C   UNL     1       3.608   1.794  18.434  0.00  0.00    +0.000 A 
ATOM     19  N   UNL     1       4.143   2.344  19.538  0.00  0.00    +0.000 NA
ATOM     20  C   UNL     1       3.440   3.343  20.127  0.00  0.00    +0.000 A 
BRANCH  18  21
ATOM     21  O   UNL     1       4.340   0.783  17.888  0.00  0.00    +0.000 OA
ATOM     22  H   UNL     1       3.838  -0.040  17.975  0.00  0.00    +0.000 HD
ENDBRANCH  18  21
ENDBRANCH  12  15
ENDBRANCH   7  13
ENDBRANCH   1   8
BRANCH   5  23
ATOM     23  S   UNL     1       0.721  13.480  21.117  0.00  0.00    +0.000 S 
ATOM     24  O   UNL     1       0.888  14.246  22.334  0.00  0.00    +0.000 OA
ATOM     25  O   UNL     1       1.748  13.460  20.096  0.00  0.00    +0.000 OA
BRANCH  23  26
ATOM     26  N   UNL     1      -0.724  13.990  20.438  0.00  0.00    +0.000 N 
ATOM     27  H   UNL     1      -0.928  14.988  20.475  0.00  0.00    +0.000 HD
BRANCH  26  28
ATOM     28  C   UNL     1      -1.448  13.129  19.587  0.00  0.00    +0.000 A 
ATOM     29  C   UNL     1      -2.733  12.748  19.970  0.00  0.00    +0.000 A 
ATOM     30  C   UNL     1      -3.446  11.833  19.196  0.00  0.00    +0.000 A 
ATOM     31  C   UNL     1      -2.876  11.327  18.028  0.00  0.00    +0.000 A 
ATOM     32 CL   UNL     1      -3.752  10.188  17.083  0.00  0.00    +0.000 Cl
ATOM     33  C   UNL     1      -1.605  11.736  17.625  0.00  0.00    +0.000 A 
ATOM     34  C   UNL     1      -0.886  12.644  18.407  0.00  0.00    +0.000 A 
ENDBRANCH  26  28
ENDBRANCH  23  26
ENDBRANCH   5  23
TORSDOF 7
ENDMDL
MODEL 9
REMARK VINA RESULT:      -7.9      4.201     10.523
REMARK  Name = 
REMARK  7 active torsions:
REMARK  status: ('A' for Active; 'I' for Inactive)
REMARK    1  A    between atoms: C_2  and  C_24
REMARK    2  A    between atoms: N_3  and  N_4
REMARK    3  A    between atoms: C_5  and  C_7
REMARK    4  A    between atoms: C_11  and  S_12
REMARK    5  A    between atoms: S_12  and  N_15
REMARK    6  A    between atoms: N_15  and  C_16
REMARK    7  A    between atoms: C_27  and  O_28
REMARK                            x       y       z     vdW  Elec       q    Type
REMARK                         _______ _______ _______ _____ _____    ______ ____
ROOT
ATOM      1  C   UNL     1       0.813   9.485  20.345  0.00  0.00    +0.000 A 
ATOM      2  C   UNL     1       0.388   8.560  21.313  0.00  0.00    +0.000 A 
ATOM      3  C   UNL     1      -0.327   8.979  22.438  0.00  0.00    +0.000 A 
ATOM      4  C   UNL     1      -0.627  10.329  22.610  0.00  0.00    +0.000 A 
ATOM      5  C   UNL     1      -0.192  11.255  21.659  0.00  0.00    +0.000 A 
ATOM      6  C   UNL     1       0.548  10.847  20.537  0.00  0.00    +0.000 A 
ENDROOT
BRANCH   1   8
ATOM      7  N   UNL     1       2.185   7.749  19.283  0.00  0.00    +0.000 N 
ATOM      8  C   UNL     1       1.520   8.954  19.144  0.00  0.00    +0.000 C 
ATOM      9  O   UNL     1       1.546   9.597  18.095  0.00  0.00    +0.000 OA
ATOM     10  H   UNL     1       2.294   7.239  20.157  0.00  0.00    +0.000 HD
BRANCH   7  13
ATOM     11  O   UNL     1       3.500   5.381  19.326  0.00  0.00    +0.000 OA
ATOM     12  C   UNL     1       3.624   6.098  18.336  0.00  0.00    +0.000 C 
ATOM     13  N   UNL     1       3.005   7.328  18.226  0.00  0.00    +0.000 N 
ATOM     14  H   UNL     1       2.963   7.890  17.376  0.00  0.00    +0.000 HD
BRANCH  12  15
ATOM     15  C   UNL     1       4.432   5.647  17.182  0.00  0.00    +0.000 A 
ATOM     16  C   UNL     1       4.736   4.291  17.035  0.00  0.00    +0.000 A 
ATOM     17  C   UNL     1       5.525   3.874  15.963  0.00  0.00    +0.000 A 
ATOM     18  C   UNL     1       5.988   4.837  15.082  0.00  0.00    +0.000 A 
ATOM     19  N   UNL     1       5.720   6.150  15.195  0.00  0.00    +0.000 NA
ATOM     20  C   UNL     1       4.954   6.530  16.248  0.00  0.00    +0.000 A 
BRANCH  18  21
ATOM     21  O   UNL     1       6.776   4.505  14.020  0.00  0.00    +0.000 OA
ATOM     22  H   UNL     1       7.692   4.449  14.325  0.00  0.00    +0.000 HD
ENDBRANCH  18  21
ENDBRANCH  12  15
ENDBRANCH   7  13
ENDBRANCH   1   8
BRANCH   5  23
ATOM     23  S   UNL     1      -0.553  12.985  21.894  0.00  0.00    +0.000 S 
ATOM     24  O   UNL     1      -1.626  13.084  22.861  0.00  0.00    +0.000 OA
ATOM     25  O   UNL     1       0.701  13.681  22.091  0.00  0.00    +0.000 OA
BRANCH  23  26
ATOM     26  N   UNL     1      -1.210  13.433  20.419  0.00  0.00    +0.000 N 
ATOM     27  H   UNL     1      -0.602  13.936  19.774  0.00  0.00    +0.000 HD
BRANCH  26  28
ATOM     28  C   UNL     1      -2.421  12.859  19.980  0.00  0.00    +0.000 A 
ATOM     29  C   UNL     1      -2.387  12.001  18.881  0.00  0.00    +0.000 A 
ATOM     30  C   UNL     1      -3.574  11.481  18.369  0.00  0.00    +0.000 A 
ATOM     31  C   UNL     1      -4.787  11.803  18.977  0.00  0.00    +0.000 A 
ATOM     32 CL   UNL     1      -6.251  11.172  18.334  0.00  0.00    +0.000 Cl
ATOM     33  C   UNL     1      -4.819  12.632  20.099  0.00  0.00    +0.000 A 
ATOM     34  C   UNL     1      -3.629  13.163  20.606  0.00  0.00    +0.000 A 
ENDBRANCH  26  28
ENDBRANCH  23  26
ENDBRANCH   5  23
TORSDOF 7
ENDMDL
