MODEL 1
REMARK VINA RESULT:      -7.8      0.000      0.000
REMARK  Name = 
REMARK  2 active torsions:
REMARK  status: ('A' for Active; 'I' for Inactive)
REMARK    1  A    between atoms: C_7  and  O_8
REMARK    2  A    between atoms: C_12  and  C_13
REMARK                            x       y       z     vdW  Elec       q    Type
REMARK                         _______ _______ _______ _____ _____    ______ ____
ROOT
ATOM      1  O   UNL     1       7.849   4.589  16.585  0.00  0.00    +0.000 OA
ATOM      2  C   UNL     1       6.742   4.291  16.994  0.00  0.00    +0.000 C 
ATOM      3  N   UNL     1       6.391   4.109  18.320  0.00  0.00    +0.000 N 
ATOM      4  C   UNL     1       5.033   3.854  18.456  0.00  0.00    +0.000 A 
ATOM      5  C   UNL     1       4.345   3.655  19.636  0.00  0.00    +0.000 A 
ATOM      6  C   UNL     1       2.972   3.418  19.544  0.00  0.00    +0.000 A 
ATOM      7  C   UNL     1       2.343   3.391  18.289  0.00  0.00    +0.000 A 
ATOM      8  C   UNL     1       3.052   3.600  17.106  0.00  0.00    +0.000 A 
ATOM      9  C   UNL     1       4.411   3.833  17.203  0.00  0.00    +0.000 A 
ATOM     10  C   UNL     1       5.464   4.098  16.210  0.00  0.00    +0.000 C 
ATOM     11  C   UNL     1       5.244   4.118  14.885  0.00  0.00    +0.000 C 
ATOM     12  H   UNL     1       7.060   4.188  19.072  0.00  0.00    +0.000 HD
ENDROOT
BRANCH  11  13
ATOM     13  C   UNL     1       6.200   4.313  13.856  0.00  0.00    +0.000 A 
ATOM     14  C   UNL     1       6.367   3.683  12.635  0.00  0.00    +0.000 A 
ATOM     15  C   UNL     1       7.482   4.268  11.989  0.00  0.00    +0.000 A 
ATOM     16  C   UNL     1       7.953   5.261  12.811  0.00  0.00    +0.000 A 
ATOM     17  N   UNL     1       7.166   5.288  13.932  0.00  0.00    +0.000 N 
ATOM     18  H   UNL     1       7.332   5.884  14.736  0.00  0.00    +0.000 HD
ENDBRANCH  11  13
BRANCH   7  19
ATOM     19  O   UNL     1       1.003   3.158  18.179  0.00  0.00    +0.000 OA
ATOM     20  H   UNL     1       0.578   3.350  19.031  0.00  0.00    +0.000 HD
ENDBRANCH   7  19
TORSDOF 2
ENDMDL
MODEL 2
REMARK VINA RESULT:      -7.5      1.892      2.012
REMARK  Name = 
REMARK  2 active torsions:
REMARK  status: ('A' for Active; 'I' for Inactive)
REMARK    1  A    between atoms: C_7  and  O_8
REMARK    2  A    between atoms: C_12  and  C_13
REMARK                            x       y       z     vdW  Elec       q    Type
REMARK                         _______ _______ _______ _____ _____    ______ ____
ROOT
ATOM      1  O   UNL     1       5.209   7.058  15.200  0.00  0.00    +0.000 OA
ATOM      2  C   UNL     1       4.888   6.370  16.150  0.00  0.00    +0.000 C 
ATOM      3  N   UNL     1       4.233   6.812  17.286  0.00  0.00    +0.000 N 
ATOM      4  C   UNL     1       3.943   5.762  18.147  0.00  0.00    +0.000 A 
ATOM      5  C   UNL     1       3.273   5.844  19.351  0.00  0.00    +0.000 A 
ATOM      6  C   UNL     1       3.081   4.655  20.059  0.00  0.00    +0.000 A 
ATOM      7  C   UNL     1       3.559   3.441  19.541  0.00  0.00    +0.000 A 
ATOM      8  C   UNL     1       4.230   3.374  18.318  0.00  0.00    +0.000 A 
ATOM      9  C   UNL     1       4.417   4.554  17.624  0.00  0.00    +0.000 A 
ATOM     10  C   UNL     1       5.050   4.878  16.335  0.00  0.00    +0.000 C 
ATOM     11  C   UNL     1       5.655   3.965  15.557  0.00  0.00    +0.000 C 
ATOM     12  H   UNL     1       3.988   7.781  17.427  0.00  0.00    +0.000 HD
ENDROOT
BRANCH  11  13
ATOM     13  C   UNL     1       6.332   4.190  14.333  0.00  0.00    +0.000 A 
ATOM     14  C   UNL     1       6.149   3.642  13.075  0.00  0.00    +0.000 A 
ATOM     15  C   UNL     1       7.101   4.221  12.202  0.00  0.00    +0.000 A 
ATOM     16  C   UNL     1       7.823   5.130  12.933  0.00  0.00    +0.000 A 
ATOM     17  N   UNL     1       7.345   5.112  14.217  0.00  0.00    +0.000 N 
ATOM     18  H   UNL     1       7.744   5.641  14.985  0.00  0.00    +0.000 HD
ENDBRANCH  11  13
BRANCH   7  19
ATOM     19  O   UNL     1       3.384   2.269  20.219  0.00  0.00    +0.000 OA
ATOM     20  H   UNL     1       4.014   1.612  19.880  0.00  0.00    +0.000 HD
ENDBRANCH   7  19
TORSDOF 2
ENDMDL
MODEL 3
REMARK VINA RESULT:      -7.2      1.826      2.392
REMARK  Name = 
REMARK  2 active torsions:
REMARK  status: ('A' for Active; 'I' for Inactive)
REMARK    1  A    between atoms: C_7  and  O_8
REMARK    2  A    between atoms: C_12  and  C_13
REMARK                            x       y       z     vdW  Elec       q    Type
REMARK                         _______ _______ _______ _____ _____    ______ ____
ROOT
ATOM      1  O   UNL     1       5.636   6.423  18.052  0.00  0.00    +0.000 OA
ATOM      2  C   UNL     1       4.696   5.747  18.424  0.00  0.00    +0.000 C 
ATOM      3  N   UNL     1       3.992   5.920  19.604  0.00  0.00    +0.000 N 
ATOM      4  C   UNL     1       2.925   5.035  19.693  0.00  0.00    +0.000 A 
ATOM      5  C   UNL     1       2.004   4.954  20.717  0.00  0.00    +0.000 A 
ATOM      6  C   UNL     1       1.001   3.989  20.602  0.00  0.00    +0.000 A 
ATOM      7  C   UNL     1       0.955   3.151  19.476  0.00  0.00    +0.000 A 
ATOM      8  C   UNL     1       1.891   3.249  18.446  0.00  0.00    +0.000 A 
ATOM      9  C   UNL     1       2.881   4.206  18.567  0.00  0.00    +0.000 A 
ATOM     10  C   UNL     1       4.008   4.607  17.709  0.00  0.00    +0.000 C 
ATOM     11  C   UNL     1       4.307   4.002  16.548  0.00  0.00    +0.000 C 
ATOM     12  H   UNL     1       4.234   6.628  20.280  0.00  0.00    +0.000 HD
ENDROOT
BRANCH  11  13
ATOM     13  C   UNL     1       5.395   4.284  15.684  0.00  0.00    +0.000 A 
ATOM     14  C   UNL     1       5.461   4.394  14.306  0.00  0.00    +0.000 A 
ATOM     15  C   UNL     1       6.799   4.693  13.955  0.00  0.00    +0.000 A 
ATOM     16  C   UNL     1       7.514   4.790  15.122  0.00  0.00    +0.000 A 
ATOM     17  N   UNL     1       6.656   4.551  16.162  0.00  0.00    +0.000 N 
ATOM     18  H   UNL     1       6.935   4.495  17.136  0.00  0.00    +0.000 HD
ENDBRANCH  11  13
BRANCH   7  19
ATOM     19  O   UNL     1      -0.015   2.200  19.347  0.00  0.00    +0.000 OA
ATOM     20  H   UNL     1       0.150   1.491  19.990  0.00  0.00    +0.000 HD
ENDBRANCH   7  19
TORSDOF 2
ENDMDL
MODEL 4
REMARK VINA RESULT:      -7.2      2.166      5.996
REMARK  Name = 
REMARK  2 active torsions:
REMARK  status: ('A' for Active; 'I' for Inactive)
REMARK    1  A    between atoms: C_7  and  O_8
REMARK    2  A    between atoms: C_12  and  C_13
REMARK                            x       y       z     vdW  Elec       q    Type
REMARK                         _______ _______ _______ _____ _____    ______ ____
ROOT
ATOM      1  O   UNL     1       4.699   5.457  19.658  0.00  0.00    +0.000 OA
ATOM      2  C   UNL     1       5.031   5.215  18.513  0.00  0.00    +0.000 C 
ATOM      3  N   UNL     1       6.053   5.837  17.817  0.00  0.00    +0.000 N 
ATOM      4  C   UNL     1       6.228   5.274  16.560  0.00  0.00    +0.000 A 
ATOM      5  C   UNL     1       7.174   5.633  15.621  0.00  0.00    +0.000 A 
ATOM      6  C   UNL     1       7.179   4.926  14.416  0.00  0.00    +0.000 A 
ATOM      7  C   UNL     1       6.249   3.898  14.198  0.00  0.00    +0.000 A 
ATOM      8  C   UNL     1       5.302   3.544  15.160  0.00  0.00    +0.000 A 
ATOM      9  C   UNL     1       5.302   4.247  16.350  0.00  0.00    +0.000 A 
ATOM     10  C   UNL     1       4.488   4.163  17.573  0.00  0.00    +0.000 C 
ATOM     11  C   UNL     1       3.465   3.306  17.723  0.00  0.00    +0.000 C 
ATOM     12  H   UNL     1       6.600   6.586  18.215  0.00  0.00    +0.000 HD
ENDROOT
BRANCH  11  13
ATOM     13  C   UNL     1       2.597   3.188  18.838  0.00  0.00    +0.000 A 
ATOM     14  C   UNL     1       1.236   3.411  18.962  0.00  0.00    +0.000 A 
ATOM     15  C   UNL     1       0.869   3.140  20.302  0.00  0.00    +0.000 A 
ATOM     16  C   UNL     1       2.001   2.729  20.959  0.00  0.00    +0.000 A 
ATOM     17  N   UNL     1       3.038   2.751  20.064  0.00  0.00    +0.000 N 
ATOM     18  H   UNL     1       4.005   2.557  20.301  0.00  0.00    +0.000 HD
ENDBRANCH  11  13
BRANCH   7  19
ATOM     19  O   UNL     1       6.236   3.198  13.026  0.00  0.00    +0.000 OA
ATOM     20  H   UNL     1       7.149   2.976  12.781  0.00  0.00    +0.000 HD
ENDBRANCH   7  19
TORSDOF 2
ENDMDL
MODEL 5
REMARK VINA RESULT:      -7.1      4.126      4.625
REMARK  Name = 
REMARK  2 active torsions:
REMARK  status: ('A' for Active; 'I' for Inactive)
REMARK    1  A    between atoms: C_7  and  O_8
REMARK    2  A    between atoms: C_12  and  C_13
REMARK                            x       y       z     vdW  Elec       q    Type
REMARK                         _______ _______ _______ _____ _____    ______ ____
ROOT
ATOM      1  O   UNL     1       4.551   4.735  19.343  0.00  0.00    +0.000 OA
ATOM      2  C   UNL     1       3.820   5.699  19.212  0.00  0.00    +0.000 C 
ATOM      3  N   UNL     1       2.927   6.172  20.158  0.00  0.00    +0.000 N 
ATOM      4  C   UNL     1       2.302   7.335  19.728  0.00  0.00    +0.000 A 
ATOM      5  C   UNL     1       1.380   8.084  20.432  0.00  0.00    +0.000 A 
ATOM      6  C   UNL     1       0.878   9.230  19.811  0.00  0.00    +0.000 A 
ATOM      7  C   UNL     1       1.313   9.582  18.523  0.00  0.00    +0.000 A 
ATOM      8  C   UNL     1       2.250   8.817  17.827  0.00  0.00    +0.000 A 
ATOM      9  C   UNL     1       2.742   7.684  18.447  0.00  0.00    +0.000 A 
ATOM     10  C   UNL     1       3.720   6.659  18.048  0.00  0.00    +0.000 C 
ATOM     11  C   UNL     1       4.332   6.644  16.853  0.00  0.00    +0.000 C 
ATOM     12  H   UNL     1       2.793   5.720  21.049  0.00  0.00    +0.000 HD
ENDROOT
BRANCH  11  13
ATOM     13  C   UNL     1       5.244   5.676  16.364  0.00  0.00    +0.000 A 
ATOM     14  C   UNL     1       5.171   4.820  15.278  0.00  0.00    +0.000 A 
ATOM     15  C   UNL     1       6.362   4.057  15.241  0.00  0.00    +0.000 A 
ATOM     16  C   UNL     1       7.149   4.481  16.282  0.00  0.00    +0.000 A 
ATOM     17  N   UNL     1       6.470   5.466  16.949  0.00  0.00    +0.000 N 
ATOM     18  H   UNL     1       6.794   5.910  17.801  0.00  0.00    +0.000 HD
ENDBRANCH  11  13
BRANCH   7  19
ATOM     19  O   UNL     1       0.832  10.696  17.898  0.00  0.00    +0.000 OA
ATOM     20  H   UNL     1       1.458  11.427  18.030  0.00  0.00    +0.000 HD
ENDBRANCH   7  19
TORSDOF 2
ENDMDL
MODEL 6
REMARK VINA RESULT:      -7.1      2.003      5.794
REMARK  Name = 
REMARK  2 active torsions:
REMARK  status: ('A' for Active; 'I' for Inactive)
REMARK    1  A    between atoms: C_7  and  O_8
REMARK    2  A    between atoms: C_12  and  C_13
REMARK                            x       y       z     vdW  Elec       q    Type
REMARK                         _______ _______ _______ _____ _____    ______ ____
ROOT
ATOM      1  O   UNL     1       6.334   6.145  17.600  0.00  0.00    +0.000 OA
ATOM      2  C   UNL     1       6.288   5.639  16.495  0.00  0.00    +0.000 C 
ATOM      3  N   UNL     1       7.224   5.803  15.489  0.00  0.00    +0.000 N 
ATOM      4  C   UNL     1       6.920   5.026  14.379  0.00  0.00    +0.000 A 
ATOM      5  C   UNL     1       7.654   4.928  13.214  0.00  0.00    +0.000 A 
ATOM      6  C   UNL     1       7.166   4.077  12.220  0.00  0.00    +0.000 A 
ATOM      7  C   UNL     1       5.976   3.362  12.425  0.00  0.00    +0.000 A 
ATOM      8  C   UNL     1       5.248   3.468  13.611  0.00  0.00    +0.000 A 
ATOM      9  C   UNL     1       5.735   4.312  14.591  0.00  0.00    +0.000 A 
ATOM     10  C   UNL     1       5.267   4.671  15.939  0.00  0.00    +0.000 C 
ATOM     11  C   UNL     1       4.129   4.203  16.477  0.00  0.00    +0.000 C 
ATOM     12  H   UNL     1       8.031   6.400  15.593  0.00  0.00    +0.000 HD
ENDROOT
BRANCH  11  13
ATOM     13  C   UNL     1       3.575   4.530  17.740  0.00  0.00    +0.000 A 
ATOM     14  C   UNL     1       2.412   5.200  18.080  0.00  0.00    +0.000 A 
ATOM     15  C   UNL     1       2.334   5.252  19.492  0.00  0.00    +0.000 A 
ATOM     16  C   UNL     1       3.430   4.589  19.985  0.00  0.00    +0.000 A 
ATOM     17  N   UNL     1       4.168   4.147  18.919  0.00  0.00    +0.000 N 
ATOM     18  H   UNL     1       5.067   3.683  18.996  0.00  0.00    +0.000 HD
ENDBRANCH  11  13
BRANCH   7  19
ATOM     19  O   UNL     1       5.482   2.528  11.464  0.00  0.00    +0.000 OA
ATOM     20  H   UNL     1       6.188   1.928  11.175  0.00  0.00    +0.000 HD
ENDBRANCH   7  19
TORSDOF 2
ENDMDL
MODEL 7
REMARK VINA RESULT:      -6.9      1.156      1.434
REMARK  Name = 
REMARK  2 active torsions:
REMARK  status: ('A' for Active; 'I' for Inactive)
REMARK    1  A    between atoms: C_7  and  O_8
REMARK    2  A    between atoms: C_12  and  C_13
REMARK                            x       y       z     vdW  Elec       q    Type
REMARK                         _______ _______ _______ _____ _____    ______ ____
ROOT
ATOM      1  O   UNL     1       6.980   4.433  17.998  0.00  0.00    +0.000 OA
ATOM      2  C   UNL     1       5.866   3.999  18.221  0.00  0.00    +0.000 C 
ATOM      3  N   UNL     1       5.377   3.626  19.461  0.00  0.00    +0.000 N 
ATOM      4  C   UNL     1       4.042   3.248  19.388  0.00  0.00    +0.000 A 
ATOM      5  C   UNL     1       3.240   2.848  20.437  0.00  0.00    +0.000 A 
ATOM      6  C   UNL     1       1.916   2.516  20.140  0.00  0.00    +0.000 A 
ATOM      7  C   UNL     1       1.449   2.595  18.818  0.00  0.00    +0.000 A 
ATOM      8  C   UNL     1       2.272   3.006  17.769  0.00  0.00    +0.000 A 
ATOM      9  C   UNL     1       3.581   3.333  18.070  0.00  0.00    +0.000 A 
ATOM     10  C   UNL     1       4.716   3.804  17.260  0.00  0.00    +0.000 C 
ATOM     11  C   UNL     1       4.657   3.971  15.928  0.00  0.00    +0.000 C 
ATOM     12  H   UNL     1       5.939   3.664  20.298  0.00  0.00    +0.000 HD
ENDROOT
BRANCH  11  13
ATOM     13  C   UNL     1       5.706   4.369  15.063  0.00  0.00    +0.000 A 
ATOM     14  C   UNL     1       6.164   3.826  13.874  0.00  0.00    +0.000 A 
ATOM     15  C   UNL     1       7.242   4.620  13.417  0.00  0.00    +0.000 A 
ATOM     16  C   UNL     1       7.401   5.646  14.314  0.00  0.00    +0.000 A 
ATOM     17  N   UNL     1       6.462   5.492  15.300  0.00  0.00    +0.000 N 
ATOM     18  H   UNL     1       6.398   6.075  16.127  0.00  0.00    +0.000 HD
ENDBRANCH  11  13
BRANCH   7  19
ATOM     19  O   UNL     1       0.160   2.271  18.507  0.00  0.00    +0.000 OA
ATOM     20  H   UNL     1       0.138   1.365  18.158  0.00  0.00    +0.000 HD
ENDBRANCH   7  19
TORSDOF 2
ENDMDL
MODEL 8
REMARK VINA RESULT:      -6.9      3.245      4.162
REMARK  Name = 
REMARK  2 active torsions:
REMARK  status: ('A' for Active; 'I' for Inactive)
REMARK    1  A    between atoms: C_7  and  O_8
REMARK    2  A    between atoms: C_12  and  C_13
REMARK                            x       y       z     vdW  Elec       q    Type
REMARK                         _______ _______ _______ _____ _____    ______ ____
ROOT
ATOM      1  O   UNL     1       4.730   4.556  16.251  0.00  0.00    +0.000 OA
ATOM      2  C   UNL     1       4.014   4.201  17.167  0.00  0.00    +0.000 C 
ATOM      3  N   UNL     1       2.867   3.436  17.048  0.00  0.00    +0.000 N 
ATOM      4  C   UNL     1       2.325   3.136  18.291  0.00  0.00    +0.000 A 
ATOM      5  C   UNL     1       1.203   2.371  18.539  0.00  0.00    +0.000 A 
ATOM      6  C   UNL     1       0.835   2.188  19.874  0.00  0.00    +0.000 A 
ATOM      7  C   UNL     1       1.594   2.770  20.901  0.00  0.00    +0.000 A 
ATOM      8  C   UNL     1       2.730   3.537  20.634  0.00  0.00    +0.000 A 
ATOM      9  C   UNL     1       3.088   3.714  19.311  0.00  0.00    +0.000 A 
ATOM     10  C   UNL     1       4.193   4.428  18.651  0.00  0.00    +0.000 C 
ATOM     11  C   UNL     1       5.117   5.140  19.317  0.00  0.00    +0.000 C 
ATOM     12  H   UNL     1       2.512   3.128  16.155  0.00  0.00    +0.000 HD
ENDROOT
BRANCH  11  13
ATOM     13  C   UNL     1       6.182   5.898  18.768  0.00  0.00    +0.000 A 
ATOM     14  C   UNL     1       7.532   5.930  19.073  0.00  0.00    +0.000 A 
ATOM     15  C   UNL     1       8.152   6.868  18.215  0.00  0.00    +0.000 A 
ATOM     16  C   UNL     1       7.180   7.365  17.384  0.00  0.00    +0.000 A 
ATOM     17  N   UNL     1       5.994   6.765  17.719  0.00  0.00    +0.000 N 
ATOM     18  H   UNL     1       5.097   6.998  17.307  0.00  0.00    +0.000 HD
ENDBRANCH  11  13
BRANCH   7  19
ATOM     19  O   UNL     1       1.248   2.606  22.211  0.00  0.00    +0.000 OA
ATOM     20  H   UNL     1       0.759   1.773  22.306  0.00  0.00    +0.000 HD
ENDBRANCH   7  19
TORSDOF 2
ENDMDL
MODEL 9
REMARK VINA RESULT:      -6.9      2.425      6.346
REMARK  Name = 
REMARK  2 active torsions:
REMARK  status: ('A' for Active; 'I' for Inactive)
REMARK    1  A    between atoms: C_7  and  O_8
REMARK    2  A    between atoms: C_12  and  C_13
REMARK                            x       y       z     vdW  Elec       q    Type
REMARK                         _______ _______ _______ _____ _____    ______ ____
ROOT
ATOM      1  O   UNL     1       3.076   6.273  19.537  0.00  0.00    +0.000 OA
ATOM      2  C   UNL     1       3.621   5.902  18.515  0.00  0.00    +0.000 C 
ATOM      3  N   UNL     1       4.226   6.720  17.577  0.00  0.00    +0.000 N 
ATOM      4  C   UNL     1       4.826   5.978  16.568  0.00  0.00    +0.000 A 
ATOM      5  C   UNL     1       5.538   6.472  15.494  0.00  0.00    +0.000 A 
ATOM      6  C   UNL     1       6.066   5.544  14.594  0.00  0.00    +0.000 A 
ATOM      7  C   UNL     1       5.866   4.170  14.800  0.00  0.00    +0.000 A 
ATOM      8  C   UNL     1       5.147   3.686  15.894  0.00  0.00    +0.000 A 
ATOM      9  C   UNL     1       4.627   4.610  16.780  0.00  0.00    +0.000 A 
ATOM     10  C   UNL     1       3.844   4.490  18.021  0.00  0.00    +0.000 C 
ATOM     11  C   UNL     1       3.429   3.316  18.524  0.00  0.00    +0.000 C 
ATOM     12  H   UNL     1       4.236   7.725  17.662  0.00  0.00    +0.000 HD
ENDROOT
BRANCH  11  13
ATOM     13  C   UNL     1       2.632   3.107  19.677  0.00  0.00    +0.000 A 
ATOM     14  C   UNL     1       1.264   3.199  19.870  0.00  0.00    +0.000 A 
ATOM     15  C   UNL     1       0.990   2.883  21.222  0.00  0.00    +0.000 A 
ATOM     16  C   UNL     1       2.187   2.576  21.818  0.00  0.00    +0.000 A 
ATOM     17  N   UNL     1       3.172   2.704  20.875  0.00  0.00    +0.000 N 
ATOM     18  H   UNL     1       4.164   2.601  21.063  0.00  0.00    +0.000 HD
ENDBRANCH  11  13
BRANCH   7  19
ATOM     19  O   UNL     1       6.370   3.247  13.930  0.00  0.00    +0.000 OA
ATOM     20  H   UNL     1       7.166   3.612  13.510  0.00  0.00    +0.000 HD
ENDBRANCH   7  19
TORSDOF 2
ENDMDL
