MODEL 1
REMARK VINA RESULT:      -8.1      0.000      0.000
REMARK  Name = 
REMARK  7 active torsions:
REMARK  status: ('A' for Active; 'I' for Inactive)
REMARK    1  A    between atoms: C_2  and  C_3
REMARK    2  A    between atoms: C_3  and  N_4
REMARK    3  A    between atoms: C_5  and  C_7
REMARK    4  A    between atoms: N_9  and  C_10
REMARK    5  A    between atoms: C_12  and  O_13
REMARK    6  A    between atoms: O_13  and  C_14
REMARK    7  A    between atoms: C_18  and  C_19
REMARK                            x       y       z     vdW  Elec       q    Type
REMARK                         _______ _______ _______ _____ _____    ______ ____
ROOT
ATOM      1  C   UNL     1       6.701   4.889  16.237  0.00  0.00    +0.000 A 
ATOM      2  C   UNL     1       7.684   5.104  17.197  0.00  0.00    +0.000 A 
ATOM      3  N   UNL     1       7.043   5.275  18.388  0.00  0.00    +0.000 N 
ATOM      4  C   UNL     1       7.608   5.616  19.669  0.00  0.00    +0.000 C 
ATOM      5  N   UNL     1       5.716   5.154  18.293  0.00  0.00    +0.000 NA
ATOM      6  C   UNL     1       5.517   4.862  17.005  0.00  0.00    +0.000 A 
ENDROOT
BRANCH   1   8
ATOM      7  N   UNL     1       6.283   3.706  14.182  0.00  0.00    +0.000 N 
ATOM      8  C   UNL     1       6.954   4.735  14.811  0.00  0.00    +0.000 C 
ATOM      9  O   UNL     1       7.703   5.487  14.202  0.00  0.00    +0.000 OA
ATOM     10  H   UNL     1       5.636   3.128  14.702  0.00  0.00    +0.000 HD
BRANCH   7  11
ATOM     11  C   UNL     1       6.415   3.517  12.757  0.00  0.00    +0.000 C 
BRANCH  11  13
ATOM     12  C   UNL     1       3.868   3.350  11.547  0.00  0.00    +0.000 C 
ATOM     13  C   UNL     1       5.044   3.427  12.105  0.00  0.00    +0.000 C 
ENDBRANCH  11  13
ENDBRANCH   7  11
ENDBRANCH   1   8
BRANCH   6  14
ATOM     14  O   UNL     1       4.247   4.625  16.591  0.00  0.00    +0.000 OA
BRANCH  14  15
ATOM     15  C   UNL     1       3.373   3.908  17.386  0.00  0.00    +0.000 A 
ATOM     16  C   UNL     1       3.049   2.613  16.985  0.00  0.00    +0.000 A 
ATOM     17  C   UNL     1       2.234   1.819  17.796  0.00  0.00    +0.000 A 
ATOM     18  C   UNL     1       1.748   2.316  19.008  0.00  0.00    +0.000 A 
ATOM     19  C   UNL     1       2.048   3.620  19.417  0.00  0.00    +0.000 A 
ATOM     20  C   UNL     1       2.869   4.407  18.596  0.00  0.00    +0.000 A 
BRANCH  19  21
ATOM     21  C   UNL     1       1.534   4.181  20.717  0.00  0.00    +0.000 C 
ATOM     22  F   UNL     1       0.923   3.251  21.503  0.00  0.00    +0.000 F 
ATOM     23  F   UNL     1       2.529   4.713  21.481  0.00  0.00    +0.000 F 
ATOM     24  F   UNL     1       0.622   5.178  20.546  0.00  0.00    +0.000 F 
ENDBRANCH  19  21
ENDBRANCH  14  15
ENDBRANCH   6  14
TORSDOF 6
ENDMDL
MODEL 2
REMARK VINA RESULT:      -8.0      1.744      4.188
REMARK  Name = 
REMARK  7 active torsions:
REMARK  status: ('A' for Active; 'I' for Inactive)
REMARK    1  A    between atoms: C_2  and  C_3
REMARK    2  A    between atoms: C_3  and  N_4
REMARK    3  A    between atoms: C_5  and  C_7
REMARK    4  A    between atoms: N_9  and  C_10
REMARK    5  A    between atoms: C_12  and  O_13
REMARK    6  A    between atoms: O_13  and  C_14
REMARK    7  A    between atoms: C_18  and  C_19
REMARK                            x       y       z     vdW  Elec       q    Type
REMARK                         _______ _______ _______ _____ _____    ______ ____
ROOT
ATOM      1  C   UNL     1       6.553   5.036  16.262  0.00  0.00    +0.000 A 
ATOM      2  C   UNL     1       7.125   4.653  15.054  0.00  0.00    +0.000 A 
ATOM      3  N   UNL     1       6.110   4.223  14.254  0.00  0.00    +0.000 N 
ATOM      4  C   UNL     1       6.191   3.640  12.938  0.00  0.00    +0.000 C 
ATOM      5  N   UNL     1       4.908   4.325  14.827  0.00  0.00    +0.000 NA
ATOM      6  C   UNL     1       5.172   4.871  16.018  0.00  0.00    +0.000 A 
ENDROOT
BRANCH   1   8
ATOM      7  N   UNL     1       7.587   6.837  17.481  0.00  0.00    +0.000 N 
ATOM      8  C   UNL     1       7.299   5.488  17.428  0.00  0.00    +0.000 C 
ATOM      9  O   UNL     1       7.635   4.718  18.319  0.00  0.00    +0.000 OA
ATOM     10  H   UNL     1       7.258   7.456  16.752  0.00  0.00    +0.000 HD
BRANCH   7  11
ATOM     11  C   UNL     1       8.262   7.391  18.630  0.00  0.00    +0.000 C 
BRANCH  11  13
ATOM     12  C   UNL     1       8.727  10.152  18.262  0.00  0.00    +0.000 C 
ATOM     13  C   UNL     1       8.512   8.877  18.431  0.00  0.00    +0.000 C 
ENDBRANCH  11  13
ENDBRANCH   7  11
ENDBRANCH   1   8
BRANCH   6  14
ATOM     14  O   UNL     1       4.130   5.154  16.839  0.00  0.00    +0.000 OA
BRANCH  14  15
ATOM     15  C   UNL     1       3.598   4.176  17.658  0.00  0.00    +0.000 A 
ATOM     16  C   UNL     1       3.893   2.849  17.353  0.00  0.00    +0.000 A 
ATOM     17  C   UNL     1       3.446   1.828  18.197  0.00  0.00    +0.000 A 
ATOM     18  C   UNL     1       2.712   2.133  19.345  0.00  0.00    +0.000 A 
ATOM     19  C   UNL     1       2.392   3.459  19.656  0.00  0.00    +0.000 A 
ATOM     20  C   UNL     1       2.847   4.475  18.804  0.00  0.00    +0.000 A 
BRANCH  19  21
ATOM     21  C   UNL     1       1.598   3.815  20.887  0.00  0.00    +0.000 C 
ATOM     22  F   UNL     1       2.370   3.986  21.997  0.00  0.00    +0.000 F 
ATOM     23  F   UNL     1       0.905   4.978  20.736  0.00  0.00    +0.000 F 
ATOM     24  F   UNL     1       0.675   2.871  21.219  0.00  0.00    +0.000 F 
ENDBRANCH  19  21
ENDBRANCH  14  15
ENDBRANCH   6  14
TORSDOF 6
ENDMDL
MODEL 3
REMARK VINA RESULT:      -8.0      3.388      4.830
REMARK  Name = 
REMARK  7 active torsions:
REMARK  status: ('A' for Active; 'I' for Inactive)
REMARK    1  A    between atoms: C_2  and  C_3
REMARK    2  A    between atoms: C_3  and  N_4
REMARK    3  A    between atoms: C_5  and  C_7
REMARK    4  A    between atoms: N_9  and  C_10
REMARK    5  A    between atoms: C_12  and  O_13
REMARK    6  A    between atoms: O_13  and  C_14
REMARK    7  A    between atoms: C_18  and  C_19
REMARK                            x       y       z     vdW  Elec       q    Type
REMARK                         _______ _______ _______ _____ _____    ______ ____
ROOT
ATOM      1  C   UNL     1       3.516   4.489  17.563  0.00  0.00    +0.000 A 
ATOM      2  C   UNL     1       2.691   3.391  17.340  0.00  0.00    +0.000 A 
ATOM      3  N   UNL     1       1.820   3.332  18.386  0.00  0.00    +0.000 N 
ATOM      4  C   UNL     1       0.827   2.326  18.671  0.00  0.00    +0.000 C 
ATOM      5  N   UNL     1       1.983   4.325  19.264  0.00  0.00    +0.000 NA
ATOM      6  C   UNL     1       2.968   5.056  18.734  0.00  0.00    +0.000 A 
ENDROOT
BRANCH   1   8
ATOM      7  N   UNL     1       5.504   3.852  16.364  0.00  0.00    +0.000 N 
ATOM      8  C   UNL     1       4.639   4.868  16.717  0.00  0.00    +0.000 C 
ATOM      9  O   UNL     1       4.795   6.017  16.326  0.00  0.00    +0.000 OA
ATOM     10  H   UNL     1       5.326   2.904  16.665  0.00  0.00    +0.000 HD
BRANCH   7  11
ATOM     11  C   UNL     1       6.609   4.116  15.472  0.00  0.00    +0.000 C 
BRANCH  11  13
ATOM     12  C   UNL     1       5.860   3.594  12.799  0.00  0.00    +0.000 C 
ATOM     13  C   UNL     1       6.206   3.835  14.034  0.00  0.00    +0.000 C 
ENDBRANCH  11  13
ENDBRANCH   7  11
ENDBRANCH   1   8
BRANCH   6  14
ATOM     14  O   UNL     1       3.343   6.190  19.377  0.00  0.00    +0.000 OA
BRANCH  14  15
ATOM     15  C   UNL     1       2.533   7.310  19.352  0.00  0.00    +0.000 A 
ATOM     16  C   UNL     1       2.435   8.009  18.151  0.00  0.00    +0.000 A 
ATOM     17  C   UNL     1       1.567   9.100  18.052  0.00  0.00    +0.000 A 
ATOM     18  C   UNL     1       0.796   9.489  19.150  0.00  0.00    +0.000 A 
ATOM     19  C   UNL     1       0.896   8.809  20.369  0.00  0.00    +0.000 A 
ATOM     20  C   UNL     1       1.768   7.715  20.456  0.00  0.00    +0.000 A 
BRANCH  19  21
ATOM     21  C   UNL     1       0.077   9.210  21.569  0.00  0.00    +0.000 C 
ATOM     22  F   UNL     1      -0.648  10.347  21.373  0.00  0.00    +0.000 F 
ATOM     23  F   UNL     1      -0.825   8.253  21.922  0.00  0.00    +0.000 F 
ATOM     24  F   UNL     1       0.832   9.439  22.678  0.00  0.00    +0.000 F 
ENDBRANCH  19  21
ENDBRANCH  14  15
ENDBRANCH   6  14
TORSDOF 6
ENDMDL
MODEL 4
REMARK VINA RESULT:      -7.9      3.359      5.302
REMARK  Name = 
REMARK  7 active torsions:
REMARK  status: ('A' for Active; 'I' for Inactive)
REMARK    1  A    between atoms: C_2  and  C_3
REMARK    2  A    between atoms: C_3  and  N_4
REMARK    3  A    between atoms: C_5  and  C_7
REMARK    4  A    between atoms: N_9  and  C_10
REMARK    5  A    between atoms: C_12  and  O_13
REMARK    6  A    between atoms: O_13  and  C_14
REMARK    7  A    between atoms: C_18  and  C_19
REMARK                            x       y       z     vdW  Elec       q    Type
REMARK                         _______ _______ _______ _____ _____    ______ ____
ROOT
ATOM      1  C   UNL     1       3.704   4.152  17.789  0.00  0.00    +0.000 A 
ATOM      2  C   UNL     1       2.840   3.099  17.511  0.00  0.00    +0.000 A 
ATOM      3  N   UNL     1       1.853   3.138  18.449  0.00  0.00    +0.000 N 
ATOM      4  C   UNL     1       0.769   2.208  18.650  0.00  0.00    +0.000 C 
ATOM      5  N   UNL     1       1.979   4.157  19.304  0.00  0.00    +0.000 NA
ATOM      6  C   UNL     1       3.064   4.802  18.867  0.00  0.00    +0.000 A 
ENDROOT
BRANCH   1   8
ATOM      7  N   UNL     1       5.744   5.416  17.594  0.00  0.00    +0.000 N 
ATOM      8  C   UNL     1       4.940   4.425  17.069  0.00  0.00    +0.000 C 
ATOM      9  O   UNL     1       5.255   3.799  16.066  0.00  0.00    +0.000 OA
ATOM     10  H   UNL     1       5.479   5.887  18.449  0.00  0.00    +0.000 HD
BRANCH   7  11
ATOM     11  C   UNL     1       7.022   5.711  16.990  0.00  0.00    +0.000 C 
BRANCH  11  13
ATOM     12  C   UNL     1       7.866   8.313  17.696  0.00  0.00    +0.000 C 
ATOM     13  C   UNL     1       7.476   7.111  17.369  0.00  0.00    +0.000 C 
ENDBRANCH  11  13
ENDBRANCH   7  11
ENDBRANCH   1   8
BRANCH   6  14
ATOM     14  O   UNL     1       3.436   5.937  19.509  0.00  0.00    +0.000 OA
BRANCH  14  15
ATOM     15  C   UNL     1       2.683   7.090  19.388  0.00  0.00    +0.000 A 
ATOM     16  C   UNL     1       2.663   7.722  18.147  0.00  0.00    +0.000 A 
ATOM     17  C   UNL     1       1.854   8.844  17.952  0.00  0.00    +0.000 A 
ATOM     18  C   UNL     1       1.060   9.330  18.993  0.00  0.00    +0.000 A 
ATOM     19  C   UNL     1       1.081   8.718  20.252  0.00  0.00    +0.000 A 
ATOM     20  C   UNL     1       1.896   7.592  20.436  0.00  0.00    +0.000 A 
BRANCH  19  21
ATOM     21  C   UNL     1       0.238   9.225  21.393  0.00  0.00    +0.000 C 
ATOM     22  F   UNL     1      -0.772   8.377  21.737  0.00  0.00    +0.000 F 
ATOM     23  F   UNL     1       0.965   9.414  22.529  0.00  0.00    +0.000 F 
ATOM     24  F   UNL     1      -0.357  10.421  21.128  0.00  0.00    +0.000 F 
ENDBRANCH  19  21
ENDBRANCH  14  15
ENDBRANCH   6  14
TORSDOF 6
ENDMDL
MODEL 5
REMARK VINA RESULT:      -7.9      2.405      4.644
REMARK  Name = 
REMARK  7 active torsions:
REMARK  status: ('A' for Active; 'I' for Inactive)
REMARK    1  A    between atoms: C_2  and  C_3
REMARK    2  A    between atoms: C_3  and  N_4
REMARK    3  A    between atoms: C_5  and  C_7
REMARK    4  A    between atoms: N_9  and  C_10
REMARK    5  A    between atoms: C_12  and  O_13
REMARK    6  A    between atoms: O_13  and  C_14
REMARK    7  A    between atoms: C_18  and  C_19
REMARK                            x       y       z     vdW  Elec       q    Type
REMARK                         _______ _______ _______ _____ _____    ______ ____
ROOT
ATOM      1  C   UNL     1       6.824   4.650  16.080  0.00  0.00    +0.000 A 
ATOM      2  C   UNL     1       7.256   4.965  14.796  0.00  0.00    +0.000 A 
ATOM      3  N   UNL     1       6.527   4.201  13.935  0.00  0.00    +0.000 N 
ATOM      4  C   UNL     1       6.658   4.090  12.503  0.00  0.00    +0.000 C 
ATOM      5  N   UNL     1       5.623   3.432  14.548  0.00  0.00    +0.000 NA
ATOM      6  C   UNL     1       5.764   3.749  15.839  0.00  0.00    +0.000 A 
ENDROOT
BRANCH   1   8
ATOM      7  N   UNL     1       7.619   6.551  17.324  0.00  0.00    +0.000 N 
ATOM      8  C   UNL     1       7.398   5.189  17.304  0.00  0.00    +0.000 C 
ATOM      9  O   UNL     1       7.653   4.478  18.267  0.00  0.00    +0.000 OA
ATOM     10  H   UNL     1       7.358   7.121  16.530  0.00  0.00    +0.000 HD
BRANCH   7  11
ATOM     11  C   UNL     1       8.122   7.188  18.518  0.00  0.00    +0.000 C 
BRANCH  11  13
ATOM     12  C   UNL     1       8.586   9.934  18.047  0.00  0.00    +0.000 C 
ATOM     13  C   UNL     1       8.372   8.666  18.265  0.00  0.00    +0.000 C 
ENDBRANCH  11  13
ENDBRANCH   7  11
ENDBRANCH   1   8
BRANCH   6  14
ATOM     14  O   UNL     1       4.935   3.160  16.737  0.00  0.00    +0.000 OA
BRANCH  14  15
ATOM     15  C   UNL     1       3.798   3.814  17.174  0.00  0.00    +0.000 A 
ATOM     16  C   UNL     1       2.668   3.041  17.431  0.00  0.00    +0.000 A 
ATOM     17  C   UNL     1       1.519   3.644  17.950  0.00  0.00    +0.000 A 
ATOM     18  C   UNL     1       1.502   5.014  18.220  0.00  0.00    +0.000 A 
ATOM     19  C   UNL     1       2.623   5.808  17.951  0.00  0.00    +0.000 A 
ATOM     20  C   UNL     1       3.770   5.192  17.432  0.00  0.00    +0.000 A 
BRANCH  19  21
ATOM     21  C   UNL     1       2.629   7.289  18.230  0.00  0.00    +0.000 C 
ATOM     22  F   UNL     1       1.610   7.958  17.622  0.00  0.00    +0.000 F 
ATOM     23  F   UNL     1       2.512   7.566  19.559  0.00  0.00    +0.000 F 
ATOM     24  F   UNL     1       3.773   7.904  17.820  0.00  0.00    +0.000 F 
ENDBRANCH  19  21
ENDBRANCH  14  15
ENDBRANCH   6  14
TORSDOF 6
ENDMDL
MODEL 6
REMARK VINA RESULT:      -7.9      3.767      6.428
REMARK  Name = 
REMARK  7 active torsions:
REMARK  status: ('A' for Active; 'I' for Inactive)
REMARK    1  A    between atoms: C_2  and  C_3
REMARK    2  A    between atoms: C_3  and  N_4
REMARK    3  A    between atoms: C_5  and  C_7
REMARK    4  A    between atoms: N_9  and  C_10
REMARK    5  A    between atoms: C_12  and  O_13
REMARK    6  A    between atoms: O_13  and  C_14
REMARK    7  A    between atoms: C_18  and  C_19
REMARK                            x       y       z     vdW  Elec       q    Type
REMARK                         _______ _______ _______ _____ _____    ______ ____
ROOT
ATOM      1  C   UNL     1       2.195   5.791  19.665  0.00  0.00    +0.000 A 
ATOM      2  C   UNL     1       1.834   5.124  20.831  0.00  0.00    +0.000 A 
ATOM      3  N   UNL     1       1.925   3.791  20.568  0.00  0.00    +0.000 N 
ATOM      4  C   UNL     1       1.570   2.682  21.419  0.00  0.00    +0.000 C 
ATOM      5  N   UNL     1       2.351   3.526  19.330  0.00  0.00    +0.000 NA
ATOM      6  C   UNL     1       2.571   4.735  18.806  0.00  0.00    +0.000 A 
ENDROOT
BRANCH   1   8
ATOM      7  N   UNL     1       2.327   7.698  18.201  0.00  0.00    +0.000 N 
ATOM      8  C   UNL     1       2.160   7.237  19.491  0.00  0.00    +0.000 C 
ATOM      9  O   UNL     1       1.974   7.997  20.432  0.00  0.00    +0.000 OA
ATOM     10  H   UNL     1       2.435   7.045  17.437  0.00  0.00    +0.000 HD
BRANCH   7  11
ATOM     11  C   UNL     1       2.240   9.111  17.918  0.00  0.00    +0.000 C 
BRANCH  11  13
ATOM     12  C   UNL     1      -0.444   9.979  18.061  0.00  0.00    +0.000 C 
ATOM     13  C   UNL     1       0.795   9.578  17.995  0.00  0.00    +0.000 C 
ENDBRANCH  11  13
ENDBRANCH   7  11
ENDBRANCH   1   8
BRANCH   6  14
ATOM     14  O   UNL     1       3.068   4.808  17.546  0.00  0.00    +0.000 OA
BRANCH  14  15
ATOM     15  C   UNL     1       4.427   4.696  17.322  0.00  0.00    +0.000 A 
ATOM     16  C   UNL     1       4.839   4.151  16.108  0.00  0.00    +0.000 A 
ATOM     17  C   UNL     1       6.201   4.091  15.800  0.00  0.00    +0.000 A 
ATOM     18  C   UNL     1       7.149   4.581  16.702  0.00  0.00    +0.000 A 
ATOM     19  C   UNL     1       6.754   5.115  17.933  0.00  0.00    +0.000 A 
ATOM     20  C   UNL     1       5.385   5.172  18.230  0.00  0.00    +0.000 A 
BRANCH  19  21
ATOM     21  C   UNL     1       7.757   5.647  18.924  0.00  0.00    +0.000 C 
ATOM     22  F   UNL     1       8.846   4.843  19.076  0.00  0.00    +0.000 F 
ATOM     23  F   UNL     1       8.246   6.866  18.561  0.00  0.00    +0.000 F 
ATOM     24  F   UNL     1       7.239   5.810  20.173  0.00  0.00    +0.000 F 
ENDBRANCH  19  21
ENDBRANCH  14  15
ENDBRANCH   6  14
TORSDOF 6
ENDMDL
MODEL 7
REMARK VINA RESULT:      -7.9      2.610      4.795
REMARK  Name = 
REMARK  7 active torsions:
REMARK  status: ('A' for Active; 'I' for Inactive)
REMARK    1  A    between atoms: C_2  and  C_3
REMARK    2  A    between atoms: C_3  and  N_4
REMARK    3  A    between atoms: C_5  and  C_7
REMARK    4  A    between atoms: N_9  and  C_10
REMARK    5  A    between atoms: C_12  and  O_13
REMARK    6  A    between atoms: O_13  and  C_14
REMARK    7  A    between atoms: C_18  and  C_19
REMARK                            x       y       z     vdW  Elec       q    Type
REMARK                         _______ _______ _______ _____ _____    ______ ____
ROOT
ATOM      1  C   UNL     1       6.662   5.760  16.462  0.00  0.00    +0.000 A 
ATOM      2  C   UNL     1       7.207   5.010  15.425  0.00  0.00    +0.000 A 
ATOM      3  N   UNL     1       6.171   4.624  14.629  0.00  0.00    +0.000 N 
ATOM      4  C   UNL     1       6.199   3.757  13.478  0.00  0.00    +0.000 C 
ATOM      5  N   UNL     1       4.989   5.091  15.040  0.00  0.00    +0.000 NA
ATOM      6  C   UNL     1       5.296   5.826  16.113  0.00  0.00    +0.000 A 
ENDROOT
BRANCH   1   8
ATOM      7  N   UNL     1       7.740   7.643  17.506  0.00  0.00    +0.000 N 
ATOM      8  C   UNL     1       7.420   6.303  17.581  0.00  0.00    +0.000 C 
ATOM      9  O   UNL     1       7.737   5.614  18.541  0.00  0.00    +0.000 OA
ATOM     10  H   UNL     1       7.426   8.198  16.721  0.00  0.00    +0.000 HD
BRANCH   7  11
ATOM     11  C   UNL     1       8.429   8.287  18.599  0.00  0.00    +0.000 C 
BRANCH  11  13
ATOM     12  C   UNL     1       8.909  11.005  17.995  0.00  0.00    +0.000 C 
ATOM     13  C   UNL     1       8.687   9.750  18.273  0.00  0.00    +0.000 C 
ENDBRANCH  11  13
ENDBRANCH   7  11
ENDBRANCH   1   8
BRANCH   6  14
ATOM     14  O   UNL     1       4.294   6.488  16.744  0.00  0.00    +0.000 OA
BRANCH  14  15
ATOM     15  C   UNL     1       3.547   5.860  17.723  0.00  0.00    +0.000 A 
ATOM     16  C   UNL     1       3.125   6.628  18.806  0.00  0.00    +0.000 A 
ATOM     17  C   UNL     1       2.301   6.060  19.781  0.00  0.00    +0.000 A 
ATOM     18  C   UNL     1       1.893   4.728  19.670  0.00  0.00    +0.000 A 
ATOM     19  C   UNL     1       2.322   3.938  18.598  0.00  0.00    +0.000 A 
ATOM     20  C   UNL     1       3.147   4.519  17.625  0.00  0.00    +0.000 A 
BRANCH  19  21
ATOM     21  C   UNL     1       1.899   2.498  18.457  0.00  0.00    +0.000 C 
ATOM     22  F   UNL     1       0.549   2.324  18.510  0.00  0.00    +0.000 F 
ATOM     23  F   UNL     1       2.294   1.957  17.271  0.00  0.00    +0.000 F 
ATOM     24  F   UNL     1       2.415   1.692  19.425  0.00  0.00    +0.000 F 
ENDBRANCH  19  21
ENDBRANCH  14  15
ENDBRANCH   6  14
TORSDOF 6
ENDMDL
MODEL 8
REMARK VINA RESULT:      -7.8      1.615      1.928
REMARK  Name = 
REMARK  7 active torsions:
REMARK  status: ('A' for Active; 'I' for Inactive)
REMARK    1  A    between atoms: C_2  and  C_3
REMARK    2  A    between atoms: C_3  and  N_4
REMARK    3  A    between atoms: C_5  and  C_7
REMARK    4  A    between atoms: N_9  and  C_10
REMARK    5  A    between atoms: C_12  and  O_13
REMARK    6  A    between atoms: O_13  and  C_14
REMARK    7  A    between atoms: C_18  and  C_19
REMARK                            x       y       z     vdW  Elec       q    Type
REMARK                         _______ _______ _______ _____ _____    ______ ____
ROOT
ATOM      1  C   UNL     1       6.226   5.321  15.961  0.00  0.00    +0.000 A 
ATOM      2  C   UNL     1       7.342   6.113  16.206  0.00  0.00    +0.000 A 
ATOM      3  N   UNL     1       6.962   7.067  17.101  0.00  0.00    +0.000 N 
ATOM      4  C   UNL     1       7.727   8.180  17.605  0.00  0.00    +0.000 C 
ATOM      5  N   UNL     1       5.691   6.945  17.493  0.00  0.00    +0.000 NA
ATOM      6  C   UNL     1       5.266   5.854  16.849  0.00  0.00    +0.000 A 
ENDROOT
BRANCH   1   8
ATOM      7  N   UNL     1       6.519   4.542  13.702  0.00  0.00    +0.000 N 
ATOM      8  C   UNL     1       6.179   4.227  15.002  0.00  0.00    +0.000 C 
ATOM      9  O   UNL     1       5.874   3.089  15.333  0.00  0.00    +0.000 OA
ATOM     10  H   UNL     1       6.810   5.482  13.466  0.00  0.00    +0.000 HD
BRANCH   7  11
ATOM     11  C   UNL     1       6.569   3.511  12.693  0.00  0.00    +0.000 C 
BRANCH  11  13
ATOM     12  C   UNL     1       4.081   3.305  11.372  0.00  0.00    +0.000 C 
ATOM     13  C   UNL     1       5.230   3.400  11.982  0.00  0.00    +0.000 C 
ENDBRANCH  11  13
ENDBRANCH   7  11
ENDBRANCH   1   8
BRANCH   6  14
ATOM     14  O   UNL     1       3.999   5.427  17.078  0.00  0.00    +0.000 OA
BRANCH  14  15
ATOM     15  C   UNL     1       3.740   4.506  18.076  0.00  0.00    +0.000 A 
ATOM     16  C   UNL     1       4.816   3.774  18.574  0.00  0.00    +0.000 A 
ATOM     17  C   UNL     1       4.620   2.889  19.637  0.00  0.00    +0.000 A 
ATOM     18  C   UNL     1       3.353   2.740  20.207  0.00  0.00    +0.000 A 
ATOM     19  C   UNL     1       2.258   3.454  19.707  0.00  0.00    +0.000 A 
ATOM     20  C   UNL     1       2.467   4.341  18.641  0.00  0.00    +0.000 A 
BRANCH  19  21
ATOM     21  C   UNL     1       0.881   3.310  20.301  0.00  0.00    +0.000 C 
ATOM     22  F   UNL     1       0.256   4.502  20.513  0.00  0.00    +0.000 F 
ATOM     23  F   UNL     1       0.045   2.592  19.500  0.00  0.00    +0.000 F 
ATOM     24  F   UNL     1       0.882   2.673  21.504  0.00  0.00    +0.000 F 
ENDBRANCH  19  21
ENDBRANCH  14  15
ENDBRANCH   6  14
TORSDOF 6
ENDMDL
MODEL 9
REMARK VINA RESULT:      -7.7      1.009      1.134
REMARK  Name = 
REMARK  7 active torsions:
REMARK  status: ('A' for Active; 'I' for Inactive)
REMARK    1  A    between atoms: C_2  and  C_3
REMARK    2  A    between atoms: C_3  and  N_4
REMARK    3  A    between atoms: C_5  and  C_7
REMARK    4  A    between atoms: N_9  and  C_10
REMARK    5  A    between atoms: C_12  and  O_13
REMARK    6  A    between atoms: O_13  and  C_14
REMARK    7  A    between atoms: C_18  and  C_19
REMARK                            x       y       z     vdW  Elec       q    Type
REMARK                         _______ _______ _______ _____ _____    ______ ____
ROOT
ATOM      1  C   UNL     1       6.656   4.581  15.707  0.00  0.00    +0.000 A 
ATOM      2  C   UNL     1       7.718   4.910  16.543  0.00  0.00    +0.000 A 
ATOM      3  N   UNL     1       7.239   4.887  17.818  0.00  0.00    +0.000 N 
ATOM      4  C   UNL     1       7.919   5.244  19.038  0.00  0.00    +0.000 C 
ATOM      5  N   UNL     1       5.953   4.535  17.891  0.00  0.00    +0.000 NA
ATOM      6  C   UNL     1       5.619   4.292  16.620  0.00  0.00    +0.000 A 
ENDROOT
BRANCH   1   8
ATOM      7  N   UNL     1       6.022   3.552  13.624  0.00  0.00    +0.000 N 
ATOM      8  C   UNL     1       6.719   4.565  14.252  0.00  0.00    +0.000 C 
ATOM      9  O   UNL     1       7.339   5.412  13.622  0.00  0.00    +0.000 OA
ATOM     10  H   UNL     1       5.483   2.892  14.169  0.00  0.00    +0.000 HD
BRANCH   7  11
ATOM     11  C   UNL     1       5.968   3.493  12.183  0.00  0.00    +0.000 C 
BRANCH  11  13
ATOM     12  C   UNL     1       6.180   0.819  11.300  0.00  0.00    +0.000 C 
ATOM     13  C   UNL     1       6.082   2.054  11.707  0.00  0.00    +0.000 C 
ENDBRANCH  11  13
ENDBRANCH   7  11
ENDBRANCH   1   8
BRANCH   6  14
ATOM     14  O   UNL     1       4.361   3.857  16.360  0.00  0.00    +0.000 OA
BRANCH  14  15
ATOM     15  C   UNL     1       3.531   3.456  17.390  0.00  0.00    +0.000 A 
ATOM     16  C   UNL     1       3.289   2.091  17.529  0.00  0.00    +0.000 A 
ATOM     17  C   UNL     1       2.522   1.628  18.602  0.00  0.00    +0.000 A 
ATOM     18  C   UNL     1       2.004   2.528  19.538  0.00  0.00    +0.000 A 
ATOM     19  C   UNL     1       2.223   3.903  19.403  0.00  0.00    +0.000 A 
ATOM     20  C   UNL     1       2.996   4.355  18.323  0.00  0.00    +0.000 A 
BRANCH  19  21
ATOM     21  C   UNL     1       1.673   4.894  20.396  0.00  0.00    +0.000 C 
ATOM     22  F   UNL     1       0.339   4.745  20.626  0.00  0.00    +0.000 F 
ATOM     23  F   UNL     1       2.272   4.789  21.616  0.00  0.00    +0.000 F 
ATOM     24  F   UNL     1       1.841   6.188  20.008  0.00  0.00    +0.000 F 
ENDBRANCH  19  21
ENDBRANCH  14  15
ENDBRANCH   6  14
TORSDOF 6
ENDMDL
