MODEL 1
REMARK VINA RESULT:      -8.3      0.000      0.000
REMARK  Name = 
REMARK  7 active torsions:
REMARK  status: ('A' for Active; 'I' for Inactive)
REMARK    1  A    between atoms: C_2  and  O_3
REMARK    2  A    between atoms: C_2  and  C_4
REMARK    3  A    between atoms: C_4  and  O_5
REMARK    4  A    between atoms: C_6  and  C_7
REMARK    5  A    between atoms: C_7  and  C_9
REMARK    6  A    between atoms: N_11  and  C_12
REMARK    7  A    between atoms: C_12  and  C_13
REMARK                            x       y       z     vdW  Elec       q    Type
REMARK                         _______ _______ _______ _____ _____    ______ ____
ROOT
ATOM      1  C   UNL     1       6.192   5.337  15.675  0.00  0.00    +0.000 A 
ATOM      2  C   UNL     1       4.987   6.016  15.777  0.00  0.00    +0.000 A 
ATOM      3  N   UNL     1       4.711   6.252  17.096  0.00  0.00    +0.000 N 
ATOM      4  C   UNL     1       5.765   5.818  17.876  0.00  0.00    +0.000 A 
ATOM      5  C   UNL     1       5.970   5.896  19.263  0.00  0.00    +0.000 A 
ATOM      6  C   UNL     1       7.168   5.404  19.785  0.00  0.00    +0.000 A 
ATOM      7  C   UNL     1       8.131   4.849  18.955  0.00  0.00    +0.000 A 
ATOM      8  C   UNL     1       7.918   4.766  17.574  0.00  0.00    +0.000 A 
ATOM      9  C   UNL     1       6.713   5.248  17.010  0.00  0.00    +0.000 A 
ENDROOT
BRANCH   1  10
ATOM     10  C   UNL     1       6.723   4.905  14.384  0.00  0.00    +0.000 C 
ATOM     11  O   UNL     1       7.697   5.452  13.876  0.00  0.00    +0.000 OA
BRANCH  10  13
ATOM     12  C   UNL     1       6.176   3.474  12.426  0.00  0.00    +0.000 C 
ATOM     13  C   UNL     1       5.902   3.878  13.678  0.00  0.00    +0.000 C 
BRANCH  12  15
ATOM     14  O   UNL     1       4.255   2.836  11.241  0.00  0.00    +0.000 OA
ATOM     15  C   UNL     1       5.362   2.500  11.643  0.00  0.00    +0.000 C 
BRANCH  15  16
ATOM     16  O   UNL     1       5.872   1.281  11.401  0.00  0.00    +0.000 OA
ATOM     17  H   UNL     1       5.992   0.681  12.152  0.00  0.00    +0.000 HD
ENDBRANCH  15  16
ENDBRANCH  12  15
BRANCH  12  18
ATOM     18  O   UNL     1       7.289   3.952  11.748  0.00  0.00    +0.000 OA
ATOM     19  H   UNL     1       6.976   4.708  11.204  0.00  0.00    +0.000 HD
ENDBRANCH  12  18
ENDBRANCH  10  13
ENDBRANCH   1  10
BRANCH   3  20
ATOM     20  C   UNL     1       3.462   6.846  17.581  0.00  0.00    +0.000 C 
BRANCH  20  21
ATOM     21  C   UNL     1       2.636   5.860  18.371  0.00  0.00    +0.000 A 
ATOM     22  C   UNL     1       2.377   6.073  19.736  0.00  0.00    +0.000 A 
ATOM     23  C   UNL     1       1.724   5.102  20.495  0.00  0.00    +0.000 A 
ATOM     24  C   UNL     1       1.289   3.935  19.883  0.00  0.00    +0.000 A 
ATOM     25  F   UNL     1       0.698   2.985  20.619  0.00  0.00    +0.000 F 
ATOM     26  C   UNL     1       1.464   3.735  18.519  0.00  0.00    +0.000 A 
ATOM     27  C   UNL     1       2.136   4.696  17.762  0.00  0.00    +0.000 A 
ENDBRANCH  20  21
ENDBRANCH   3  20
TORSDOF 7
ENDMDL
MODEL 2
REMARK VINA RESULT:      -8.1      5.219      8.237
REMARK  Name = 
REMARK  7 active torsions:
REMARK  status: ('A' for Active; 'I' for Inactive)
REMARK    1  A    between atoms: C_2  and  O_3
REMARK    2  A    between atoms: C_2  and  C_4
REMARK    3  A    between atoms: C_4  and  O_5
REMARK    4  A    between atoms: C_6  and  C_7
REMARK    5  A    between atoms: C_7  and  C_9
REMARK    6  A    between atoms: N_11  and  C_12
REMARK    7  A    between atoms: C_12  and  C_13
REMARK                            x       y       z     vdW  Elec       q    Type
REMARK                         _______ _______ _______ _____ _____    ______ ____
ROOT
ATOM      1  C   UNL     1       2.743   6.425  19.553  0.00  0.00    +0.000 A 
ATOM      2  C   UNL     1       3.995   6.283  18.977  0.00  0.00    +0.000 A 
ATOM      3  N   UNL     1       4.405   4.982  19.101  0.00  0.00    +0.000 N 
ATOM      4  C   UNL     1       3.399   4.231  19.675  0.00  0.00    +0.000 A 
ATOM      5  C   UNL     1       3.326   2.856  19.947  0.00  0.00    +0.000 A 
ATOM      6  C   UNL     1       2.149   2.351  20.503  0.00  0.00    +0.000 A 
ATOM      7  C   UNL     1       1.078   3.189  20.784  0.00  0.00    +0.000 A 
ATOM      8  C   UNL     1       1.159   4.560  20.518  0.00  0.00    +0.000 A 
ATOM      9  C   UNL     1       2.339   5.108  19.960  0.00  0.00    +0.000 A 
ENDROOT
BRANCH   1  10
ATOM     10  C   UNL     1       2.068   7.720  19.615  0.00  0.00    +0.000 C 
ATOM     11  O   UNL     1       2.132   8.520  18.687  0.00  0.00    +0.000 OA
BRANCH  10  13
ATOM     12  C   UNL     1       0.577   9.055  21.089  0.00  0.00    +0.000 C 
ATOM     13  C   UNL     1       1.449   8.045  20.933  0.00  0.00    +0.000 C 
BRANCH  12  15
ATOM     14  O   UNL     1       0.209  10.589  22.826  0.00  0.00    +0.000 OA
ATOM     15  C   UNL     1      -0.028   9.471  22.387  0.00  0.00    +0.000 C 
BRANCH  15  16
ATOM     16  O   UNL     1      -0.820   8.601  23.037  0.00  0.00    +0.000 OA
ATOM     17  H   UNL     1      -1.757   8.567  22.790  0.00  0.00    +0.000 HD
ENDBRANCH  15  16
ENDBRANCH  12  15
BRANCH  12  18
ATOM     18  O   UNL     1       0.158   9.812  20.003  0.00  0.00    +0.000 OA
ATOM     19  H   UNL     1      -0.818   9.712  19.959  0.00  0.00    +0.000 HD
ENDBRANCH  12  18
ENDBRANCH  10  13
ENDBRANCH   1  10
BRANCH   3  20
ATOM     20  C   UNL     1       5.731   4.498  18.707  0.00  0.00    +0.000 C 
BRANCH  20  21
ATOM     21  C   UNL     1       5.924   4.535  17.210  0.00  0.00    +0.000 A 
ATOM     22  C   UNL     1       4.889   4.143  16.343  0.00  0.00    +0.000 A 
ATOM     23  C   UNL     1       5.108   4.056  14.969  0.00  0.00    +0.000 A 
ATOM     24  C   UNL     1       6.348   4.402  14.450  0.00  0.00    +0.000 A 
ATOM     25  F   UNL     1       6.572   4.280  13.136  0.00  0.00    +0.000 F 
ATOM     26  C   UNL     1       7.363   4.867  15.278  0.00  0.00    +0.000 A 
ATOM     27  C   UNL     1       7.153   4.935  16.657  0.00  0.00    +0.000 A 
ENDBRANCH  20  21
ENDBRANCH   3  20
TORSDOF 7
ENDMDL
MODEL 3
REMARK VINA RESULT:      -8.1      2.873      4.731
REMARK  Name = 
REMARK  7 active torsions:
REMARK  status: ('A' for Active; 'I' for Inactive)
REMARK    1  A    between atoms: C_2  and  O_3
REMARK    2  A    between atoms: C_2  and  C_4
REMARK    3  A    between atoms: C_4  and  O_5
REMARK    4  A    between atoms: C_6  and  C_7
REMARK    5  A    between atoms: C_7  and  C_9
REMARK    6  A    between atoms: N_11  and  C_12
REMARK    7  A    between atoms: C_12  and  C_13
REMARK                            x       y       z     vdW  Elec       q    Type
REMARK                         _______ _______ _______ _____ _____    ______ ____
ROOT
ATOM      1  C   UNL     1       4.748   4.619  18.778  0.00  0.00    +0.000 A 
ATOM      2  C   UNL     1       4.269   5.574  19.662  0.00  0.00    +0.000 A 
ATOM      3  N   UNL     1       2.941   5.342  19.902  0.00  0.00    +0.000 N 
ATOM      4  C   UNL     1       2.547   4.186  19.258  0.00  0.00    +0.000 A 
ATOM      5  C   UNL     1       1.314   3.517  19.253  0.00  0.00    +0.000 A 
ATOM      6  C   UNL     1       1.209   2.324  18.535  0.00  0.00    +0.000 A 
ATOM      7  C   UNL     1       2.297   1.814  17.839  0.00  0.00    +0.000 A 
ATOM      8  C   UNL     1       3.522   2.490  17.841  0.00  0.00    +0.000 A 
ATOM      9  C   UNL     1       3.663   3.705  18.553  0.00  0.00    +0.000 A 
ENDROOT
BRANCH   1  10
ATOM     10  C   UNL     1       6.128   4.641  18.298  0.00  0.00    +0.000 C 
ATOM     11  O   UNL     1       7.042   5.072  18.994  0.00  0.00    +0.000 OA
BRANCH  10  13
ATOM     12  C   UNL     1       6.914   5.057  15.976  0.00  0.00    +0.000 C 
ATOM     13  C   UNL     1       6.302   4.258  16.866  0.00  0.00    +0.000 C 
BRANCH  12  15
ATOM     14  O   UNL     1       7.759   5.498  13.833  0.00  0.00    +0.000 OA
ATOM     15  C   UNL     1       7.065   4.762  14.522  0.00  0.00    +0.000 C 
BRANCH  15  16
ATOM     16  O   UNL     1       6.433   3.691  14.013  0.00  0.00    +0.000 OA
ATOM     17  H   UNL     1       6.856   2.824  14.112  0.00  0.00    +0.000 HD
ENDBRANCH  15  16
ENDBRANCH  12  15
BRANCH  12  18
ATOM     18  O   UNL     1       7.477   6.264  16.368  0.00  0.00    +0.000 OA
ATOM     19  H   UNL     1       8.087   6.056  17.108  0.00  0.00    +0.000 HD
ENDBRANCH  12  18
ENDBRANCH  10  13
ENDBRANCH   1  10
BRANCH   3  20
ATOM     20  C   UNL     1       2.084   6.225  20.698  0.00  0.00    +0.000 C 
BRANCH  20  21
ATOM     21  C   UNL     1       1.858   7.555  20.020  0.00  0.00    +0.000 A 
ATOM     22  C   UNL     1       1.227   8.610  20.702  0.00  0.00    +0.000 A 
ATOM     23  C   UNL     1       0.904   9.793  20.039  0.00  0.00    +0.000 A 
ATOM     24  C   UNL     1       1.249   9.944  18.703  0.00  0.00    +0.000 A 
ATOM     25  F   UNL     1       0.904  11.063  18.054  0.00  0.00    +0.000 F 
ATOM     26  C   UNL     1       1.944   8.946  18.028  0.00  0.00    +0.000 A 
ATOM     27  C   UNL     1       2.249   7.753  18.685  0.00  0.00    +0.000 A 
ENDBRANCH  20  21
ENDBRANCH   3  20
TORSDOF 7
ENDMDL
MODEL 4
REMARK VINA RESULT:      -8.1      5.261      8.258
REMARK  Name = 
REMARK  7 active torsions:
REMARK  status: ('A' for Active; 'I' for Inactive)
REMARK    1  A    between atoms: C_2  and  O_3
REMARK    2  A    between atoms: C_2  and  C_4
REMARK    3  A    between atoms: C_4  and  O_5
REMARK    4  A    between atoms: C_6  and  C_7
REMARK    5  A    between atoms: C_7  and  C_9
REMARK    6  A    between atoms: N_11  and  C_12
REMARK    7  A    between atoms: C_12  and  C_13
REMARK                            x       y       z     vdW  Elec       q    Type
REMARK                         _______ _______ _______ _____ _____    ______ ____
ROOT
ATOM      1  C   UNL     1       2.618   6.487  19.630  0.00  0.00    +0.000 A 
ATOM      2  C   UNL     1       3.917   6.387  19.157  0.00  0.00    +0.000 A 
ATOM      3  N   UNL     1       4.359   5.101  19.317  0.00  0.00    +0.000 N 
ATOM      4  C   UNL     1       3.336   4.317  19.811  0.00  0.00    +0.000 A 
ATOM      5  C   UNL     1       3.287   2.940  20.081  0.00  0.00    +0.000 A 
ATOM      6  C   UNL     1       2.086   2.396  20.542  0.00  0.00    +0.000 A 
ATOM      7  C   UNL     1       0.969   3.198  20.734  0.00  0.00    +0.000 A 
ATOM      8  C   UNL     1       1.026   4.571  20.471  0.00  0.00    +0.000 A 
ATOM      9  C   UNL     1       2.227   5.158  20.007  0.00  0.00    +0.000 A 
ENDROOT
BRANCH   1  10
ATOM     10  C   UNL     1       1.898   7.760  19.633  0.00  0.00    +0.000 C 
ATOM     11  O   UNL     1       1.856   8.474  18.637  0.00  0.00    +0.000 OA
BRANCH  10  13
ATOM     12  C   UNL     1       0.452   9.151  21.100  0.00  0.00    +0.000 C 
ATOM     13  C   UNL     1       1.372   8.181  20.964  0.00  0.00    +0.000 C 
BRANCH  12  15
ATOM     14  O   UNL     1       0.189  10.810  22.738  0.00  0.00    +0.000 OA
ATOM     15  C   UNL     1      -0.068   9.662  22.401  0.00  0.00    +0.000 C 
BRANCH  15  16
ATOM     16  O   UNL     1      -0.808   8.841  23.166  0.00  0.00    +0.000 OA
ATOM     17  H   UNL     1      -0.589   7.896  23.163  0.00  0.00    +0.000 HD
ENDBRANCH  15  16
ENDBRANCH  12  15
BRANCH  12  18
ATOM     18  O   UNL     1      -0.105   9.769  19.989  0.00  0.00    +0.000 OA
ATOM     19  H   UNL     1       0.213   9.267  19.207  0.00  0.00    +0.000 HD
ENDBRANCH  12  18
ENDBRANCH  10  13
ENDBRANCH   1  10
BRANCH   3  20
ATOM     20  C   UNL     1       5.728   4.662  19.032  0.00  0.00    +0.000 C 
BRANCH  20  21
ATOM     21  C   UNL     1       5.977   4.517  17.550  0.00  0.00    +0.000 A 
ATOM     22  C   UNL     1       7.209   4.899  16.989  0.00  0.00    +0.000 A 
ATOM     23  C   UNL     1       7.395   4.885  15.608  0.00  0.00    +0.000 A 
ATOM     24  C   UNL     1       6.368   4.447  14.783  0.00  0.00    +0.000 A 
ATOM     25  F   UNL     1       6.532   4.472  13.455  0.00  0.00    +0.000 F 
ATOM     26  C   UNL     1       5.170   3.990  15.318  0.00  0.00    +0.000 A 
ATOM     27  C   UNL     1       4.973   4.023  16.700  0.00  0.00    +0.000 A 
ENDBRANCH  20  21
ENDBRANCH   3  20
TORSDOF 7
ENDMDL
MODEL 5
REMARK VINA RESULT:      -8.0      0.176      1.170
REMARK  Name = 
REMARK  7 active torsions:
REMARK  status: ('A' for Active; 'I' for Inactive)
REMARK    1  A    between atoms: C_2  and  O_3
REMARK    2  A    between atoms: C_2  and  C_4
REMARK    3  A    between atoms: C_4  and  O_5
REMARK    4  A    between atoms: C_6  and  C_7
REMARK    5  A    between atoms: C_7  and  C_9
REMARK    6  A    between atoms: N_11  and  C_12
REMARK    7  A    between atoms: C_12  and  C_13
REMARK                            x       y       z     vdW  Elec       q    Type
REMARK                         _______ _______ _______ _____ _____    ______ ____
ROOT
ATOM      1  C   UNL     1       6.207   5.264  15.688  0.00  0.00    +0.000 A 
ATOM      2  C   UNL     1       4.970   5.880  15.798  0.00  0.00    +0.000 A 
ATOM      3  N   UNL     1       4.697   6.111  17.120  0.00  0.00    +0.000 N 
ATOM      4  C   UNL     1       5.780   5.737  17.890  0.00  0.00    +0.000 A 
ATOM      5  C   UNL     1       5.996   5.836  19.274  0.00  0.00    +0.000 A 
ATOM      6  C   UNL     1       7.224   5.411  19.786  0.00  0.00    +0.000 A 
ATOM      7  C   UNL     1       8.206   4.901  18.948  0.00  0.00    +0.000 A 
ATOM      8  C   UNL     1       7.982   4.797  17.570  0.00  0.00    +0.000 A 
ATOM      9  C   UNL     1       6.748   5.212  17.017  0.00  0.00    +0.000 A 
ENDROOT
BRANCH   1  10
ATOM     10  C   UNL     1       6.746   4.851  14.393  0.00  0.00    +0.000 C 
ATOM     11  O   UNL     1       7.724   5.404  13.900  0.00  0.00    +0.000 OA
BRANCH  10  13
ATOM     12  C   UNL     1       6.163   3.506  12.385  0.00  0.00    +0.000 C 
ATOM     13  C   UNL     1       5.929   3.836  13.667  0.00  0.00    +0.000 C 
BRANCH  12  15
ATOM     14  O   UNL     1       5.827   1.463  11.282  0.00  0.00    +0.000 OA
ATOM     15  C   UNL     1       5.347   2.548  11.585  0.00  0.00    +0.000 C 
BRANCH  15  16
ATOM     16  O   UNL     1       4.105   2.908  11.220  0.00  0.00    +0.000 OA
ATOM     17  H   UNL     1       3.755   3.745  11.562  0.00  0.00    +0.000 HD
ENDBRANCH  15  16
ENDBRANCH  12  15
BRANCH  12  18
ATOM     18  O   UNL     1       7.232   4.055  11.690  0.00  0.00    +0.000 OA
ATOM     19  H   UNL     1       8.006   4.009  12.293  0.00  0.00    +0.000 HD
ENDBRANCH  12  18
ENDBRANCH  10  13
ENDBRANCH   1  10
BRANCH   3  20
ATOM     20  C   UNL     1       3.424   6.642  17.614  0.00  0.00    +0.000 C 
BRANCH  20  21
ATOM     21  C   UNL     1       2.660   5.620  18.420  0.00  0.00    +0.000 A 
ATOM     22  C   UNL     1       2.185   4.442  17.818  0.00  0.00    +0.000 A 
ATOM     23  C   UNL     1       1.371   3.559  18.528  0.00  0.00    +0.000 A 
ATOM     24  C   UNL     1       1.066   3.827  19.855  0.00  0.00    +0.000 A 
ATOM     25  F   UNL     1       0.252   3.002  20.525  0.00  0.00    +0.000 F 
ATOM     26  C   UNL     1       1.587   4.945  20.495  0.00  0.00    +0.000 A 
ATOM     27  C   UNL     1       2.385   5.841  19.780  0.00  0.00    +0.000 A 
ENDBRANCH  20  21
ENDBRANCH   3  20
TORSDOF 7
ENDMDL
MODEL 6
REMARK VINA RESULT:      -7.9      4.854      7.965
REMARK  Name = 
REMARK  7 active torsions:
REMARK  status: ('A' for Active; 'I' for Inactive)
REMARK    1  A    between atoms: C_2  and  O_3
REMARK    2  A    between atoms: C_2  and  C_4
REMARK    3  A    between atoms: C_4  and  O_5
REMARK    4  A    between atoms: C_6  and  C_7
REMARK    5  A    between atoms: C_7  and  C_9
REMARK    6  A    between atoms: N_11  and  C_12
REMARK    7  A    between atoms: C_12  and  C_13
REMARK                            x       y       z     vdW  Elec       q    Type
REMARK                         _______ _______ _______ _____ _____    ______ ____
ROOT
ATOM      1  C   UNL     1       3.185   6.315  18.016  0.00  0.00    +0.000 A 
ATOM      2  C   UNL     1       4.485   6.262  17.538  0.00  0.00    +0.000 A 
ATOM      3  N   UNL     1       4.864   4.953  17.403  0.00  0.00    +0.000 N 
ATOM      4  C   UNL     1       3.798   4.128  17.700  0.00  0.00    +0.000 A 
ATOM      5  C   UNL     1       3.682   2.730  17.650  0.00  0.00    +0.000 A 
ATOM      6  C   UNL     1       2.451   2.154  17.970  0.00  0.00    +0.000 A 
ATOM      7  C   UNL     1       1.369   2.945  18.334  0.00  0.00    +0.000 A 
ATOM      8  C   UNL     1       1.493   4.337  18.391  0.00  0.00    +0.000 A 
ATOM      9  C   UNL     1       2.727   4.955  18.079  0.00  0.00    +0.000 A 
ENDROOT
BRANCH   1  10
ATOM     10  C   UNL     1       2.524   7.586  18.306  0.00  0.00    +0.000 C 
ATOM     11  O   UNL     1       2.468   8.484  17.471  0.00  0.00    +0.000 OA
BRANCH  10  13
ATOM     12  C   UNL     1       1.235   8.730  20.097  0.00  0.00    +0.000 C 
ATOM     13  C   UNL     1       2.080   7.756  19.720  0.00  0.00    +0.000 C 
BRANCH  12  15
ATOM     14  O   UNL     1       1.602   9.474  22.291  0.00  0.00    +0.000 OA
ATOM     15  C   UNL     1       0.802   8.993  21.500  0.00  0.00    +0.000 C 
BRANCH  15  16
ATOM     16  O   UNL     1      -0.460   8.693  21.852  0.00  0.00    +0.000 OA
ATOM     17  H   UNL     1      -0.718   7.759  21.865  0.00  0.00    +0.000 HD
ENDBRANCH  15  16
ENDBRANCH  12  15
BRANCH  12  18
ATOM     18  O   UNL     1       0.678   9.594  19.164  0.00  0.00    +0.000 OA
ATOM     19  H   UNL     1       0.490  10.431  19.641  0.00  0.00    +0.000 HD
ENDBRANCH  12  18
ENDBRANCH  10  13
ENDBRANCH   1  10
BRANCH   3  20
ATOM     20  C   UNL     1       6.215   4.524  17.031  0.00  0.00    +0.000 C 
BRANCH  20  21
ATOM     21  C   UNL     1       6.420   4.535  15.535  0.00  0.00    +0.000 A 
ATOM     22  C   UNL     1       5.607   3.755  14.694  0.00  0.00    +0.000 A 
ATOM     23  C   UNL     1       5.875   3.665  13.329  0.00  0.00    +0.000 A 
ATOM     24  C   UNL     1       6.930   4.389  12.791  0.00  0.00    +0.000 A 
ATOM     25  F   UNL     1       7.214   4.273  11.488  0.00  0.00    +0.000 F 
ATOM     26  C   UNL     1       7.700   5.228  13.588  0.00  0.00    +0.000 A 
ATOM     27  C   UNL     1       7.445   5.303  14.959  0.00  0.00    +0.000 A 
ENDBRANCH  20  21
ENDBRANCH   3  20
TORSDOF 7
ENDMDL
MODEL 7
REMARK VINA RESULT:      -7.7      5.279      7.864
REMARK  Name = 
REMARK  7 active torsions:
REMARK  status: ('A' for Active; 'I' for Inactive)
REMARK    1  A    between atoms: C_2  and  O_3
REMARK    2  A    between atoms: C_2  and  C_4
REMARK    3  A    between atoms: C_4  and  O_5
REMARK    4  A    between atoms: C_6  and  C_7
REMARK    5  A    between atoms: C_7  and  C_9
REMARK    6  A    between atoms: N_11  and  C_12
REMARK    7  A    between atoms: C_12  and  C_13
REMARK                            x       y       z     vdW  Elec       q    Type
REMARK                         _______ _______ _______ _____ _____    ______ ____
ROOT
ATOM      1  C   UNL     1       2.291   6.233  19.481  0.00  0.00    +0.000 A 
ATOM      2  C   UNL     1       3.338   6.336  18.578  0.00  0.00    +0.000 A 
ATOM      3  N   UNL     1       3.692   5.084  18.152  0.00  0.00    +0.000 N 
ATOM      4  C   UNL     1       2.832   4.149  18.692  0.00  0.00    +0.000 A 
ATOM      5  C   UNL     1       2.756   2.760  18.505  0.00  0.00    +0.000 A 
ATOM      6  C   UNL     1       1.740   2.057  19.156  0.00  0.00    +0.000 A 
ATOM      7  C   UNL     1       0.830   2.715  19.972  0.00  0.00    +0.000 A 
ATOM      8  C   UNL     1       0.915   4.098  20.161  0.00  0.00    +0.000 A 
ATOM      9  C   UNL     1       1.935   4.842  19.523  0.00  0.00    +0.000 A 
ENDROOT
BRANCH   1  10
ATOM     10  C   UNL     1       1.730   7.409  20.144  0.00  0.00    +0.000 C 
ATOM     11  O   UNL     1       1.202   7.331  21.249  0.00  0.00    +0.000 OA
BRANCH  10  13
ATOM     12  C   UNL     1       0.788   9.613  19.484  0.00  0.00    +0.000 C 
ATOM     13  C   UNL     1       1.708   8.648  19.313  0.00  0.00    +0.000 C 
BRANCH  12  15
ATOM     14  O   UNL     1      -0.337  11.530  18.734  0.00  0.00    +0.000 OA
ATOM     15  C   UNL     1       0.673  10.843  18.649  0.00  0.00    +0.000 C 
BRANCH  15  16
ATOM     16  O   UNL     1       1.688  11.162  17.827  0.00  0.00    +0.000 OA
ATOM     17  H   UNL     1       2.331  10.470  17.610  0.00  0.00    +0.000 HD
ENDBRANCH  15  16
ENDBRANCH  12  15
BRANCH  12  18
ATOM     18  O   UNL     1      -0.157   9.528  20.497  0.00  0.00    +0.000 OA
ATOM     19  H   UNL     1       0.344   9.388  21.330  0.00  0.00    +0.000 HD
ENDBRANCH  12  18
ENDBRANCH  10  13
ENDBRANCH   1  10
BRANCH   3  20
ATOM     20  C   UNL     1       4.838   4.806  17.282  0.00  0.00    +0.000 C 
BRANCH  20  21
ATOM     21  C   UNL     1       6.030   5.666  17.627  0.00  0.00    +0.000 A 
ATOM     22  C   UNL     1       6.908   5.294  18.660  0.00  0.00    +0.000 A 
ATOM     23  C   UNL     1       7.934   6.149  19.063  0.00  0.00    +0.000 A 
ATOM     24  C   UNL     1       8.114   7.358  18.406  0.00  0.00    +0.000 A 
ATOM     25  F   UNL     1       9.073   8.197  18.818  0.00  0.00    +0.000 F 
ATOM     26  C   UNL     1       7.308   7.713  17.331  0.00  0.00    +0.000 A 
ATOM     27  C   UNL     1       6.267   6.869  16.939  0.00  0.00    +0.000 A 
ENDBRANCH  20  21
ENDBRANCH   3  20
TORSDOF 7
ENDMDL
MODEL 8
REMARK VINA RESULT:      -7.6      4.821      7.877
REMARK  Name = 
REMARK  7 active torsions:
REMARK  status: ('A' for Active; 'I' for Inactive)
REMARK    1  A    between atoms: C_2  and  O_3
REMARK    2  A    between atoms: C_2  and  C_4
REMARK    3  A    between atoms: C_4  and  O_5
REMARK    4  A    between atoms: C_6  and  C_7
REMARK    5  A    between atoms: C_7  and  C_9
REMARK    6  A    between atoms: N_11  and  C_12
REMARK    7  A    between atoms: C_12  and  C_13
REMARK                            x       y       z     vdW  Elec       q    Type
REMARK                         _______ _______ _______ _____ _____    ______ ____
ROOT
ATOM      1  C   UNL     1       3.188   6.415  17.934  0.00  0.00    +0.000 A 
ATOM      2  C   UNL     1       4.511   6.343  17.528  0.00  0.00    +0.000 A 
ATOM      3  N   UNL     1       4.892   5.030  17.458  0.00  0.00    +0.000 N 
ATOM      4  C   UNL     1       3.808   4.217  17.726  0.00  0.00    +0.000 A 
ATOM      5  C   UNL     1       3.689   2.818  17.717  0.00  0.00    +0.000 A 
ATOM      6  C   UNL     1       2.441   2.256  17.991  0.00  0.00    +0.000 A 
ATOM      7  C   UNL     1       1.344   3.061  18.270  0.00  0.00    +0.000 A 
ATOM      8  C   UNL     1       1.471   4.455  18.286  0.00  0.00    +0.000 A 
ATOM      9  C   UNL     1       2.722   5.058  18.019  0.00  0.00    +0.000 A 
ENDROOT
BRANCH   1  10
ATOM     10  C   UNL     1       2.518   7.697  18.145  0.00  0.00    +0.000 C 
ATOM     11  O   UNL     1       2.537   8.577  17.291  0.00  0.00    +0.000 OA
BRANCH  10  13
ATOM     12  C   UNL     1       1.216   8.968  19.838  0.00  0.00    +0.000 C 
ATOM     13  C   UNL     1       1.963   7.898  19.515  0.00  0.00    +0.000 C 
BRANCH  12  15
ATOM     14  O   UNL     1      -0.172   8.526  21.678  0.00  0.00    +0.000 OA
ATOM     15  C   UNL     1       0.685   9.260  21.201  0.00  0.00    +0.000 C 
BRANCH  15  16
ATOM     16  O   UNL     1       1.167  10.323  21.867  0.00  0.00    +0.000 OA
ATOM     17  H   UNL     1       2.122  10.364  22.028  0.00  0.00    +0.000 HD
ENDBRANCH  15  16
ENDBRANCH  12  15
BRANCH  12  18
ATOM     18  O   UNL     1       0.868   9.912  18.883  0.00  0.00    +0.000 OA
ATOM     19  H   UNL     1       1.704  10.183  18.446  0.00  0.00    +0.000 HD
ENDBRANCH  12  18
ENDBRANCH  10  13
ENDBRANCH   1  10
BRANCH   3  20
ATOM     20  C   UNL     1       6.259   4.585  17.173  0.00  0.00    +0.000 C 
BRANCH  20  21
ATOM     21  C   UNL     1       6.519   4.472  15.690  0.00  0.00    +0.000 A 
ATOM     22  C   UNL     1       7.550   5.212  15.085  0.00  0.00    +0.000 A 
ATOM     23  C   UNL     1       7.709   5.205  13.699  0.00  0.00    +0.000 A 
ATOM     24  C   UNL     1       6.868   4.426  12.918  0.00  0.00    +0.000 A 
ATOM     25  F   UNL     1       6.994   4.451  11.585  0.00  0.00    +0.000 F 
ATOM     26  C   UNL     1       5.893   3.625  13.499  0.00  0.00    +0.000 A 
ATOM     27  C   UNL     1       5.717   3.646  14.884  0.00  0.00    +0.000 A 
ENDBRANCH  20  21
ENDBRANCH   3  20
TORSDOF 7
ENDMDL
MODEL 9
REMARK VINA RESULT:      -7.6      4.777      7.711
REMARK  Name = 
REMARK  7 active torsions:
REMARK  status: ('A' for Active; 'I' for Inactive)
REMARK    1  A    between atoms: C_2  and  O_3
REMARK    2  A    between atoms: C_2  and  C_4
REMARK    3  A    between atoms: C_4  and  O_5
REMARK    4  A    between atoms: C_6  and  C_7
REMARK    5  A    between atoms: C_7  and  C_9
REMARK    6  A    between atoms: N_11  and  C_12
REMARK    7  A    between atoms: C_12  and  C_13
REMARK                            x       y       z     vdW  Elec       q    Type
REMARK                         _______ _______ _______ _____ _____    ______ ____
ROOT
ATOM      1  C   UNL     1       2.542   5.955  19.819  0.00  0.00    +0.000 A 
ATOM      2  C   UNL     1       3.864   5.967  19.402  0.00  0.00    +0.000 A 
ATOM      3  N   UNL     1       4.265   4.686  19.133  0.00  0.00    +0.000 N 
ATOM      4  C   UNL     1       3.195   3.825  19.278  0.00  0.00    +0.000 A 
ATOM      5  C   UNL     1       3.098   2.442  19.056  0.00  0.00    +0.000 A 
ATOM      6  C   UNL     1       1.859   1.825  19.245  0.00  0.00    +0.000 A 
ATOM      7  C   UNL     1       0.752   2.560  19.646  0.00  0.00    +0.000 A 
ATOM      8  C   UNL     1       0.857   3.937  19.873  0.00  0.00    +0.000 A 
ATOM      9  C   UNL     1       2.098   4.594  19.697  0.00  0.00    +0.000 A 
ENDROOT
BRANCH   1  10
ATOM     10  C   UNL     1       1.854   7.179  20.224  0.00  0.00    +0.000 C 
ATOM     11  O   UNL     1       1.222   7.241  21.274  0.00  0.00    +0.000 OA
BRANCH  10  13
ATOM     12  C   UNL     1       1.299   9.470  19.433  0.00  0.00    +0.000 C 
ATOM     13  C   UNL     1       1.848   8.265  19.201  0.00  0.00    +0.000 C 
BRANCH  12  15
ATOM     14  O   UNL     1       0.362  11.449  18.591  0.00  0.00    +0.000 OA
ATOM     15  C   UNL     1       1.205  10.574  18.436  0.00  0.00    +0.000 C 
BRANCH  15  16
ATOM     16  O   UNL     1       2.054  10.576  17.394  0.00  0.00    +0.000 OA
ATOM     17  H   UNL     1       1.759  10.989  16.568  0.00  0.00    +0.000 HD
ENDBRANCH  15  16
ENDBRANCH  12  15
BRANCH  12  18
ATOM     18  O   UNL     1       0.764   9.784  20.675  0.00  0.00    +0.000 OA
ATOM     19  H   UNL     1       1.491  10.196  21.192  0.00  0.00    +0.000 HD
ENDBRANCH  12  18
ENDBRANCH  10  13
ENDBRANCH   1  10
BRANCH   3  20
ATOM     20  C   UNL     1       5.637   4.312  18.780  0.00  0.00    +0.000 C 
BRANCH  20  21
ATOM     21  C   UNL     1       5.909   4.485  17.305  0.00  0.00    +0.000 A 
ATOM     22  C   UNL     1       4.902   4.237  16.356  0.00  0.00    +0.000 A 
ATOM     23  C   UNL     1       5.187   4.273  14.992  0.00  0.00    +0.000 A 
ATOM     24  C   UNL     1       6.468   4.600  14.569  0.00  0.00    +0.000 A 
ATOM     25  F   UNL     1       6.753   4.596  13.261  0.00  0.00    +0.000 F 
ATOM     26  C   UNL     1       7.460   4.926  15.486  0.00  0.00    +0.000 A 
ATOM     27  C   UNL     1       7.183   4.870  16.853  0.00  0.00    +0.000 A 
ENDBRANCH  20  21
ENDBRANCH   3  20
TORSDOF 7
ENDMDL
