MODEL 1
REMARK VINA RESULT:      -7.1      0.000      0.000
REMARK  Name = 
REMARK  16 active torsions:
REMARK  status: ('A' for Active; 'I' for Inactive)
REMARK    1  A    between atoms: C_1  and  C_2
REMARK    2  A    between atoms: C_2  and  O_3
REMARK    3  A    between atoms: O_3  and  C_4
REMARK    4  A    between atoms: C_4  and  C_6
REMARK    5  A    between atoms: C_6  and  C_7
REMARK    6  A    between atoms: C_6  and  N_8
REMARK    7  A    between atoms: N_11  and  C_12
REMARK    8  A    between atoms: C_12  and  C_13
REMARK    9  A    between atoms: C_13  and  N_14
REMARK   10  A    between atoms: C_17  and  C_18
REMARK   11  A    between atoms: C_17  and  N_21
REMARK   12  A    between atoms: C_18  and  O_19
REMARK   13  A    between atoms: O_19  and  C_20
REMARK   14  A    between atoms: N_21  and  C_26
REMARK   15  A    between atoms: C_22  and  C_24
REMARK   16  A    between atoms: C_24  and  C_25
REMARK                            x       y       z     vdW  Elec       q    Type
REMARK                         _______ _______ _______ _____ _____    ______ ____
ROOT
ATOM      1  N   UNL     1       9.394  10.698  18.529  0.00  0.00    +0.000 NA
ATOM      2  C   UNL     1       9.088  12.012  17.944  0.00  0.00    +0.000 C 
ATOM      3  C   UNL     1      10.005  13.123  18.442  0.00  0.00    +0.000 C 
ATOM      4  C   UNL     1      10.015  13.270  19.987  0.00  0.00    +0.000 C 
ATOM      5  C   UNL     1      10.415  11.853  20.503  0.00  0.00    +0.000 C 
ATOM      6  C   UNL     1       9.457  10.772  20.000  0.00  0.00    +0.000 C 
ENDROOT
BRANCH   4   7
ATOM      7  N   UNL     1       8.676  13.734  20.618  0.00  0.00    +0.000 N 
ATOM      8  C   UNL     1       7.713  14.518  19.948  0.00  0.00    +0.000 C 
ATOM      9  O   UNL     1       7.841  14.925  18.792  0.00  0.00    +0.000 OA
BRANCH   7  10
ATOM     10  C   UNL     1       8.434  13.332  21.971  0.00  0.00    +0.000 A 
ATOM     11  C   UNL     1       8.867  14.142  23.030  0.00  0.00    +0.000 A 
ATOM     12  C   UNL     1       8.631  13.773  24.352  0.00  0.00    +0.000 A 
ATOM     13  C   UNL     1       7.941  12.596  24.633  0.00  0.00    +0.000 A 
ATOM     14  C   UNL     1       7.517  11.775  23.590  0.00  0.00    +0.000 A 
ATOM     15  C   UNL     1       7.782  12.130  22.265  0.00  0.00    +0.000 A 
ENDBRANCH   7  10
BRANCH   8  16
ATOM     16  C   UNL     1       6.436  14.898  20.713  0.00  0.00    +0.000 C 
ATOM     17  C   UNL     1       5.211  15.016  19.813  0.00  0.00    +0.000 C 
ENDBRANCH   8  16
ENDBRANCH   4   7
BRANCH   1  18
ATOM     18  C   UNL     1       8.344   9.715  18.154  0.00  0.00    +0.000 C 
BRANCH  18  19
ATOM     19  C   UNL     1       8.552   8.287  18.686  0.00  0.00    +0.000 C 
BRANCH  19  23
ATOM     20  N   UNL     1       6.673   5.583  17.340  0.00  0.00    +0.000 N 
ATOM     21  N   UNL     1       6.348   6.620  16.511  0.00  0.00    +0.000 NA
ATOM     22  N   UNL     1       7.000   7.652  16.874  0.00  0.00    +0.000 NA
ATOM     23  N   UNL     1       7.781   7.326  17.945  0.00  0.00    +0.000 N 
ATOM     24  C   UNL     1       7.540   6.028  18.320  0.00  0.00    +0.000 A 
ATOM     25  O   UNL     1       7.967   5.419  19.277  0.00  0.00    +0.000 OA
BRANCH  20  26
ATOM     26  C   UNL     1       5.997   4.310  17.353  0.00  0.00    +0.000 C 
ATOM     27  C   UNL     1       5.309   4.015  16.035  0.00  0.00    +0.000 C 
BRANCH  26  28
ATOM     28  C   UNL     1       5.071   4.215  18.565  0.00  0.00    +0.000 C 
ATOM     29  O   UNL     1       5.196   3.453  19.515  0.00  0.00    +0.000 OA
BRANCH  28  30
ATOM     30  O   UNL     1       3.982   5.015  18.355  0.00  0.00    +0.000 OA
BRANCH  30  32
ATOM     31  C   UNL     1       2.240   5.313  19.961  0.00  0.00    +0.000 C 
ATOM     32  C   UNL     1       2.735   4.465  18.803  0.00  0.00    +0.000 C 
ENDBRANCH  30  32
ENDBRANCH  28  30
ENDBRANCH  26  28
ENDBRANCH  20  26
ENDBRANCH  19  23
ENDBRANCH  18  19
ENDBRANCH   1  18
BRANCH   4  33
ATOM     33  C   UNL     1      11.192  14.245  20.320  0.00  0.00    +0.000 C 
BRANCH  33  34
ATOM     34  O   UNL     1      10.733  15.594  20.413  0.00  0.00    +0.000 OA
ATOM     35  C   UNL     1      11.295  16.423  19.406  0.00  0.00    +0.000 C 
ENDBRANCH  33  34
ENDBRANCH   4  33
TORSDOF 12
ENDMDL
MODEL 2
REMARK VINA RESULT:      -7.0      0.843      1.043
REMARK  Name = 
REMARK  16 active torsions:
REMARK  status: ('A' for Active; 'I' for Inactive)
REMARK    1  A    between atoms: C_1  and  C_2
REMARK    2  A    between atoms: C_2  and  O_3
REMARK    3  A    between atoms: O_3  and  C_4
REMARK    4  A    between atoms: C_4  and  C_6
REMARK    5  A    between atoms: C_6  and  C_7
REMARK    6  A    between atoms: C_6  and  N_8
REMARK    7  A    between atoms: N_11  and  C_12
REMARK    8  A    between atoms: C_12  and  C_13
REMARK    9  A    between atoms: C_13  and  N_14
REMARK   10  A    between atoms: C_17  and  C_18
REMARK   11  A    between atoms: C_17  and  N_21
REMARK   12  A    between atoms: C_18  and  O_19
REMARK   13  A    between atoms: O_19  and  C_20
REMARK   14  A    between atoms: N_21  and  C_26
REMARK   15  A    between atoms: C_22  and  C_24
REMARK   16  A    between atoms: C_24  and  C_25
REMARK                            x       y       z     vdW  Elec       q    Type
REMARK                         _______ _______ _______ _____ _____    ______ ____
ROOT
ATOM      1  N   UNL     1       9.419  10.410  18.609  0.00  0.00    +0.000 NA
ATOM      2  C   UNL     1       9.227  11.658  17.855  0.00  0.00    +0.000 C 
ATOM      3  C   UNL     1      10.209  12.756  18.246  0.00  0.00    +0.000 C 
ATOM      4  C   UNL     1      10.185  13.095  19.761  0.00  0.00    +0.000 C 
ATOM      5  C   UNL     1      10.465  11.730  20.462  0.00  0.00    +0.000 C 
ATOM      6  C   UNL     1       9.445  10.664  20.060  0.00  0.00    +0.000 C 
ENDROOT
BRANCH   4   7
ATOM      7  N   UNL     1       8.867  13.726  20.279  0.00  0.00    +0.000 N 
ATOM      8  C   UNL     1       7.961  14.446  19.472  0.00  0.00    +0.000 C 
ATOM      9  O   UNL     1       8.129  14.656  18.269  0.00  0.00    +0.000 OA
BRANCH   7  10
ATOM     10  C   UNL     1       8.583  13.559  21.674  0.00  0.00    +0.000 A 
ATOM     11  C   UNL     1       9.137  14.442  22.611  0.00  0.00    +0.000 A 
ATOM     12  C   UNL     1       8.863  14.303  23.970  0.00  0.00    +0.000 A 
ATOM     13  C   UNL     1       8.017  13.287  24.407  0.00  0.00    +0.000 A 
ATOM     14  C   UNL     1       7.471  12.394  23.487  0.00  0.00    +0.000 A 
ATOM     15  C   UNL     1       7.771  12.516  22.128  0.00  0.00    +0.000 A 
ENDBRANCH   7  10
BRANCH   8  16
ATOM     16  C   UNL     1       6.698  15.013  20.137  0.00  0.00    +0.000 C 
ATOM     17  C   UNL     1       6.763  16.520  20.361  0.00  0.00    +0.000 C 
ENDBRANCH   8  16
ENDBRANCH   4   7
BRANCH   1  18
ATOM     18  C   UNL     1       8.310   9.463  18.319  0.00  0.00    +0.000 C 
BRANCH  18  19
ATOM     19  C   UNL     1       8.592   7.989  18.654  0.00  0.00    +0.000 C 
BRANCH  19  23
ATOM     20  N   UNL     1       6.128   5.624  17.658  0.00  0.00    +0.000 N 
ATOM     21  N   UNL     1       6.183   6.473  16.588  0.00  0.00    +0.000 NA
ATOM     22  N   UNL     1       7.072   7.356  16.813  0.00  0.00    +0.000 NA
ATOM     23  N   UNL     1       7.639   7.111  18.031  0.00  0.00    +0.000 N 
ATOM     24  C   UNL     1       7.005   6.054  18.636  0.00  0.00    +0.000 A 
ATOM     25  O   UNL     1       7.161   5.609  19.752  0.00  0.00    +0.000 OA
BRANCH  20  26
ATOM     26  C   UNL     1       5.116   4.615  17.844  0.00  0.00    +0.000 C 
ATOM     27  C   UNL     1       4.705   3.970  16.535  0.00  0.00    +0.000 C 
BRANCH  26  28
ATOM     28  C   UNL     1       3.945   5.182  18.645  0.00  0.00    +0.000 C 
ATOM     29  O   UNL     1       3.354   6.230  18.421  0.00  0.00    +0.000 OA
BRANCH  28  30
ATOM     30  O   UNL     1       3.750   4.408  19.756  0.00  0.00    +0.000 OA
BRANCH  30  32
ATOM     31  C   UNL     1       1.508   3.986  20.461  0.00  0.00    +0.000 C 
ATOM     32  C   UNL     1       2.679   3.459  19.650  0.00  0.00    +0.000 C 
ENDBRANCH  30  32
ENDBRANCH  28  30
ENDBRANCH  26  28
ENDBRANCH  20  26
ENDBRANCH  19  23
ENDBRANCH  18  19
ENDBRANCH   1  18
BRANCH   4  33
ATOM     33  C   UNL     1      11.422  14.019  20.015  0.00  0.00    +0.000 C 
BRANCH  33  34
ATOM     34  O   UNL     1      11.683  14.853  18.885  0.00  0.00    +0.000 OA
ATOM     35  C   UNL     1      11.420  16.222  19.157  0.00  0.00    +0.000 C 
ENDBRANCH  33  34
ENDBRANCH   4  33
TORSDOF 12
ENDMDL
MODEL 3
REMARK VINA RESULT:      -6.9      1.428      1.896
REMARK  Name = 
REMARK  16 active torsions:
REMARK  status: ('A' for Active; 'I' for Inactive)
REMARK    1  A    between atoms: C_1  and  C_2
REMARK    2  A    between atoms: C_2  and  O_3
REMARK    3  A    between atoms: O_3  and  C_4
REMARK    4  A    between atoms: C_4  and  C_6
REMARK    5  A    between atoms: C_6  and  C_7
REMARK    6  A    between atoms: C_6  and  N_8
REMARK    7  A    between atoms: N_11  and  C_12
REMARK    8  A    between atoms: C_12  and  C_13
REMARK    9  A    between atoms: C_13  and  N_14
REMARK   10  A    between atoms: C_17  and  C_18
REMARK   11  A    between atoms: C_17  and  N_21
REMARK   12  A    between atoms: C_18  and  O_19
REMARK   13  A    between atoms: O_19  and  C_20
REMARK   14  A    between atoms: N_21  and  C_26
REMARK   15  A    between atoms: C_22  and  C_24
REMARK   16  A    between atoms: C_24  and  C_25
REMARK                            x       y       z     vdW  Elec       q    Type
REMARK                         _______ _______ _______ _____ _____    ______ ____
ROOT
ATOM      1  N   UNL     1       9.687  10.661  18.764  0.00  0.00    +0.000 NA
ATOM      2  C   UNL     1       9.048  11.572  17.804  0.00  0.00    +0.000 C 
ATOM      3  C   UNL     1       9.800  12.885  17.624  0.00  0.00    +0.000 C 
ATOM      4  C   UNL     1      10.020  13.657  18.953  0.00  0.00    +0.000 C 
ATOM      5  C   UNL     1      10.760  12.636  19.870  0.00  0.00    +0.000 C 
ATOM      6  C   UNL     1       9.962  11.342  20.042  0.00  0.00    +0.000 C 
ENDROOT
BRANCH   4   7
ATOM      7  N   UNL     1       8.731  14.185  19.635  0.00  0.00    +0.000 N 
ATOM      8  C   UNL     1       7.580  14.610  18.937  0.00  0.00    +0.000 C 
ATOM      9  O   UNL     1       7.484  14.613  17.708  0.00  0.00    +0.000 OA
BRANCH   7  10
ATOM     10  C   UNL     1       8.744  14.243  21.067  0.00  0.00    +0.000 A 
ATOM     11  C   UNL     1       8.028  13.295  21.811  0.00  0.00    +0.000 A 
ATOM     12  C   UNL     1       8.038  13.328  23.204  0.00  0.00    +0.000 A 
ATOM     13  C   UNL     1       8.779  14.301  23.871  0.00  0.00    +0.000 A 
ATOM     14  C   UNL     1       9.483  15.257  23.142  0.00  0.00    +0.000 A 
ATOM     15  C   UNL     1       9.448  15.242  21.746  0.00  0.00    +0.000 A 
ENDBRANCH   7  10
BRANCH   8  16
ATOM     16  C   UNL     1       6.383  15.110  19.760  0.00  0.00    +0.000 C 
ATOM     17  C   UNL     1       5.154  15.407  18.909  0.00  0.00    +0.000 C 
ENDBRANCH   8  16
ENDBRANCH   4   7
BRANCH   1  18
ATOM     18  C   UNL     1       8.801   9.499  19.035  0.00  0.00    +0.000 C 
BRANCH  18  19
ATOM     19  C   UNL     1       8.164   8.849  17.795  0.00  0.00    +0.000 C 
BRANCH  19  23
ATOM     20  N   UNL     1       6.863   5.540  17.916  0.00  0.00    +0.000 N 
ATOM     21  N   UNL     1       7.776   5.544  18.933  0.00  0.00    +0.000 NA
ATOM     22  N   UNL     1       8.290   6.706  19.015  0.00  0.00    +0.000 NA
ATOM     23  N   UNL     1       7.725   7.507  18.065  0.00  0.00    +0.000 N 
ATOM     24  C   UNL     1       6.861   6.773  17.291  0.00  0.00    +0.000 A 
ATOM     25  O   UNL     1       6.254   7.109  16.297  0.00  0.00    +0.000 OA
BRANCH  20  26
ATOM     26  C   UNL     1       6.218   4.356  17.406  0.00  0.00    +0.000 C 
ATOM     27  C   UNL     1       6.451   4.174  15.919  0.00  0.00    +0.000 C 
BRANCH  26  28
ATOM     28  C   UNL     1       4.742   4.344  17.803  0.00  0.00    +0.000 C 
ATOM     29  O   UNL     1       3.882   5.124  17.416  0.00  0.00    +0.000 OA
BRANCH  28  30
ATOM     30  O   UNL     1       4.555   3.412  18.786  0.00  0.00    +0.000 OA
BRANCH  30  32
ATOM     31  C   UNL     1       2.801   3.363  20.407  0.00  0.00    +0.000 C 
ATOM     32  C   UNL     1       3.191   3.009  18.982  0.00  0.00    +0.000 C 
ENDBRANCH  30  32
ENDBRANCH  28  30
ENDBRANCH  26  28
ENDBRANCH  20  26
ENDBRANCH  19  23
ENDBRANCH  18  19
ENDBRANCH   1  18
BRANCH   4  33
ATOM     33  C   UNL     1      11.026  14.809  18.621  0.00  0.00    +0.000 C 
BRANCH  33  34
ATOM     34  O   UNL     1      11.029  15.102  17.223  0.00  0.00    +0.000 OA
ATOM     35  C   UNL     1      10.706  16.460  16.958  0.00  0.00    +0.000 C 
ENDBRANCH  33  34
ENDBRANCH   4  33
TORSDOF 12
ENDMDL
MODEL 4
REMARK VINA RESULT:      -6.8      1.356      2.826
REMARK  Name = 
REMARK  16 active torsions:
REMARK  status: ('A' for Active; 'I' for Inactive)
REMARK    1  A    between atoms: C_1  and  C_2
REMARK    2  A    between atoms: C_2  and  O_3
REMARK    3  A    between atoms: O_3  and  C_4
REMARK    4  A    between atoms: C_4  and  C_6
REMARK    5  A    between atoms: C_6  and  C_7
REMARK    6  A    between atoms: C_6  and  N_8
REMARK    7  A    between atoms: N_11  and  C_12
REMARK    8  A    between atoms: C_12  and  C_13
REMARK    9  A    between atoms: C_13  and  N_14
REMARK   10  A    between atoms: C_17  and  C_18
REMARK   11  A    between atoms: C_17  and  N_21
REMARK   12  A    between atoms: C_18  and  O_19
REMARK   13  A    between atoms: O_19  and  C_20
REMARK   14  A    between atoms: N_21  and  C_26
REMARK   15  A    between atoms: C_22  and  C_24
REMARK   16  A    between atoms: C_24  and  C_25
REMARK                            x       y       z     vdW  Elec       q    Type
REMARK                         _______ _______ _______ _____ _____    ______ ____
ROOT
ATOM      1  N   UNL     1       9.511  10.776  18.422  0.00  0.00    +0.000 NA
ATOM      2  C   UNL     1       9.209  12.101  17.858  0.00  0.00    +0.000 C 
ATOM      3  C   UNL     1      10.210  13.174  18.267  0.00  0.00    +0.000 C 
ATOM      4  C   UNL     1      10.360  13.325  19.804  0.00  0.00    +0.000 C 
ATOM      5  C   UNL     1      10.745  11.895  20.293  0.00  0.00    +0.000 C 
ATOM      6  C   UNL     1       9.705  10.853  19.882  0.00  0.00    +0.000 C 
ENDROOT
BRANCH   4   7
ATOM      7  N   UNL     1       9.101  13.846  20.546  0.00  0.00    +0.000 N 
ATOM      8  C   UNL     1       8.680  13.387  21.813  0.00  0.00    +0.000 C 
ATOM      9  O   UNL     1       9.266  12.516  22.458  0.00  0.00    +0.000 OA
BRANCH   7  10
ATOM     10  C   UNL     1       8.332  14.849  19.872  0.00  0.00    +0.000 A 
ATOM     11  C   UNL     1       7.198  14.483  19.134  0.00  0.00    +0.000 A 
ATOM     12  C   UNL     1       6.432  15.446  18.482  0.00  0.00    +0.000 A 
ATOM     13  C   UNL     1       6.780  16.792  18.574  0.00  0.00    +0.000 A 
ATOM     14  C   UNL     1       7.913  17.167  19.294  0.00  0.00    +0.000 A 
ATOM     15  C   UNL     1       8.698  16.197  19.922  0.00  0.00    +0.000 A 
ENDBRANCH   7  10
BRANCH   8  16
ATOM     16  C   UNL     1       7.407  14.003  22.413  0.00  0.00    +0.000 C 
ATOM     17  C   UNL     1       6.481  12.969  23.044  0.00  0.00    +0.000 C 
ENDBRANCH   8  16
ENDBRANCH   4   7
BRANCH   1  18
ATOM     18  C   UNL     1       8.393   9.837  18.146  0.00  0.00    +0.000 C 
BRANCH  18  19
ATOM     19  C   UNL     1       8.590   8.403  18.665  0.00  0.00    +0.000 C 
BRANCH  19  23
ATOM     20  N   UNL     1       6.669   5.732  17.312  0.00  0.00    +0.000 N 
ATOM     21  N   UNL     1       6.359   6.777  16.487  0.00  0.00    +0.000 NA
ATOM     22  N   UNL     1       7.025   7.797  16.854  0.00  0.00    +0.000 NA
ATOM     23  N   UNL     1       7.804   7.456  17.921  0.00  0.00    +0.000 N 
ATOM     24  C   UNL     1       7.544   6.160  18.292  0.00  0.00    +0.000 A 
ATOM     25  O   UNL     1       7.963   5.541  19.246  0.00  0.00    +0.000 OA
BRANCH  20  26
ATOM     26  C   UNL     1       5.975   4.468  17.321  0.00  0.00    +0.000 C 
ATOM     27  C   UNL     1       5.899   3.849  15.940  0.00  0.00    +0.000 C 
BRANCH  26  28
ATOM     28  C   UNL     1       4.616   4.616  18.004  0.00  0.00    +0.000 C 
ATOM     29  O   UNL     1       3.626   5.161  17.535  0.00  0.00    +0.000 OA
BRANCH  28  30
ATOM     30  O   UNL     1       4.718   4.176  19.295  0.00  0.00    +0.000 OA
BRANCH  30  32
ATOM     31  C   UNL     1       4.536   2.018  20.300  0.00  0.00    +0.000 C 
ATOM     32  C   UNL     1       3.770   3.164  19.663  0.00  0.00    +0.000 C 
ENDBRANCH  30  32
ENDBRANCH  28  30
ENDBRANCH  26  28
ENDBRANCH  20  26
ENDBRANCH  19  23
ENDBRANCH  18  19
ENDBRANCH   1  18
BRANCH   4  33
ATOM     33  C   UNL     1      11.601  14.252  20.028  0.00  0.00    +0.000 C 
BRANCH  33  34
ATOM     34  O   UNL     1      11.881  15.027  18.862  0.00  0.00    +0.000 OA
ATOM     35  C   UNL     1      12.332  16.336  19.183  0.00  0.00    +0.000 C 
ENDBRANCH  33  34
ENDBRANCH   4  33
TORSDOF 12
ENDMDL
MODEL 5
REMARK VINA RESULT:      -6.5      6.469      9.059
REMARK  Name = 
REMARK  16 active torsions:
REMARK  status: ('A' for Active; 'I' for Inactive)
REMARK    1  A    between atoms: C_1  and  C_2
REMARK    2  A    between atoms: C_2  and  O_3
REMARK    3  A    between atoms: O_3  and  C_4
REMARK    4  A    between atoms: C_4  and  C_6
REMARK    5  A    between atoms: C_6  and  C_7
REMARK    6  A    between atoms: C_6  and  N_8
REMARK    7  A    between atoms: N_11  and  C_12
REMARK    8  A    between atoms: C_12  and  C_13
REMARK    9  A    between atoms: C_13  and  N_14
REMARK   10  A    between atoms: C_17  and  C_18
REMARK   11  A    between atoms: C_17  and  N_21
REMARK   12  A    between atoms: C_18  and  O_19
REMARK   13  A    between atoms: O_19  and  C_20
REMARK   14  A    between atoms: N_21  and  C_26
REMARK   15  A    between atoms: C_22  and  C_24
REMARK   16  A    between atoms: C_24  and  C_25
REMARK                            x       y       z     vdW  Elec       q    Type
REMARK                         _______ _______ _______ _____ _____    ______ ____
ROOT
ATOM      1  N   UNL     1       0.793  10.055  20.484  0.00  0.00    +0.000 NA
ATOM      2  C   UNL     1       0.479  10.271  19.064  0.00  0.00    +0.000 C 
ATOM      3  C   UNL     1       0.506  11.739  18.656  0.00  0.00    +0.000 C 
ATOM      4  C   UNL     1      -0.438  12.633  19.503  0.00  0.00    +0.000 C 
ATOM      5  C   UNL     1       0.019  12.386  20.974  0.00  0.00    +0.000 C 
ATOM      6  C   UNL     1      -0.044  10.905  21.349  0.00  0.00    +0.000 C 
ENDROOT
BRANCH   4   7
ATOM      7  N   UNL     1      -1.953  12.344  19.336  0.00  0.00    +0.000 N 
ATOM      8  C   UNL     1      -2.958  12.864  20.180  0.00  0.00    +0.000 C 
ATOM      9  O   UNL     1      -2.733  13.596  21.146  0.00  0.00    +0.000 OA
BRANCH   7  10
ATOM     10  C   UNL     1      -2.323  11.484  18.252  0.00  0.00    +0.000 A 
ATOM     11  C   UNL     1      -2.785  10.187  18.515  0.00  0.00    +0.000 A 
ATOM     12  C   UNL     1      -3.161   9.340  17.475  0.00  0.00    +0.000 A 
ATOM     13  C   UNL     1      -3.096   9.787  16.157  0.00  0.00    +0.000 A 
ATOM     14  C   UNL     1      -2.626  11.069  15.882  0.00  0.00    +0.000 A 
ATOM     15  C   UNL     1      -2.220  11.907  16.924  0.00  0.00    +0.000 A 
ENDBRANCH   7  10
BRANCH   8  16
ATOM     16  C   UNL     1      -4.415  12.481  19.883  0.00  0.00    +0.000 C 
ATOM     17  C   UNL     1      -5.329  12.615  21.096  0.00  0.00    +0.000 C 
ENDBRANCH   8  16
ENDBRANCH   4   7
BRANCH   1  18
ATOM     18  C   UNL     1       0.552   8.634  20.850  0.00  0.00    +0.000 C 
BRANCH  18  19
ATOM     19  C   UNL     1       1.809   7.816  21.192  0.00  0.00    +0.000 C 
BRANCH  19  23
ATOM     20  N   UNL     1       2.420   5.145  18.924  0.00  0.00    +0.000 N 
ATOM     21  N   UNL     1       1.841   4.512  19.988  0.00  0.00    +0.000 NA
ATOM     22  N   UNL     1       1.536   5.384  20.864  0.00  0.00    +0.000 NA
ATOM     23  N   UNL     1       1.894   6.617  20.402  0.00  0.00    +0.000 N 
ATOM     24  C   UNL     1       2.534   6.495  19.194  0.00  0.00    +0.000 A 
ATOM     25  O   UNL     1       3.077   7.350  18.529  0.00  0.00    +0.000 OA
BRANCH  20  26
ATOM     26  C   UNL     1       3.061   4.467  17.825  0.00  0.00    +0.000 C 
ATOM     27  C   UNL     1       2.279   3.251  17.369  0.00  0.00    +0.000 C 
BRANCH  26  28
ATOM     28  C   UNL     1       4.520   4.166  18.168  0.00  0.00    +0.000 C 
ATOM     29  O   UNL     1       5.002   4.107  19.291  0.00  0.00    +0.000 OA
BRANCH  28  30
ATOM     30  O   UNL     1       5.248   4.122  17.011  0.00  0.00    +0.000 OA
BRANCH  30  32
ATOM     31  C   UNL     1       5.669   5.061  14.856  0.00  0.00    +0.000 C 
ATOM     32  C   UNL     1       5.335   5.369  16.305  0.00  0.00    +0.000 C 
ENDBRANCH  30  32
ENDBRANCH  28  30
ENDBRANCH  26  28
ENDBRANCH  20  26
ENDBRANCH  19  23
ENDBRANCH  18  19
ENDBRANCH   1  18
BRANCH   4  33
ATOM     33  C   UNL     1      -0.076  14.111  19.137  0.00  0.00    +0.000 C 
BRANCH  33  34
ATOM     34  O   UNL     1       1.331  14.263  18.941  0.00  0.00    +0.000 OA
ATOM     35  C   UNL     1       1.810  15.507  19.433  0.00  0.00    +0.000 C 
ENDBRANCH  33  34
ENDBRANCH   4  33
TORSDOF 12
ENDMDL
MODEL 6
REMARK VINA RESULT:      -6.5      6.152     10.473
REMARK  Name = 
REMARK  16 active torsions:
REMARK  status: ('A' for Active; 'I' for Inactive)
REMARK    1  A    between atoms: C_1  and  C_2
REMARK    2  A    between atoms: C_2  and  O_3
REMARK    3  A    between atoms: O_3  and  C_4
REMARK    4  A    between atoms: C_4  and  C_6
REMARK    5  A    between atoms: C_6  and  C_7
REMARK    6  A    between atoms: C_6  and  N_8
REMARK    7  A    between atoms: N_11  and  C_12
REMARK    8  A    between atoms: C_12  and  C_13
REMARK    9  A    between atoms: C_13  and  N_14
REMARK   10  A    between atoms: C_17  and  C_18
REMARK   11  A    between atoms: C_17  and  N_21
REMARK   12  A    between atoms: C_18  and  O_19
REMARK   13  A    between atoms: O_19  and  C_20
REMARK   14  A    between atoms: N_21  and  C_26
REMARK   15  A    between atoms: C_22  and  C_24
REMARK   16  A    between atoms: C_24  and  C_25
REMARK                            x       y       z     vdW  Elec       q    Type
REMARK                         _______ _______ _______ _____ _____    ______ ____
ROOT
ATOM      1  N   UNL     1       2.258   7.160  18.583  0.00  0.00    +0.000 NA
ATOM      2  C   UNL     1       1.965   6.051  17.662  0.00  0.00    +0.000 C 
ATOM      3  C   UNL     1       2.205   4.677  18.274  0.00  0.00    +0.000 C 
ATOM      4  C   UNL     1       3.647   4.487  18.819  0.00  0.00    +0.000 C 
ATOM      5  C   UNL     1       3.831   5.660  19.830  0.00  0.00    +0.000 C 
ATOM      6  C   UNL     1       3.604   7.021  19.170  0.00  0.00    +0.000 C 
ENDROOT
BRANCH   4   7
ATOM      7  N   UNL     1       4.768   4.495  17.747  0.00  0.00    +0.000 N 
ATOM      8  C   UNL     1       4.746   3.716  16.570  0.00  0.00    +0.000 C 
ATOM      9  O   UNL     1       3.834   2.939  16.277  0.00  0.00    +0.000 OA
BRANCH   7  10
ATOM     10  C   UNL     1       5.888   5.351  18.001  0.00  0.00    +0.000 A 
ATOM     11  C   UNL     1       6.069   6.511  17.235  0.00  0.00    +0.000 A 
ATOM     12  C   UNL     1       7.146   7.361  17.474  0.00  0.00    +0.000 A 
ATOM     13  C   UNL     1       8.047   7.071  18.496  0.00  0.00    +0.000 A 
ATOM     14  C   UNL     1       7.886   5.913  19.255  0.00  0.00    +0.000 A 
ATOM     15  C   UNL     1       6.823   5.045  18.994  0.00  0.00    +0.000 A 
ENDBRANCH   7  10
BRANCH   8  16
ATOM     16  C   UNL     1       5.936   3.835  15.607  0.00  0.00    +0.000 C 
ATOM     17  C   UNL     1       5.546   4.377  14.236  0.00  0.00    +0.000 C 
ENDBRANCH   8  16
ENDBRANCH   4   7
BRANCH   1  18
ATOM     18  C   UNL     1       2.194   8.456  17.860  0.00  0.00    +0.000 C 
BRANCH  18  19
ATOM     19  C   UNL     1       0.785   9.042  17.673  0.00  0.00    +0.000 C 
BRANCH  19  23
ATOM     20  N   UNL     1      -0.508  11.314  20.086  0.00  0.00    +0.000 N 
ATOM     21  N   UNL     1       0.830  11.303  20.366  0.00  0.00    +0.000 NA
ATOM     22  N   UNL     1       1.416  10.542  19.530  0.00  0.00    +0.000 NA
ATOM     23  N   UNL     1       0.487  10.037  18.667  0.00  0.00    +0.000 N 
ATOM     24  C   UNL     1      -0.769  10.449  19.040  0.00  0.00    +0.000 A 
ATOM     25  O   UNL     1      -1.844  10.129  18.581  0.00  0.00    +0.000 OA
BRANCH  20  26
ATOM     26  C   UNL     1      -1.510  11.913  20.931  0.00  0.00    +0.000 C 
ATOM     27  C   UNL     1      -2.221  13.063  20.245  0.00  0.00    +0.000 C 
BRANCH  26  28
ATOM     28  C   UNL     1      -0.909  12.282  22.286  0.00  0.00    +0.000 C 
ATOM     29  O   UNL     1      -0.664  11.510  23.204  0.00  0.00    +0.000 OA
BRANCH  28  30
ATOM     30  O   UNL     1      -0.824  13.644  22.379  0.00  0.00    +0.000 OA
BRANCH  30  32
ATOM     31  C   UNL     1      -2.673  14.448  23.657  0.00  0.00    +0.000 C 
ATOM     32  C   UNL     1      -1.178  14.184  23.660  0.00  0.00    +0.000 C 
ENDBRANCH  30  32
ENDBRANCH  28  30
ENDBRANCH  26  28
ENDBRANCH  20  26
ENDBRANCH  19  23
ENDBRANCH  18  19
ENDBRANCH   1  18
BRANCH   4  33
ATOM     33  C   UNL     1       3.625   3.155  19.640  0.00  0.00    +0.000 C 
BRANCH  33  34
ATOM     34  O   UNL     1       2.300   2.835  20.068  0.00  0.00    +0.000 OA
ATOM     35  C   UNL     1       2.178   2.838  21.483  0.00  0.00    +0.000 C 
ENDBRANCH  33  34
ENDBRANCH   4  33
TORSDOF 12
ENDMDL
MODEL 7
REMARK VINA RESULT:      -6.5      5.464     10.777
REMARK  Name = 
REMARK  16 active torsions:
REMARK  status: ('A' for Active; 'I' for Inactive)
REMARK    1  A    between atoms: C_1  and  C_2
REMARK    2  A    between atoms: C_2  and  O_3
REMARK    3  A    between atoms: O_3  and  C_4
REMARK    4  A    between atoms: C_4  and  C_6
REMARK    5  A    between atoms: C_6  and  C_7
REMARK    6  A    between atoms: C_6  and  N_8
REMARK    7  A    between atoms: N_11  and  C_12
REMARK    8  A    between atoms: C_12  and  C_13
REMARK    9  A    between atoms: C_13  and  N_14
REMARK   10  A    between atoms: C_17  and  C_18
REMARK   11  A    between atoms: C_17  and  N_21
REMARK   12  A    between atoms: C_18  and  O_19
REMARK   13  A    between atoms: O_19  and  C_20
REMARK   14  A    between atoms: N_21  and  C_26
REMARK   15  A    between atoms: C_22  and  C_24
REMARK   16  A    between atoms: C_24  and  C_25
REMARK                            x       y       z     vdW  Elec       q    Type
REMARK                         _______ _______ _______ _____ _____    ______ ____
ROOT
ATOM      1  N   UNL     1       2.220   6.363  19.114  0.00  0.00    +0.000 NA
ATOM      2  C   UNL     1       2.423   5.940  17.720  0.00  0.00    +0.000 C 
ATOM      3  C   UNL     1       2.668   4.444  17.572  0.00  0.00    +0.000 C 
ATOM      4  C   UNL     1       3.866   3.928  18.414  0.00  0.00    +0.000 C 
ATOM      5  C   UNL     1       3.523   4.363  19.872  0.00  0.00    +0.000 C 
ATOM      6  C   UNL     1       3.307   5.873  19.981  0.00  0.00    +0.000 C 
ENDROOT
BRANCH   4   7
ATOM      7  N   UNL     1       5.257   4.465  17.986  0.00  0.00    +0.000 N 
ATOM      8  C   UNL     1       6.299   4.776  18.887  0.00  0.00    +0.000 C 
ATOM      9  O   UNL     1       6.206   4.662  20.110  0.00  0.00    +0.000 OA
BRANCH   7  10
ATOM     10  C   UNL     1       5.464   4.654  16.582  0.00  0.00    +0.000 A 
ATOM     11  C   UNL     1       5.882   3.579  15.785  0.00  0.00    +0.000 A 
ATOM     12  C   UNL     1       6.078   3.741  14.416  0.00  0.00    +0.000 A 
ATOM     13  C   UNL     1       5.841   4.978  13.821  0.00  0.00    +0.000 A 
ATOM     14  C   UNL     1       5.438   6.058  14.604  0.00  0.00    +0.000 A 
ATOM     15  C   UNL     1       5.272   5.902  15.983  0.00  0.00    +0.000 A 
ENDBRANCH   7  10
BRANCH   8  16
ATOM     16  C   UNL     1       7.620   5.300  18.304  0.00  0.00    +0.000 C 
ATOM     17  C   UNL     1       7.812   6.798  18.510  0.00  0.00    +0.000 C 
ENDBRANCH   8  16
ENDBRANCH   4   7
BRANCH   1  18
ATOM     18  C   UNL     1       2.187   7.847  19.198  0.00  0.00    +0.000 C 
BRANCH  18  19
ATOM     19  C   UNL     1       1.429   8.426  20.403  0.00  0.00    +0.000 C 
BRANCH  19  23
ATOM     20  N   UNL     1      -0.032  11.651  20.060  0.00  0.00    +0.000 N 
ATOM     21  N   UNL     1      -0.109  11.147  18.792  0.00  0.00    +0.000 NA
ATOM     22  N   UNL     1       0.356   9.962  18.795  0.00  0.00    +0.000 NA
ATOM     23  N   UNL     1       0.743   9.643  20.065  0.00  0.00    +0.000 N 
ATOM     24  C   UNL     1       0.581  10.730  20.888  0.00  0.00    +0.000 A 
ATOM     25  O   UNL     1       0.903  10.862  22.049  0.00  0.00    +0.000 OA
BRANCH  20  26
ATOM     26  C   UNL     1      -0.291  13.027  20.406  0.00  0.00    +0.000 C 
ATOM     27  C   UNL     1      -1.760  13.279  20.682  0.00  0.00    +0.000 C 
BRANCH  26  28
ATOM     28  C   UNL     1       0.306  13.958  19.352  0.00  0.00    +0.000 C 
ATOM     29  O   UNL     1      -0.302  14.504  18.441  0.00  0.00    +0.000 OA
BRANCH  28  30
ATOM     30  O   UNL     1       1.666  13.971  19.490  0.00  0.00    +0.000 OA
BRANCH  30  32
ATOM     31  C   UNL     1       3.212  14.968  17.967  0.00  0.00    +0.000 C 
ATOM     32  C   UNL     1       2.397  13.725  18.280  0.00  0.00    +0.000 C 
ENDBRANCH  30  32
ENDBRANCH  28  30
ENDBRANCH  26  28
ENDBRANCH  20  26
ENDBRANCH  19  23
ENDBRANCH  18  19
ENDBRANCH   1  18
BRANCH   4  33
ATOM     33  C   UNL     1       3.793   2.366  18.357  0.00  0.00    +0.000 C 
BRANCH  33  34
ATOM     34  O   UNL     1       2.527   1.928  17.861  0.00  0.00    +0.000 OA
ATOM     35  C   UNL     1       1.620   1.613  18.907  0.00  0.00    +0.000 C 
ENDBRANCH  33  34
ENDBRANCH   4  33
TORSDOF 12
ENDMDL
MODEL 8
REMARK VINA RESULT:      -6.5      1.930      9.452
REMARK  Name = 
REMARK  16 active torsions:
REMARK  status: ('A' for Active; 'I' for Inactive)
REMARK    1  A    between atoms: C_1  and  C_2
REMARK    2  A    between atoms: C_2  and  O_3
REMARK    3  A    between atoms: O_3  and  C_4
REMARK    4  A    between atoms: C_4  and  C_6
REMARK    5  A    between atoms: C_6  and  C_7
REMARK    6  A    between atoms: C_6  and  N_8
REMARK    7  A    between atoms: N_11  and  C_12
REMARK    8  A    between atoms: C_12  and  C_13
REMARK    9  A    between atoms: C_13  and  N_14
REMARK   10  A    between atoms: C_17  and  C_18
REMARK   11  A    between atoms: C_17  and  N_21
REMARK   12  A    between atoms: C_18  and  O_19
REMARK   13  A    between atoms: O_19  and  C_20
REMARK   14  A    between atoms: N_21  and  C_26
REMARK   15  A    between atoms: C_22  and  C_24
REMARK   16  A    between atoms: C_24  and  C_25
REMARK                            x       y       z     vdW  Elec       q    Type
REMARK                         _______ _______ _______ _____ _____    ______ ____
ROOT
ATOM      1  N   UNL     1       7.370   6.432  17.830  0.00  0.00    +0.000 NA
ATOM      2  C   UNL     1       6.785   5.563  18.862  0.00  0.00    +0.000 C 
ATOM      3  C   UNL     1       5.928   4.440  18.291  0.00  0.00    +0.000 C 
ATOM      4  C   UNL     1       4.782   4.943  17.374  0.00  0.00    +0.000 C 
ATOM      5  C   UNL     1       5.508   5.789  16.283  0.00  0.00    +0.000 C 
ATOM      6  C   UNL     1       6.338   6.917  16.896  0.00  0.00    +0.000 C 
ENDROOT
BRANCH   4   7
ATOM      7  N   UNL     1       3.682   5.777  18.083  0.00  0.00    +0.000 N 
ATOM      8  C   UNL     1       3.466   7.155  17.865  0.00  0.00    +0.000 C 
ATOM      9  O   UNL     1       4.139   7.842  17.094  0.00  0.00    +0.000 OA
BRANCH   7  10
ATOM     10  C   UNL     1       2.854   5.077  19.019  0.00  0.00    +0.000 A 
ATOM     11  C   UNL     1       3.250   4.969  20.359  0.00  0.00    +0.000 A 
ATOM     12  C   UNL     1       2.453   4.302  21.286  0.00  0.00    +0.000 A 
ATOM     13  C   UNL     1       1.238   3.749  20.888  0.00  0.00    +0.000 A 
ATOM     14  C   UNL     1       0.839   3.839  19.555  0.00  0.00    +0.000 A 
ATOM     15  C   UNL     1       1.654   4.480  18.620  0.00  0.00    +0.000 A 
ENDBRANCH   7  10
BRANCH   8  16
ATOM     16  C   UNL     1       2.335   7.838  18.648  0.00  0.00    +0.000 C 
ATOM     17  C   UNL     1       1.661   8.961  17.869  0.00  0.00    +0.000 C 
ENDBRANCH   8  16
ENDBRANCH   4   7
BRANCH   1  18
ATOM     18  C   UNL     1       8.021   7.609  18.463  0.00  0.00    +0.000 C 
BRANCH  18  19
ATOM     19  C   UNL     1       7.859   8.940  17.709  0.00  0.00    +0.000 C 
BRANCH  19  23
ATOM     20  N   UNL     1       9.427  11.896  18.919  0.00  0.00    +0.000 N 
ATOM     21  N   UNL     1       9.893  10.934  19.771  0.00  0.00    +0.000 NA
ATOM     22  N   UNL     1       9.425   9.807  19.411  0.00  0.00    +0.000 NA
ATOM     23  N   UNL     1       8.646   9.987  18.305  0.00  0.00    +0.000 N 
ATOM     24  C   UNL     1       8.561  11.324  18.006  0.00  0.00    +0.000 A 
ATOM     25  O   UNL     1       7.887  11.876  17.163  0.00  0.00    +0.000 OA
BRANCH  20  26
ATOM     26  C   UNL     1       9.593  13.313  19.122  0.00  0.00    +0.000 C 
ATOM     27  C   UNL     1      10.994  13.664  19.581  0.00  0.00    +0.000 C 
BRANCH  26  28
ATOM     28  C   UNL     1       8.493  13.849  20.038  0.00  0.00    +0.000 C 
ATOM     29  O   UNL     1       7.496  14.466  19.688  0.00  0.00    +0.000 OA
BRANCH  28  30
ATOM     30  O   UNL     1       8.871  13.664  21.340  0.00  0.00    +0.000 OA
BRANCH  30  32
ATOM     31  C   UNL     1       8.025  11.901  22.710  0.00  0.00    +0.000 C 
ATOM     32  C   UNL     1       7.802  13.327  22.235  0.00  0.00    +0.000 C 
ENDBRANCH  30  32
ENDBRANCH  28  30
ENDBRANCH  26  28
ENDBRANCH  20  26
ENDBRANCH  19  23
ENDBRANCH  18  19
ENDBRANCH   1  18
BRANCH   4  33
ATOM     33  C   UNL     1       4.198   3.671  16.675  0.00  0.00    +0.000 C 
BRANCH  33  34
ATOM     34  O   UNL     1       4.576   2.482  17.371  0.00  0.00    +0.000 OA
ATOM     35  C   UNL     1       3.449   1.748  17.830  0.00  0.00    +0.000 C 
ENDBRANCH  33  34
ENDBRANCH   4  33
TORSDOF 12
ENDMDL
MODEL 9
REMARK VINA RESULT:      -6.5      5.920     10.591
REMARK  Name = 
REMARK  16 active torsions:
REMARK  status: ('A' for Active; 'I' for Inactive)
REMARK    1  A    between atoms: C_1  and  C_2
REMARK    2  A    between atoms: C_2  and  O_3
REMARK    3  A    between atoms: O_3  and  C_4
REMARK    4  A    between atoms: C_4  and  C_6
REMARK    5  A    between atoms: C_6  and  C_7
REMARK    6  A    between atoms: C_6  and  N_8
REMARK    7  A    between atoms: N_11  and  C_12
REMARK    8  A    between atoms: C_12  and  C_13
REMARK    9  A    between atoms: C_13  and  N_14
REMARK   10  A    between atoms: C_17  and  C_18
REMARK   11  A    between atoms: C_17  and  N_21
REMARK   12  A    between atoms: C_18  and  O_19
REMARK   13  A    between atoms: O_19  and  C_20
REMARK   14  A    between atoms: N_21  and  C_26
REMARK   15  A    between atoms: C_22  and  C_24
REMARK   16  A    between atoms: C_24  and  C_25
REMARK                            x       y       z     vdW  Elec       q    Type
REMARK                         _______ _______ _______ _____ _____    ______ ____
ROOT
ATOM      1  N   UNL     1       2.273   6.652  19.061  0.00  0.00    +0.000 NA
ATOM      2  C   UNL     1       2.448   6.138  17.694  0.00  0.00    +0.000 C 
ATOM      3  C   UNL     1       2.630   4.627  17.636  0.00  0.00    +0.000 C 
ATOM      4  C   UNL     1       3.811   4.113  18.502  0.00  0.00    +0.000 C 
ATOM      5  C   UNL     1       3.496   4.648  19.933  0.00  0.00    +0.000 C 
ATOM      6  C   UNL     1       3.343   6.169  19.951  0.00  0.00    +0.000 C 
ENDROOT
BRANCH   4   7
ATOM      7  N   UNL     1       5.220   4.564  18.037  0.00  0.00    +0.000 N 
ATOM      8  C   UNL     1       6.288   4.857  18.912  0.00  0.00    +0.000 C 
ATOM      9  O   UNL     1       6.208   4.794  20.141  0.00  0.00    +0.000 OA
BRANCH   7  10
ATOM     10  C   UNL     1       5.417   4.690  16.624  0.00  0.00    +0.000 A 
ATOM     11  C   UNL     1       5.215   5.928  15.998  0.00  0.00    +0.000 A 
ATOM     12  C   UNL     1       5.412   6.073  14.626  0.00  0.00    +0.000 A 
ATOM     13  C   UNL     1       5.832   4.984  13.866  0.00  0.00    +0.000 A 
ATOM     14  C   UNL     1       6.023   3.745  14.474  0.00  0.00    +0.000 A 
ATOM     15  C   UNL     1       5.795   3.594  15.844  0.00  0.00    +0.000 A 
ENDBRANCH   7  10
BRANCH   8  16
ATOM     16  C   UNL     1       7.625   5.294  18.294  0.00  0.00    +0.000 C 
ATOM     17  C   UNL     1       7.902   6.784  18.457  0.00  0.00    +0.000 C 
ENDBRANCH   8  16
ENDBRANCH   4   7
BRANCH   1  18
ATOM     18  C   UNL     1       2.302   8.138  19.056  0.00  0.00    +0.000 C 
BRANCH  18  19
ATOM     19  C   UNL     1       1.478   8.813  17.947  0.00  0.00    +0.000 C 
BRANCH  19  23
ATOM     20  N   UNL     1       0.308  11.977  19.078  0.00  0.00    +0.000 N 
ATOM     21  N   UNL     1       1.566  12.263  18.625  0.00  0.00    +0.000 NA
ATOM     22  N   UNL     1       2.081  11.199  18.152  0.00  0.00    +0.000 NA
ATOM     23  N   UNL     1       1.177  10.183  18.267  0.00  0.00    +0.000 N 
ATOM     24  C   UNL     1       0.058  10.626  18.927  0.00  0.00    +0.000 A 
ATOM     25  O   UNL     1      -0.908   9.996  19.299  0.00  0.00    +0.000 OA
BRANCH  20  26
ATOM     26  C   UNL     1      -0.506  12.885  19.845  0.00  0.00    +0.000 C 
ATOM     27  C   UNL     1      -0.526  14.279  19.248  0.00  0.00    +0.000 C 
BRANCH  26  28
ATOM     28  C   UNL     1      -0.093  12.853  21.317  0.00  0.00    +0.000 C 
ATOM     29  O   UNL     1       0.908  13.365  21.798  0.00  0.00    +0.000 OA
BRANCH  28  30
ATOM     30  O   UNL     1      -0.943  12.026  21.998  0.00  0.00    +0.000 OA
BRANCH  30  32
ATOM     31  C   UNL     1      -3.017  12.564  23.051  0.00  0.00    +0.000 C 
ATOM     32  C   UNL     1      -1.505  12.591  23.191  0.00  0.00    +0.000 C 
ENDBRANCH  30  32
ENDBRANCH  28  30
ENDBRANCH  26  28
ENDBRANCH  20  26
ENDBRANCH  19  23
ENDBRANCH  18  19
ENDBRANCH   1  18
BRANCH   4  33
ATOM     33  C   UNL     1       3.673   2.555  18.539  0.00  0.00    +0.000 C 
BRANCH  33  34
ATOM     34  O   UNL     1       2.839   2.137  19.621  0.00  0.00    +0.000 OA
ATOM     35  C   UNL     1       1.527   1.804  19.190  0.00  0.00    +0.000 C 
ENDBRANCH  33  34
ENDBRANCH   4  33
TORSDOF 12
ENDMDL
