MODEL 1
REMARK VINA RESULT:      -7.5      0.000      0.000
REMARK  Name = 
REMARK  7 active torsions:
REMARK  status: ('A' for Active; 'I' for Inactive)
REMARK    1  A    between atoms: C_1  and  O_2
REMARK    2  A    between atoms: O_2  and  C_3
REMARK    3  A    between atoms: C_5  and  N_6
REMARK    4  A    between atoms: C_9  and  O_10
REMARK    5  A    between atoms: O_10  and  C_11
REMARK    6  A    between atoms: C_13  and  C_14
REMARK    7  A    between atoms: C_18  and  C_19
REMARK                            x       y       z     vdW  Elec       q    Type
REMARK                         _______ _______ _______ _____ _____    ______ ____
ROOT
ATOM      1  C   UNL     1       3.624   5.110  17.464  0.00  0.00    +0.000 A 
ATOM      2  C   UNL     1       4.692   4.500  16.797  0.00  0.00    +0.000 A 
ATOM      3  C   UNL     1       5.872   5.217  16.568  0.00  0.00    +0.000 A 
ATOM      4  C   UNL     1       6.005   6.560  16.910  0.00  0.00    +0.000 A 
ATOM      5  C   UNL     1       4.917   7.171  17.540  0.00  0.00    +0.000 A 
ATOM      6  C   UNL     1       3.728   6.462  17.850  0.00  0.00    +0.000 A 
ENDROOT
BRANCH   6   7
ATOM      7  C   UNL     1       2.722   7.189  18.629  0.00  0.00    +0.000 A 
ATOM      8  C   UNL     1       2.306   6.921  19.927  0.00  0.00    +0.000 A 
ATOM      9  N   UNL     1       1.525   7.984  20.264  0.00  0.00    +0.000 N 
ATOM     10  N   UNL     1       0.937   8.354  21.430  0.00  0.00    +0.000 NA
ATOM     11  C   UNL     1       0.407   9.521  21.194  0.00  0.00    +0.000 A 
ATOM     12  C   UNL     1      -0.314  10.339  22.210  0.00  0.00    +0.000 C 
ATOM     13  S   UNL     1       0.576  10.212  19.560  0.00  0.00    +0.000 S 
ATOM     14  C   UNL     1       1.466   8.799  19.186  0.00  0.00    +0.000 A 
ATOM     15  N   UNL     1       2.166   8.385  18.169  0.00  0.00    +0.000 NA
ENDBRANCH   6   7
BRANCH   3  16
ATOM     16  N   UNL     1       6.990   4.486  16.005  0.00  0.00    +0.000 N 
ATOM     17  O   UNL     1       6.890   4.131  14.822  0.00  0.00    +0.000 OA
ATOM     18  O   UNL     1       7.917   4.185  16.770  0.00  0.00    +0.000 OA
ENDBRANCH   3  16
BRANCH   1  20
ATOM     19  C   UNL     1       2.534   3.014  17.529  0.00  0.00    +0.000 C 
ATOM     20  O   UNL     1       2.459   4.429  17.710  0.00  0.00    +0.000 OA
ENDBRANCH   1  20
BRANCH   4  21
ATOM     21  O   UNL     1       7.178   7.184  16.595  0.00  0.00    +0.000 OA
ATOM     22  C   UNL     1       7.787   7.995  17.593  0.00  0.00    +0.000 C 
ENDBRANCH   4  21
TORSDOF 4
ENDMDL
MODEL 2
REMARK VINA RESULT:      -6.8      0.969      1.173
REMARK  Name = 
REMARK  7 active torsions:
REMARK  status: ('A' for Active; 'I' for Inactive)
REMARK    1  A    between atoms: C_1  and  O_2
REMARK    2  A    between atoms: O_2  and  C_3
REMARK    3  A    between atoms: C_5  and  N_6
REMARK    4  A    between atoms: C_9  and  O_10
REMARK    5  A    between atoms: O_10  and  C_11
REMARK    6  A    between atoms: C_13  and  C_14
REMARK    7  A    between atoms: C_18  and  C_19
REMARK                            x       y       z     vdW  Elec       q    Type
REMARK                         _______ _______ _______ _____ _____    ______ ____
ROOT
ATOM      1  C   UNL     1       3.314   5.417  18.175  0.00  0.00    +0.000 A 
ATOM      2  C   UNL     1       4.394   4.661  17.708  0.00  0.00    +0.000 A 
ATOM      3  C   UNL     1       5.552   5.305  17.254  0.00  0.00    +0.000 A 
ATOM      4  C   UNL     1       5.648   6.692  17.172  0.00  0.00    +0.000 A 
ATOM      5  C   UNL     1       4.548   7.437  17.604  0.00  0.00    +0.000 A 
ATOM      6  C   UNL     1       3.382   6.825  18.133  0.00  0.00    +0.000 A 
ENDROOT
BRANCH   6   7
ATOM      7  C   UNL     1       2.361   7.728  18.670  0.00  0.00    +0.000 A 
ATOM      8  C   UNL     1       1.928   7.820  19.987  0.00  0.00    +0.000 A 
ATOM      9  N   UNL     1       1.136   8.929  20.011  0.00  0.00    +0.000 N 
ATOM     10  N   UNL     1       0.529   9.598  21.024  0.00  0.00    +0.000 NA
ATOM     11  C   UNL     1      -0.003  10.651  20.471  0.00  0.00    +0.000 A 
ATOM     12  C   UNL     1      -0.743  11.709  21.217  0.00  0.00    +0.000 C 
ATOM     13  S   UNL     1       0.187  10.872  18.714  0.00  0.00    +0.000 S 
ATOM     14  C   UNL     1       1.089   9.418  18.751  0.00  0.00    +0.000 A 
ATOM     15  N   UNL     1       1.806   8.749  17.894  0.00  0.00    +0.000 NA
ENDBRANCH   6   7
BRANCH   3  16
ATOM     16  N   UNL     1       6.686   4.466  16.921  0.00  0.00    +0.000 N 
ATOM     17  O   UNL     1       7.537   4.297  17.806  0.00  0.00    +0.000 OA
ATOM     18  O   UNL     1       6.773   4.063  15.752  0.00  0.00    +0.000 OA
ENDBRANCH   3  16
BRANCH   1  20
ATOM     19  C   UNL     1       1.589   3.860  17.744  0.00  0.00    +0.000 C 
ATOM     20  O   UNL     1       2.171   4.814  18.635  0.00  0.00    +0.000 OA
ENDBRANCH   1  20
BRANCH   4  21
ATOM     21  O   UNL     1       6.801   7.220  16.663  0.00  0.00    +0.000 OA
ATOM     22  C   UNL     1       7.677   7.887  17.564  0.00  0.00    +0.000 C 
ENDBRANCH   4  21
TORSDOF 4
ENDMDL
MODEL 3
REMARK VINA RESULT:      -6.8      2.651      4.170
REMARK  Name = 
REMARK  7 active torsions:
REMARK  status: ('A' for Active; 'I' for Inactive)
REMARK    1  A    between atoms: C_1  and  O_2
REMARK    2  A    between atoms: O_2  and  C_3
REMARK    3  A    between atoms: C_5  and  N_6
REMARK    4  A    between atoms: C_9  and  O_10
REMARK    5  A    between atoms: O_10  and  C_11
REMARK    6  A    between atoms: C_13  and  C_14
REMARK    7  A    between atoms: C_18  and  C_19
REMARK                            x       y       z     vdW  Elec       q    Type
REMARK                         _______ _______ _______ _____ _____    ______ ____
ROOT
ATOM      1  C   UNL     1       3.791   5.835  18.479  0.00  0.00    +0.000 A 
ATOM      2  C   UNL     1       4.279   4.526  18.552  0.00  0.00    +0.000 A 
ATOM      3  C   UNL     1       3.797   3.656  19.537  0.00  0.00    +0.000 A 
ATOM      4  C   UNL     1       2.894   4.066  20.515  0.00  0.00    +0.000 A 
ATOM      5  C   UNL     1       2.443   5.387  20.456  0.00  0.00    +0.000 A 
ATOM      6  C   UNL     1       2.855   6.281  19.435  0.00  0.00    +0.000 A 
ENDROOT
BRANCH   6   7
ATOM      7  C   UNL     1       2.203   7.593  19.417  0.00  0.00    +0.000 A 
ATOM      8  C   UNL     1       1.942   8.388  18.308  0.00  0.00    +0.000 A 
ATOM      9  N   UNL     1       1.150   9.390  18.782  0.00  0.00    +0.000 N 
ATOM     10  N   UNL     1       0.478  10.395  18.166  0.00  0.00    +0.000 NA
ATOM     11  C   UNL     1      -0.206  10.981  19.107  0.00  0.00    +0.000 A 
ATOM     12  C   UNL     1      -1.135  12.125  18.885  0.00  0.00    +0.000 C 
ATOM     13  S   UNL     1      -0.058  10.362  20.771  0.00  0.00    +0.000 S 
ATOM     14  C   UNL     1       1.006   9.194  20.113  0.00  0.00    +0.000 A 
ATOM     15  N   UNL     1       1.608   8.129  20.561  0.00  0.00    +0.000 NA
ENDBRANCH   6   7
BRANCH   3  16
ATOM     16  N   UNL     1       4.233   2.275  19.470  0.00  0.00    +0.000 N 
ATOM     17  O   UNL     1       3.637   1.537  18.673  0.00  0.00    +0.000 OA
ATOM     18  O   UNL     1       5.098   1.911  20.279  0.00  0.00    +0.000 OA
ENDBRANCH   3  16
BRANCH   1  20
ATOM     19  C   UNL     1       5.085   6.130  16.523  0.00  0.00    +0.000 C 
ATOM     20  O   UNL     1       4.238   6.707  17.519  0.00  0.00    +0.000 OA
ENDBRANCH   1  20
BRANCH   4  21
ATOM     21  O   UNL     1       2.527   3.155  21.464  0.00  0.00    +0.000 OA
ATOM     22  C   UNL     1       1.186   2.679  21.442  0.00  0.00    +0.000 C 
ENDBRANCH   4  21
TORSDOF 4
ENDMDL
MODEL 4
REMARK VINA RESULT:      -6.6      3.687      5.061
REMARK  Name = 
REMARK  7 active torsions:
REMARK  status: ('A' for Active; 'I' for Inactive)
REMARK    1  A    between atoms: C_1  and  O_2
REMARK    2  A    between atoms: O_2  and  C_3
REMARK    3  A    between atoms: C_5  and  N_6
REMARK    4  A    between atoms: C_9  and  O_10
REMARK    5  A    between atoms: O_10  and  C_11
REMARK    6  A    between atoms: C_13  and  C_14
REMARK    7  A    between atoms: C_18  and  C_19
REMARK                            x       y       z     vdW  Elec       q    Type
REMARK                         _______ _______ _______ _____ _____    ______ ____
ROOT
ATOM      1  C   UNL     1       6.511   5.158  16.280  0.00  0.00    +0.000 A 
ATOM      2  C   UNL     1       7.375   5.413  15.209  0.00  0.00    +0.000 A 
ATOM      3  C   UNL     1       7.130   4.829  13.961  0.00  0.00    +0.000 A 
ATOM      4  C   UNL     1       6.090   3.926  13.753  0.00  0.00    +0.000 A 
ATOM      5  C   UNL     1       5.257   3.648  14.840  0.00  0.00    +0.000 A 
ATOM      6  C   UNL     1       5.431   4.269  16.103  0.00  0.00    +0.000 A 
ENDROOT
BRANCH   6   7
ATOM      7  C   UNL     1       4.408   3.986  17.113  0.00  0.00    +0.000 A 
ATOM      8  C   UNL     1       4.105   2.756  17.683  0.00  0.00    +0.000 A 
ATOM      9  N   UNL     1       3.243   3.049  18.697  0.00  0.00    +0.000 N 
ATOM     10  N   UNL     1       2.697   2.291  19.681  0.00  0.00    +0.000 NA
ATOM     11  C   UNL     1       2.038   3.127  20.434  0.00  0.00    +0.000 A 
ATOM     12  C   UNL     1       1.305   2.744  21.674  0.00  0.00    +0.000 C 
ATOM     13  S   UNL     1       2.034   4.850  19.982  0.00  0.00    +0.000 S 
ATOM     14  C   UNL     1       3.035   4.386  18.674  0.00  0.00    +0.000 A 
ATOM     15  N   UNL     1       3.707   5.013  17.752  0.00  0.00    +0.000 NA
ENDBRANCH   6   7
BRANCH   3  16
ATOM     16  N   UNL     1       7.973   5.248  12.858  0.00  0.00    +0.000 N 
ATOM     17  O   UNL     1       8.937   5.975  13.135  0.00  0.00    +0.000 OA
ATOM     18  O   UNL     1       7.615   4.930  11.715  0.00  0.00    +0.000 OA
ENDBRANCH   3  16
BRANCH   1  20
ATOM     19  C   UNL     1       7.077   7.107  17.491  0.00  0.00    +0.000 C 
ATOM     20  O   UNL     1       6.721   5.723  17.512  0.00  0.00    +0.000 OA
ENDBRANCH   1  20
BRANCH   4  21
ATOM     21  O   UNL     1       5.968   3.371  12.511  0.00  0.00    +0.000 OA
ATOM     22  C   UNL     1       4.673   3.336  11.925  0.00  0.00    +0.000 C 
ENDBRANCH   4  21
TORSDOF 4
ENDMDL
MODEL 5
REMARK VINA RESULT:      -6.6      1.467      1.856
REMARK  Name = 
REMARK  7 active torsions:
REMARK  status: ('A' for Active; 'I' for Inactive)
REMARK    1  A    between atoms: C_1  and  O_2
REMARK    2  A    between atoms: O_2  and  C_3
REMARK    3  A    between atoms: C_5  and  N_6
REMARK    4  A    between atoms: C_9  and  O_10
REMARK    5  A    between atoms: O_10  and  C_11
REMARK    6  A    between atoms: C_13  and  C_14
REMARK    7  A    between atoms: C_18  and  C_19
REMARK                            x       y       z     vdW  Elec       q    Type
REMARK                         _______ _______ _______ _____ _____    ______ ____
ROOT
ATOM      1  C   UNL     1       3.072   5.714  18.023  0.00  0.00    +0.000 A 
ATOM      2  C   UNL     1       4.068   4.820  17.614  0.00  0.00    +0.000 A 
ATOM      3  C   UNL     1       5.313   5.305  17.197  0.00  0.00    +0.000 A 
ATOM      4  C   UNL     1       5.583   6.668  17.094  0.00  0.00    +0.000 A 
ATOM      5  C   UNL     1       4.568   7.553  17.467  0.00  0.00    +0.000 A 
ATOM      6  C   UNL     1       3.316   7.101  17.958  0.00  0.00    +0.000 A 
ENDROOT
BRANCH   6   7
ATOM      7  C   UNL     1       2.394   8.135  18.436  0.00  0.00    +0.000 A 
ATOM      8  C   UNL     1       1.743   9.098  17.677  0.00  0.00    +0.000 A 
ATOM      9  N   UNL     1       0.856   9.673  18.536  0.00  0.00    +0.000 N 
ATOM     10  N   UNL     1      -0.134  10.582  18.356  0.00  0.00    +0.000 NA
ATOM     11  C   UNL     1      -0.732  10.675  19.511  0.00  0.00    +0.000 A 
ATOM     12  C   UNL     1      -1.921  11.533  19.777  0.00  0.00    +0.000 C 
ATOM     13  S   UNL     1      -0.118   9.689  20.862  0.00  0.00    +0.000 S 
ATOM     14  C   UNL     1       1.029   9.087  19.744  0.00  0.00    +0.000 A 
ATOM     15  N   UNL     1       1.933   8.150  19.755  0.00  0.00    +0.000 NA
ENDBRANCH   6   7
BRANCH   3  16
ATOM     16  N   UNL     1       6.347   4.326  16.927  0.00  0.00    +0.000 N 
ATOM     17  O   UNL     1       7.232   4.194  17.784  0.00  0.00    +0.000 OA
ATOM     18  O   UNL     1       6.327   3.767  15.821  0.00  0.00    +0.000 OA
ENDBRANCH   3  16
BRANCH   1  20
ATOM     19  C   UNL     1       1.527   3.926  18.066  0.00  0.00    +0.000 C 
ATOM     20  O   UNL     1       1.846   5.267  18.445  0.00  0.00    +0.000 OA
ENDBRANCH   1  20
BRANCH   4  21
ATOM     21  O   UNL     1       6.812   7.039  16.625  0.00  0.00    +0.000 OA
ATOM     22  C   UNL     1       7.668   7.758  17.505  0.00  0.00    +0.000 C 
ENDBRANCH   4  21
TORSDOF 4
ENDMDL
MODEL 6
REMARK VINA RESULT:      -6.4      2.566      4.114
REMARK  Name = 
REMARK  7 active torsions:
REMARK  status: ('A' for Active; 'I' for Inactive)
REMARK    1  A    between atoms: C_1  and  O_2
REMARK    2  A    between atoms: O_2  and  C_3
REMARK    3  A    between atoms: C_5  and  N_6
REMARK    4  A    between atoms: C_9  and  O_10
REMARK    5  A    between atoms: O_10  and  C_11
REMARK    6  A    between atoms: C_13  and  C_14
REMARK    7  A    between atoms: C_18  and  C_19
REMARK                            x       y       z     vdW  Elec       q    Type
REMARK                         _______ _______ _______ _____ _____    ______ ____
ROOT
ATOM      1  C   UNL     1       3.355   6.123  18.757  0.00  0.00    +0.000 A 
ATOM      2  C   UNL     1       3.888   4.833  18.656  0.00  0.00    +0.000 A 
ATOM      3  C   UNL     1       3.540   3.859  19.599  0.00  0.00    +0.000 A 
ATOM      4  C   UNL     1       2.734   4.143  20.699  0.00  0.00    +0.000 A 
ATOM      5  C   UNL     1       2.239   5.445  20.812  0.00  0.00    +0.000 A 
ATOM      6  C   UNL     1       2.513   6.443  19.842  0.00  0.00    +0.000 A 
ENDROOT
BRANCH   6   7
ATOM      7  C   UNL     1       1.824   7.725  20.015  0.00  0.00    +0.000 A 
ATOM      8  C   UNL     1       1.413   8.305  21.208  0.00  0.00    +0.000 A 
ATOM      9  N   UNL     1       1.019   9.562  20.862  0.00  0.00    +0.000 N 
ATOM     10  N   UNL     1       0.636  10.636  21.597  0.00  0.00    +0.000 NA
ATOM     11  C   UNL     1       0.483  11.605  20.738  0.00  0.00    +0.000 A 
ATOM     12  C   UNL     1       0.106  13.000  21.102  0.00  0.00    +0.000 C 
ATOM     13  S   UNL     1       0.775  11.262  19.014  0.00  0.00    +0.000 S 
ATOM     14  C   UNL     1       1.161   9.673  19.521  0.00  0.00    +0.000 A 
ATOM     15  N   UNL     1       1.645   8.608  18.948  0.00  0.00    +0.000 NA
ENDBRANCH   6   7
BRANCH   3  16
ATOM     16  N   UNL     1       4.008   2.509  19.357  0.00  0.00    +0.000 N 
ATOM     17  O   UNL     1       3.336   1.813  18.583  0.00  0.00    +0.000 OA
ATOM     18  O   UNL     1       4.983   2.118  20.013  0.00  0.00    +0.000 OA
ENDBRANCH   3  16
BRANCH   1  20
ATOM     19  C   UNL     1       4.681   6.735  16.899  0.00  0.00    +0.000 C 
ATOM     20  O   UNL     1       3.670   7.096  17.842  0.00  0.00    +0.000 OA
ENDBRANCH   1  20
BRANCH   4  21
ATOM     21  O   UNL     1       2.497   3.135  21.591  0.00  0.00    +0.000 OA
ATOM     22  C   UNL     1       1.193   2.569  21.620  0.00  0.00    +0.000 C 
ENDBRANCH   4  21
TORSDOF 4
ENDMDL
MODEL 7
REMARK VINA RESULT:      -6.3      1.876      2.265
REMARK  Name = 
REMARK  7 active torsions:
REMARK  status: ('A' for Active; 'I' for Inactive)
REMARK    1  A    between atoms: C_1  and  O_2
REMARK    2  A    between atoms: O_2  and  C_3
REMARK    3  A    between atoms: C_5  and  N_6
REMARK    4  A    between atoms: C_9  and  O_10
REMARK    5  A    between atoms: O_10  and  C_11
REMARK    6  A    between atoms: C_13  and  C_14
REMARK    7  A    between atoms: C_18  and  C_19
REMARK                            x       y       z     vdW  Elec       q    Type
REMARK                         _______ _______ _______ _____ _____    ______ ____
ROOT
ATOM      1  C   UNL     1       2.396   5.756  19.629  0.00  0.00    +0.000 A 
ATOM      2  C   UNL     1       3.275   4.809  19.093  0.00  0.00    +0.000 A 
ATOM      3  C   UNL     1       4.239   5.204  18.157  0.00  0.00    +0.000 A 
ATOM      4  C   UNL     1       4.311   6.506  17.668  0.00  0.00    +0.000 A 
ATOM      5  C   UNL     1       3.403   7.435  18.181  0.00  0.00    +0.000 A 
ATOM      6  C   UNL     1       2.455   7.091  19.179  0.00  0.00    +0.000 A 
ENDROOT
BRANCH   6   7
ATOM      7  C   UNL     1       1.654   8.192  19.721  0.00  0.00    +0.000 A 
ATOM      8  C   UNL     1       1.387   8.460  21.057  0.00  0.00    +0.000 A 
ATOM      9  N   UNL     1       0.788   9.684  21.050  0.00  0.00    +0.000 N 
ATOM     10  N   UNL     1       0.409  10.523  22.046  0.00  0.00    +0.000 NA
ATOM     11  C   UNL     1      -0.008  11.604  21.448  0.00  0.00    +0.000 A 
ATOM     12  C   UNL     1      -0.485  12.826  22.154  0.00  0.00    +0.000 C 
ATOM     13  S   UNL     1       0.022  11.649  19.667  0.00  0.00    +0.000 S 
ATOM     14  C   UNL     1       0.681  10.072  19.758  0.00  0.00    +0.000 A 
ATOM     15  N   UNL     1       1.186   9.226  18.906  0.00  0.00    +0.000 NA
ENDBRANCH   6   7
BRANCH   3  16
ATOM     16  N   UNL     1       5.211   4.208  17.751  0.00  0.00    +0.000 N 
ATOM     17  O   UNL     1       4.938   3.535  16.747  0.00  0.00    +0.000 OA
ATOM     18  O   UNL     1       6.192   4.036  18.489  0.00  0.00    +0.000 OA
ENDBRANCH   3  16
BRANCH   1  20
ATOM     19  C   UNL     1       0.987   4.052  20.463  0.00  0.00    +0.000 C 
ATOM     20  O   UNL     1       1.448   5.401  20.555  0.00  0.00    +0.000 OA
ENDBRANCH   1  20
BRANCH   4  21
ATOM     21  O   UNL     1       5.253   6.776  16.716  0.00  0.00    +0.000 OA
ATOM     22  C   UNL     1       6.516   7.264  17.153  0.00  0.00    +0.000 C 
ENDBRANCH   4  21
TORSDOF 4
ENDMDL
MODEL 8
REMARK VINA RESULT:      -6.2      1.881      2.277
REMARK  Name = 
REMARK  7 active torsions:
REMARK  status: ('A' for Active; 'I' for Inactive)
REMARK    1  A    between atoms: C_1  and  O_2
REMARK    2  A    between atoms: O_2  and  C_3
REMARK    3  A    between atoms: C_5  and  N_6
REMARK    4  A    between atoms: C_9  and  O_10
REMARK    5  A    between atoms: O_10  and  C_11
REMARK    6  A    between atoms: C_13  and  C_14
REMARK    7  A    between atoms: C_18  and  C_19
REMARK                            x       y       z     vdW  Elec       q    Type
REMARK                         _______ _______ _______ _____ _____    ______ ____
ROOT
ATOM      1  C   UNL     1       2.749   5.972  18.823  0.00  0.00    +0.000 A 
ATOM      2  C   UNL     1       3.719   5.020  18.493  0.00  0.00    +0.000 A 
ATOM      3  C   UNL     1       4.848   5.400  17.759  0.00  0.00    +0.000 A 
ATOM      4  C   UNL     1       5.014   6.692  17.265  0.00  0.00    +0.000 A 
ATOM      5  C   UNL     1       4.020   7.626  17.567  0.00  0.00    +0.000 A 
ATOM      6  C   UNL     1       2.893   7.298  18.364  0.00  0.00    +0.000 A 
ENDROOT
BRANCH   6   7
ATOM      7  C   UNL     1       1.998   8.405  18.712  0.00  0.00    +0.000 A 
ATOM      8  C   UNL     1       1.305   9.233  17.839  0.00  0.00    +0.000 A 
ATOM      9  N   UNL     1       0.467   9.951  18.637  0.00  0.00    +0.000 N 
ATOM     10  N   UNL     1      -0.533  10.826  18.362  0.00  0.00    +0.000 NA
ATOM     11  C   UNL     1      -1.065  11.116  19.516  0.00  0.00    +0.000 A 
ATOM     12  C   UNL     1      -2.238  12.017  19.699  0.00  0.00    +0.000 C 
ATOM     13  S   UNL     1      -0.376  10.365  20.978  0.00  0.00    +0.000 S 
ATOM     14  C   UNL     1       0.707   9.574  19.914  0.00  0.00    +0.000 A 
ATOM     15  N   UNL     1       1.612   8.645  20.033  0.00  0.00    +0.000 NA
ENDBRANCH   6   7
BRANCH   3  16
ATOM     16  N   UNL     1       5.884   4.402  17.575  0.00  0.00    +0.000 N 
ATOM     17  O   UNL     1       5.821   3.710  16.550  0.00  0.00    +0.000 OA
ATOM     18  O   UNL     1       6.695   4.248  18.499  0.00  0.00    +0.000 OA
ENDBRANCH   3  16
BRANCH   1  20
ATOM     19  C   UNL     1       1.886   4.805  20.689  0.00  0.00    +0.000 C 
ATOM     20  O   UNL     1       1.636   5.631  19.549  0.00  0.00    +0.000 OA
ENDBRANCH   1  20
BRANCH   4  21
ATOM     21  O   UNL     1       6.126   6.947  16.513  0.00  0.00    +0.000 OA
ATOM     22  C   UNL     1       7.263   7.489  17.175  0.00  0.00    +0.000 C 
ENDBRANCH   4  21
TORSDOF 4
ENDMDL
MODEL 9
REMARK VINA RESULT:      -6.1      1.966      2.532
REMARK  Name = 
REMARK  7 active torsions:
REMARK  status: ('A' for Active; 'I' for Inactive)
REMARK    1  A    between atoms: C_1  and  O_2
REMARK    2  A    between atoms: O_2  and  C_3
REMARK    3  A    between atoms: C_5  and  N_6
REMARK    4  A    between atoms: C_9  and  O_10
REMARK    5  A    between atoms: O_10  and  C_11
REMARK    6  A    between atoms: C_13  and  C_14
REMARK    7  A    between atoms: C_18  and  C_19
REMARK                            x       y       z     vdW  Elec       q    Type
REMARK                         _______ _______ _______ _____ _____    ______ ____
ROOT
ATOM      1  C   UNL     1       2.390   5.770  19.659  0.00  0.00    +0.000 A 
ATOM      2  C   UNL     1       3.209   4.802  19.067  0.00  0.00    +0.000 A 
ATOM      3  C   UNL     1       4.172   5.185  18.126  0.00  0.00    +0.000 A 
ATOM      4  C   UNL     1       4.302   6.500  17.687  0.00  0.00    +0.000 A 
ATOM      5  C   UNL     1       3.452   7.452  18.255  0.00  0.00    +0.000 A 
ATOM      6  C   UNL     1       2.508   7.117  19.260  0.00  0.00    +0.000 A 
ENDROOT
BRANCH   6   7
ATOM      7  C   UNL     1       1.775   8.234  19.862  0.00  0.00    +0.000 A 
ATOM      8  C   UNL     1       1.175   9.299  19.204  0.00  0.00    +0.000 A 
ATOM      9  N   UNL     1       0.458   9.941  20.169  0.00  0.00    +0.000 N 
ATOM     10  N   UNL     1      -0.425  10.969  20.121  0.00  0.00    +0.000 NA
ATOM     11  C   UNL     1      -0.886  11.086  21.335  0.00  0.00    +0.000 A 
ATOM     12  C   UNL     1      -1.926  12.070  21.750  0.00  0.00    +0.000 C 
ATOM     13  S   UNL     1      -0.265   9.978  22.585  0.00  0.00    +0.000 S 
ATOM     14  C   UNL     1       0.678   9.289  21.334  0.00  0.00    +0.000 A 
ATOM     15  N   UNL     1       1.456   8.250  21.223  0.00  0.00    +0.000 NA
ENDBRANCH   6   7
BRANCH   3  16
ATOM     16  N   UNL     1       5.085   4.159  17.660  0.00  0.00    +0.000 N 
ATOM     17  O   UNL     1       4.737   3.511  16.663  0.00  0.00    +0.000 OA
ATOM     18  O   UNL     1       6.093   3.940  18.346  0.00  0.00    +0.000 OA
ENDBRANCH   3  16
BRANCH   1  20
ATOM     19  C   UNL     1       0.946   4.090  20.483  0.00  0.00    +0.000 C 
ATOM     20  O   UNL     1       1.444   5.425  20.591  0.00  0.00    +0.000 OA
ENDBRANCH   1  20
BRANCH   4  21
ATOM     21  O   UNL     1       5.237   6.761  16.725  0.00  0.00    +0.000 OA
ATOM     22  C   UNL     1       6.511   7.229  17.151  0.00  0.00    +0.000 C 
ENDBRANCH   4  21
TORSDOF 4
ENDMDL
