MODEL 1
REMARK VINA RESULT:      -7.4      0.000      0.000
REMARK  Name = 
REMARK  4 active torsions:
REMARK  status: ('A' for Active; 'I' for Inactive)
REMARK    1  A    between atoms: C_1  and  C_2
REMARK    2  A    between atoms: C_2  and  C_3
REMARK    3  A    between atoms: C_2  and  N_13
REMARK    4  A    between atoms: N_13  and  O_14
REMARK                            x       y       z     vdW  Elec       q    Type
REMARK                         _______ _______ _______ _____ _____    ______ ____
ROOT
ATOM      1  C   UNL     1       6.928   4.478  15.455  0.00  0.00    +0.000 C 
ATOM      2  C   UNL     1       6.360   5.447  16.492  0.00  0.00    +0.000 C 
ENDROOT
BRANCH   2   3
ATOM      3  C   UNL     1       5.108   4.903  17.146  0.00  0.00    +0.000 A 
ATOM      4  C   UNL     1       4.457   3.704  16.929  0.00  0.00    +0.000 A 
ATOM      5  C   UNL     1       3.263   3.551  17.709  0.00  0.00    +0.000 A 
ATOM      6  C   UNL     1       2.323   2.496  17.756  0.00  0.00    +0.000 A 
ATOM      7  C   UNL     1       1.218   2.589  18.600  0.00  0.00    +0.000 A 
ATOM      8  F   UNL     1       0.334   1.583  18.633  0.00  0.00    +0.000 F 
ATOM      9  C   UNL     1       1.019   3.697  19.403  0.00  0.00    +0.000 A 
ATOM     10  C   UNL     1       1.932   4.752  19.383  0.00  0.00    +0.000 A 
ATOM     11  C   UNL     1       3.050   4.664  18.527  0.00  0.00    +0.000 A 
ATOM     12  S   UNL     1       4.296   5.834  18.329  0.00  0.00    +0.000 S 
ENDBRANCH   2   3
BRANCH   2  13
ATOM     13  N   UNL     1       7.312   5.848  17.537  0.00  0.00    +0.000 N 
ATOM     14  C   UNL     1       7.686   7.126  17.851  0.00  0.00    +0.000 C 
ATOM     15  N   UNL     1       8.512   7.228  18.928  0.00  0.00    +0.000 N 
ATOM     16  O   UNL     1       7.354   8.139  17.246  0.00  0.00    +0.000 OA
ATOM     17  H   UNL     1       9.057   6.416  19.173  0.00  0.00    +0.000 HD
ATOM     18  H   UNL     1       8.897   8.144  19.111  0.00  0.00    +0.000 HD
BRANCH  13  19
ATOM     19  O   UNL     1       7.610   4.817  18.463  0.00  0.00    +0.000 OA
ATOM     20  H   UNL     1       7.394   4.021  17.943  0.00  0.00    +0.000 HD
ENDBRANCH  13  19
ENDBRANCH   2  13
TORSDOF 3
ENDMDL
MODEL 2
REMARK VINA RESULT:      -7.3      0.475      1.301
REMARK  Name = 
REMARK  4 active torsions:
REMARK  status: ('A' for Active; 'I' for Inactive)
REMARK    1  A    between atoms: C_1  and  C_2
REMARK    2  A    between atoms: C_2  and  C_3
REMARK    3  A    between atoms: C_2  and  N_13
REMARK    4  A    between atoms: N_13  and  O_14
REMARK                            x       y       z     vdW  Elec       q    Type
REMARK                         _______ _______ _______ _____ _____    ______ ____
ROOT
ATOM      1  C   UNL     1       6.774   4.766  15.462  0.00  0.00    +0.000 C 
ATOM      2  C   UNL     1       6.038   5.774  16.344  0.00  0.00    +0.000 C 
ENDROOT
BRANCH   2   3
ATOM      3  C   UNL     1       4.854   5.148  17.051  0.00  0.00    +0.000 A 
ATOM      4  C   UNL     1       4.267   3.914  16.848  0.00  0.00    +0.000 A 
ATOM      5  C   UNL     1       3.123   3.681  17.683  0.00  0.00    +0.000 A 
ATOM      6  C   UNL     1       2.252   2.569  17.760  0.00  0.00    +0.000 A 
ATOM      7  C   UNL     1       1.186   2.586  18.656  0.00  0.00    +0.000 A 
ATOM      8  F   UNL     1       0.366   1.528  18.718  0.00  0.00    +0.000 F 
ATOM      9  C   UNL     1       0.960   3.670  19.484  0.00  0.00    +0.000 A 
ATOM     10  C   UNL     1       1.806   4.779  19.435  0.00  0.00    +0.000 A 
ATOM     11  C   UNL     1       2.884   4.769  18.525  0.00  0.00    +0.000 A 
ATOM     12  S   UNL     1       4.046   6.015  18.284  0.00  0.00    +0.000 S 
ENDBRANCH   2   3
BRANCH   2  13
ATOM     13  N   UNL     1       6.885   6.450  17.337  0.00  0.00    +0.000 N 
ATOM     14  C   UNL     1       7.592   5.854  18.346  0.00  0.00    +0.000 C 
ATOM     15  N   UNL     1       8.375   6.700  19.068  0.00  0.00    +0.000 N 
ATOM     16  O   UNL     1       7.555   4.664  18.640  0.00  0.00    +0.000 OA
ATOM     17  H   UNL     1       8.124   7.676  19.071  0.00  0.00    +0.000 HD
ATOM     18  H   UNL     1       8.816   6.310  19.890  0.00  0.00    +0.000 HD
BRANCH  13  19
ATOM     19  O   UNL     1       7.203   7.789  16.999  0.00  0.00    +0.000 OA
ATOM     20  H   UNL     1       6.414   8.054  16.492  0.00  0.00    +0.000 HD
ENDBRANCH  13  19
ENDBRANCH   2  13
TORSDOF 3
ENDMDL
MODEL 3
REMARK VINA RESULT:      -7.2      1.096      1.659
REMARK  Name = 
REMARK  4 active torsions:
REMARK  status: ('A' for Active; 'I' for Inactive)
REMARK    1  A    between atoms: C_1  and  C_2
REMARK    2  A    between atoms: C_2  and  C_3
REMARK    3  A    between atoms: C_2  and  N_13
REMARK    4  A    between atoms: N_13  and  O_14
REMARK                            x       y       z     vdW  Elec       q    Type
REMARK                         _______ _______ _______ _____ _____    ______ ____
ROOT
ATOM      1  C   UNL     1       7.029   4.800  15.320  0.00  0.00    +0.000 C 
ATOM      2  C   UNL     1       6.439   5.702  16.405  0.00  0.00    +0.000 C 
ENDROOT
BRANCH   2   3
ATOM      3  C   UNL     1       5.176   5.116  17.001  0.00  0.00    +0.000 A 
ATOM      4  C   UNL     1       4.332   5.648  17.956  0.00  0.00    +0.000 A 
ATOM      5  C   UNL     1       3.249   4.776  18.311  0.00  0.00    +0.000 A 
ATOM      6  C   UNL     1       2.203   4.942  19.248  0.00  0.00    +0.000 A 
ATOM      7  C   UNL     1       1.264   3.928  19.425  0.00  0.00    +0.000 A 
ATOM      8  F   UNL     1       0.279   4.098  20.318  0.00  0.00    +0.000 F 
ATOM      9  C   UNL     1       1.328   2.755  18.697  0.00  0.00    +0.000 A 
ATOM     10  C   UNL     1       2.345   2.564  17.760  0.00  0.00    +0.000 A 
ATOM     11  C   UNL     1       3.300   3.585  17.581  0.00  0.00    +0.000 A 
ATOM     12  S   UNL     1       4.638   3.572  16.499  0.00  0.00    +0.000 S 
ENDBRANCH   2   3
BRANCH   2  13
ATOM     13  N   UNL     1       7.370   6.040  17.490  0.00  0.00    +0.000 N 
ATOM     14  C   UNL     1       7.733   7.297  17.891  0.00  0.00    +0.000 C 
ATOM     15  N   UNL     1       8.539   7.333  18.987  0.00  0.00    +0.000 N 
ATOM     16  O   UNL     1       7.407   8.345  17.344  0.00  0.00    +0.000 OA
ATOM     17  H   UNL     1       9.083   6.510  19.190  0.00  0.00    +0.000 HD
ATOM     18  H   UNL     1       8.916   8.237  19.234  0.00  0.00    +0.000 HD
BRANCH  13  19
ATOM     19  O   UNL     1       7.656   4.954  18.354  0.00  0.00    +0.000 OA
ATOM     20  H   UNL     1       8.605   5.091  18.531  0.00  0.00    +0.000 HD
ENDBRANCH  13  19
ENDBRANCH   2  13
TORSDOF 3
ENDMDL
MODEL 4
REMARK VINA RESULT:      -7.2      1.153      2.086
REMARK  Name = 
REMARK  4 active torsions:
REMARK  status: ('A' for Active; 'I' for Inactive)
REMARK    1  A    between atoms: C_1  and  C_2
REMARK    2  A    between atoms: C_2  and  C_3
REMARK    3  A    between atoms: C_2  and  N_13
REMARK    4  A    between atoms: N_13  and  O_14
REMARK                            x       y       z     vdW  Elec       q    Type
REMARK                         _______ _______ _______ _____ _____    ______ ____
ROOT
ATOM      1  C   UNL     1       7.006   4.996  15.384  0.00  0.00    +0.000 C 
ATOM      2  C   UNL     1       6.219   5.949  16.283  0.00  0.00    +0.000 C 
ENDROOT
BRANCH   2   3
ATOM      3  C   UNL     1       5.020   5.272  16.911  0.00  0.00    +0.000 A 
ATOM      4  C   UNL     1       4.128   5.762  17.846  0.00  0.00    +0.000 A 
ATOM      5  C   UNL     1       3.135   4.807  18.245  0.00  0.00    +0.000 A 
ATOM      6  C   UNL     1       2.078   4.914  19.178  0.00  0.00    +0.000 A 
ATOM      7  C   UNL     1       1.242   3.823  19.406  0.00  0.00    +0.000 A 
ATOM      8  F   UNL     1       0.245   3.937  20.295  0.00  0.00    +0.000 F 
ATOM      9  C   UNL     1       1.418   2.629  18.731  0.00  0.00    +0.000 A 
ATOM     10  C   UNL     1       2.448   2.495  17.799  0.00  0.00    +0.000 A 
ATOM     11  C   UNL     1       3.301   3.595  17.569  0.00  0.00    +0.000 A 
ATOM     12  S   UNL     1       4.633   3.662  16.482  0.00  0.00    +0.000 S 
ENDBRANCH   2   3
BRANCH   2  13
ATOM     13  N   UNL     1       7.016   6.589  17.339  0.00  0.00    +0.000 N 
ATOM     14  C   UNL     1       7.651   5.960  18.376  0.00  0.00    +0.000 C 
ATOM     15  N   UNL     1       8.403   6.777  19.162  0.00  0.00    +0.000 N 
ATOM     16  O   UNL     1       7.579   4.765  18.640  0.00  0.00    +0.000 OA
ATOM     17  H   UNL     1       8.167   7.757  19.171  0.00  0.00    +0.000 HD
ATOM     18  H   UNL     1       8.787   6.363  19.999  0.00  0.00    +0.000 HD
BRANCH  13  19
ATOM     19  O   UNL     1       7.375   7.929  17.051  0.00  0.00    +0.000 OA
ATOM     20  H   UNL     1       7.504   7.892  16.085  0.00  0.00    +0.000 HD
ENDBRANCH  13  19
ENDBRANCH   2  13
TORSDOF 3
ENDMDL
MODEL 5
REMARK VINA RESULT:      -6.9      1.566      1.710
REMARK  Name = 
REMARK  4 active torsions:
REMARK  status: ('A' for Active; 'I' for Inactive)
REMARK    1  A    between atoms: C_1  and  C_2
REMARK    2  A    between atoms: C_2  and  C_3
REMARK    3  A    between atoms: C_2  and  N_13
REMARK    4  A    between atoms: N_13  and  O_14
REMARK                            x       y       z     vdW  Elec       q    Type
REMARK                         _______ _______ _______ _____ _____    ______ ____
ROOT
ATOM      1  C   UNL     1       5.262   6.703  15.512  0.00  0.00    +0.000 C 
ATOM      2  C   UNL     1       5.623   6.226  16.919  0.00  0.00    +0.000 C 
ENDROOT
BRANCH   2   3
ATOM      3  C   UNL     1       4.493   5.448  17.559  0.00  0.00    +0.000 A 
ATOM      4  C   UNL     1       3.922   4.253  17.168  0.00  0.00    +0.000 A 
ATOM      5  C   UNL     1       2.830   3.840  18.003  0.00  0.00    +0.000 A 
ATOM      6  C   UNL     1       1.988   2.706  17.923  0.00  0.00    +0.000 A 
ATOM      7  C   UNL     1       0.972   2.531  18.859  0.00  0.00    +0.000 A 
ATOM      8  F   UNL     1       0.180   1.454  18.771  0.00  0.00    +0.000 F 
ATOM      9  C   UNL     1       0.768   3.443  19.878  0.00  0.00    +0.000 A 
ATOM     10  C   UNL     1       1.587   4.568  19.987  0.00  0.00    +0.000 A 
ATOM     11  C   UNL     1       2.614   4.753  19.038  0.00  0.00    +0.000 A 
ATOM     12  S   UNL     1       3.734   6.057  18.966  0.00  0.00    +0.000 S 
ENDBRANCH   2   3
BRANCH   2  13
ATOM     13  N   UNL     1       6.856   5.430  16.996  0.00  0.00    +0.000 N 
ATOM     14  C   UNL     1       7.449   4.953  18.133  0.00  0.00    +0.000 C 
ATOM     15  N   UNL     1       8.534   4.161  17.919  0.00  0.00    +0.000 N 
ATOM     16  O   UNL     1       7.093   5.194  19.282  0.00  0.00    +0.000 OA
ATOM     17  H   UNL     1       9.024   4.271  17.045  0.00  0.00    +0.000 HD
ATOM     18  H   UNL     1       9.060   3.891  18.739  0.00  0.00    +0.000 HD
BRANCH  13  19
ATOM     19  O   UNL     1       7.262   4.886  15.752  0.00  0.00    +0.000 OA
ATOM     20  H   UNL     1       8.049   4.373  16.012  0.00  0.00    +0.000 HD
ENDBRANCH  13  19
ENDBRANCH   2  13
TORSDOF 3
ENDMDL
MODEL 6
REMARK VINA RESULT:      -6.9      1.807      2.227
REMARK  Name = 
REMARK  4 active torsions:
REMARK  status: ('A' for Active; 'I' for Inactive)
REMARK    1  A    between atoms: C_1  and  C_2
REMARK    2  A    between atoms: C_2  and  C_3
REMARK    3  A    between atoms: C_2  and  N_13
REMARK    4  A    between atoms: N_13  and  O_14
REMARK                            x       y       z     vdW  Elec       q    Type
REMARK                         _______ _______ _______ _____ _____    ______ ____
ROOT
ATOM      1  C   UNL     1       5.789   3.465  15.533  0.00  0.00    +0.000 C 
ATOM      2  C   UNL     1       5.020   4.704  15.995  0.00  0.00    +0.000 C 
ENDROOT
BRANCH   2   3
ATOM      3  C   UNL     1       4.252   4.447  17.273  0.00  0.00    +0.000 A 
ATOM      4  C   UNL     1       4.166   3.292  18.026  0.00  0.00    +0.000 A 
ATOM      5  C   UNL     1       3.296   3.412  19.161  0.00  0.00    +0.000 A 
ATOM      6  C   UNL     1       2.933   2.465  20.146  0.00  0.00    +0.000 A 
ATOM      7  C   UNL     1       2.045   2.824  21.158  0.00  0.00    +0.000 A 
ATOM      8  F   UNL     1       1.707   1.916  22.084  0.00  0.00    +0.000 F 
ATOM      9  C   UNL     1       1.511   4.097  21.227  0.00  0.00    +0.000 A 
ATOM     10  C   UNL     1       1.856   5.056  20.274  0.00  0.00    +0.000 A 
ATOM     11  C   UNL     1       2.750   4.696  19.244  0.00  0.00    +0.000 A 
ATOM     12  S   UNL     1       3.311   5.698  17.963  0.00  0.00    +0.000 S 
ENDBRANCH   2   3
BRANCH   2  13
ATOM     13  N   UNL     1       5.848   5.906  16.166  0.00  0.00    +0.000 N 
ATOM     14  C   UNL     1       7.075   5.972  16.769  0.00  0.00    +0.000 C 
ATOM     15  N   UNL     1       7.672   7.193  16.709  0.00  0.00    +0.000 N 
ATOM     16  O   UNL     1       7.640   5.050  17.346  0.00  0.00    +0.000 OA
ATOM     17  H   UNL     1       7.076   7.996  16.580  0.00  0.00    +0.000 HD
ATOM     18  H   UNL     1       8.522   7.302  17.245  0.00  0.00    +0.000 HD
BRANCH  13  19
ATOM     19  O   UNL     1       5.438   7.000  15.364  0.00  0.00    +0.000 OA
ATOM     20  H   UNL     1       5.975   6.865  14.562  0.00  0.00    +0.000 HD
ENDBRANCH  13  19
ENDBRANCH   2  13
TORSDOF 3
ENDMDL
MODEL 7
REMARK VINA RESULT:      -6.9      4.444      6.189
REMARK  Name = 
REMARK  4 active torsions:
REMARK  status: ('A' for Active; 'I' for Inactive)
REMARK    1  A    between atoms: C_1  and  C_2
REMARK    2  A    between atoms: C_2  and  C_3
REMARK    3  A    between atoms: C_2  and  N_13
REMARK    4  A    between atoms: N_13  and  O_14
REMARK                            x       y       z     vdW  Elec       q    Type
REMARK                         _______ _______ _______ _____ _____    ______ ____
ROOT
ATOM      1  C   UNL     1       1.240   4.432  17.465  0.00  0.00    +0.000 C 
ATOM      2  C   UNL     1       2.405   3.586  17.979  0.00  0.00    +0.000 C 
ENDROOT
BRANCH   2   3
ATOM      3  C   UNL     1       3.683   4.390  18.084  0.00  0.00    +0.000 A 
ATOM      4  C   UNL     1       4.086   5.492  17.356  0.00  0.00    +0.000 A 
ATOM      5  C   UNL     1       5.395   5.964  17.708  0.00  0.00    +0.000 A 
ATOM      6  C   UNL     1       6.157   7.035  17.187  0.00  0.00    +0.000 A 
ATOM      7  C   UNL     1       7.430   7.289  17.693  0.00  0.00    +0.000 A 
ATOM      8  F   UNL     1       8.144   8.305  17.190  0.00  0.00    +0.000 F 
ATOM      9  C   UNL     1       7.968   6.516  18.705  0.00  0.00    +0.000 A 
ATOM     10  C   UNL     1       7.237   5.456  19.244  0.00  0.00    +0.000 A 
ATOM     11  C   UNL     1       5.950   5.192  18.731  0.00  0.00    +0.000 A 
ATOM     12  S   UNL     1       4.874   3.944  19.228  0.00  0.00    +0.000 S 
ENDBRANCH   2   3
BRANCH   2  13
ATOM     13  N   UNL     1       2.153   2.916  19.263  0.00  0.00    +0.000 N 
ATOM     14  C   UNL     1       1.624   3.486  20.389  0.00  0.00    +0.000 C 
ATOM     15  N   UNL     1       1.405   2.619  21.415  0.00  0.00    +0.000 N 
ATOM     16  O   UNL     1       1.360   4.674  20.535  0.00  0.00    +0.000 OA
ATOM     17  H   UNL     1       1.946   1.769  21.427  0.00  0.00    +0.000 HD
ATOM     18  H   UNL     1       1.126   3.029  22.295  0.00  0.00    +0.000 HD
BRANCH  13  19
ATOM     19  O   UNL     1       2.198   1.502  19.187  0.00  0.00    +0.000 OA
ATOM     20  H   UNL     1       1.632   1.331  18.412  0.00  0.00    +0.000 HD
ENDBRANCH  13  19
ENDBRANCH   2  13
TORSDOF 3
ENDMDL
MODEL 8
REMARK VINA RESULT:      -6.9      4.169      5.212
REMARK  Name = 
REMARK  4 active torsions:
REMARK  status: ('A' for Active; 'I' for Inactive)
REMARK    1  A    between atoms: C_1  and  C_2
REMARK    2  A    between atoms: C_2  and  C_3
REMARK    3  A    between atoms: C_2  and  N_13
REMARK    4  A    between atoms: N_13  and  O_14
REMARK                            x       y       z     vdW  Elec       q    Type
REMARK                         _______ _______ _______ _____ _____    ______ ____
ROOT
ATOM      1  C   UNL     1       5.001   4.595  16.295  0.00  0.00    +0.000 C 
ATOM      2  C   UNL     1       4.710   4.573  17.796  0.00  0.00    +0.000 C 
ENDROOT
BRANCH   2   3
ATOM      3  C   UNL     1       3.805   5.712  18.213  0.00  0.00    +0.000 A 
ATOM      4  C   UNL     1       3.404   6.820  17.491  0.00  0.00    +0.000 A 
ATOM      5  C   UNL     1       2.572   7.719  18.238  0.00  0.00    +0.000 A 
ATOM      6  C   UNL     1       1.986   8.952  17.869  0.00  0.00    +0.000 A 
ATOM      7  C   UNL     1       1.217   9.658  18.792  0.00  0.00    +0.000 A 
ATOM      8  F   UNL     1       0.670  10.826  18.430  0.00  0.00    +0.000 F 
ATOM      9  C   UNL     1       1.006   9.174  20.070  0.00  0.00    +0.000 A 
ATOM     10  C   UNL     1       1.565   7.957  20.461  0.00  0.00    +0.000 A 
ATOM     11  C   UNL     1       2.349   7.242  19.532  0.00  0.00    +0.000 A 
ATOM     12  S   UNL     1       3.140   5.735  19.789  0.00  0.00    +0.000 S 
ENDBRANCH   2   3
BRANCH   2  13
ATOM     13  N   UNL     1       4.147   3.308  18.290  0.00  0.00    +0.000 N 
ATOM     14  C   UNL     1       3.026   2.677  17.822  0.00  0.00    +0.000 C 
ATOM     15  N   UNL     1       2.776   1.467  18.391  0.00  0.00    +0.000 N 
ATOM     16  O   UNL     1       2.259   3.117  16.972  0.00  0.00    +0.000 OA
ATOM     17  H   UNL     1       3.167   1.294  19.304  0.00  0.00    +0.000 HD
ATOM     18  H   UNL     1       1.895   1.033  18.150  0.00  0.00    +0.000 HD
BRANCH  13  19
ATOM     19  O   UNL     1       5.034   2.571  19.113  0.00  0.00    +0.000 OA
ATOM     20  H   UNL     1       4.426   2.223  19.791  0.00  0.00    +0.000 HD
ENDBRANCH  13  19
ENDBRANCH   2  13
TORSDOF 3
ENDMDL
MODEL 9
REMARK VINA RESULT:      -6.8      1.497      1.553
REMARK  Name = 
REMARK  4 active torsions:
REMARK  status: ('A' for Active; 'I' for Inactive)
REMARK    1  A    between atoms: C_1  and  C_2
REMARK    2  A    between atoms: C_2  and  C_3
REMARK    3  A    between atoms: C_2  and  N_13
REMARK    4  A    between atoms: N_13  and  O_14
REMARK                            x       y       z     vdW  Elec       q    Type
REMARK                         _______ _______ _______ _____ _____    ______ ____
ROOT
ATOM      1  C   UNL     1       6.544   4.104  16.130  0.00  0.00    +0.000 C 
ATOM      2  C   UNL     1       6.134   5.267  17.033  0.00  0.00    +0.000 C 
ENDROOT
BRANCH   2   3
ATOM      3  C   UNL     1       5.028   4.877  17.990  0.00  0.00    +0.000 A 
ATOM      4  C   UNL     1       4.943   3.783  18.830  0.00  0.00    +0.000 A 
ATOM      5  C   UNL     1       3.711   3.719  19.563  0.00  0.00    +0.000 A 
ATOM      6  C   UNL     1       3.242   2.761  20.491  0.00  0.00    +0.000 A 
ATOM      7  C   UNL     1       1.983   2.914  21.067  0.00  0.00    +0.000 A 
ATOM      8  F   UNL     1       1.549   1.997  21.944  0.00  0.00    +0.000 F 
ATOM      9  C   UNL     1       1.176   3.992  20.756  0.00  0.00    +0.000 A 
ATOM     10  C   UNL     1       1.614   4.958  19.848  0.00  0.00    +0.000 A 
ATOM     11  C   UNL     1       2.886   4.804  19.258  0.00  0.00    +0.000 A 
ATOM     12  S   UNL     1       3.630   5.854  18.115  0.00  0.00    +0.000 S 
ENDBRANCH   2   3
BRANCH   2  13
ATOM     13  N   UNL     1       7.238   5.865  17.796  0.00  0.00    +0.000 N 
ATOM     14  C   UNL     1       7.541   7.197  17.883  0.00  0.00    +0.000 C 
ATOM     15  N   UNL     1       8.560   7.493  18.736  0.00  0.00    +0.000 N 
ATOM     16  O   UNL     1       6.991   8.099  17.261  0.00  0.00    +0.000 OA
ATOM     17  H   UNL     1       9.222   6.761  18.940  0.00  0.00    +0.000 HD
ATOM     18  H   UNL     1       8.882   8.451  18.732  0.00  0.00    +0.000 HD
BRANCH  13  19
ATOM     19  O   UNL     1       7.825   4.983  18.738  0.00  0.00    +0.000 OA
ATOM     20  H   UNL     1       7.527   5.373  19.580  0.00  0.00    +0.000 HD
ENDBRANCH  13  19
ENDBRANCH   2  13
TORSDOF 3
ENDMDL
