MODEL 1
REMARK VINA RESULT:      -6.4      0.000      0.000
REMARK  Name = 
REMARK  4 active torsions:
REMARK  status: ('A' for Active; 'I' for Inactive)
REMARK    1  A    between atoms: C_1  and  C_2
REMARK    2  A    between atoms: C_3  and  N_4
REMARK    3  A    between atoms: N_7  and  C_8
REMARK    4  A    between atoms: C_16  and  N_17
REMARK                            x       y       z     vdW  Elec       q    Type
REMARK                         _______ _______ _______ _____ _____    ______ ____
ROOT
ATOM      1  N   UNL     1       5.305   3.792  17.751  0.00  0.00    +0.000 N 
ATOM      2  C   UNL     1       5.261   4.133  16.397  0.00  0.00    +0.000 C 
ATOM      3  O   UNL     1       4.348   4.761  15.881  0.00  0.00    +0.000 OA
ATOM      4  N   UNL     1       6.393   3.662  15.744  0.00  0.00    +0.000 N 
ATOM      5  H   UNL     1       6.235   3.948  18.116  0.00  0.00    +0.000 HD
ATOM      6  H   UNL     1       6.696   2.748  16.039  0.00  0.00    +0.000 HD
ENDROOT
BRANCH   1   9
ATOM      7  C   UNL     1       3.303   1.758  18.679  0.00  0.00    +0.000 C 
ATOM      8  C   UNL     1       3.249   3.220  19.033  0.00  0.00    +0.000 A 
ATOM      9  C   UNL     1       4.240   4.135  18.621  0.00  0.00    +0.000 A 
ATOM     10  C   UNL     1       4.226   5.457  19.093  0.00  0.00    +0.000 A 
ATOM     11  C   UNL     1       3.198   5.918  19.914  0.00  0.00    +0.000 A 
ATOM     12  C   UNL     1       2.173   5.056  20.284  0.00  0.00    +0.000 A 
ATOM     13  C   UNL     1       2.204   3.726  19.838  0.00  0.00    +0.000 A 
BRANCH  13  14
ATOM     14  N   UNL     1       1.106   2.872  20.269  0.00  0.00    +0.000 N 
ATOM     15  O   UNL     1       1.108   2.485  21.444  0.00  0.00    +0.000 OA
ATOM     16  O   UNL     1       0.261   2.574  19.414  0.00  0.00    +0.000 OA
ENDBRANCH  13  14
ENDBRANCH   1   9
BRANCH   4  17
ATOM     17  C   UNL     1       6.512   3.916  14.394  0.00  0.00    +0.000 A 
ATOM     18  C   UNL     1       5.973   3.296  13.295  0.00  0.00    +0.000 A 
ATOM     19  C   UNL     1       6.531   3.808  12.085  0.00  0.00    +0.000 A 
ATOM     20  C   UNL     1       7.454   4.803  12.326  0.00  0.00    +0.000 A 
ATOM     21  S   UNL     1       7.543   5.204  13.993  0.00  0.00    +0.000 S 
ENDBRANCH   4  17
TORSDOF 3
ENDMDL
MODEL 2
REMARK VINA RESULT:      -6.3      4.414      6.480
REMARK  Name = 
REMARK  4 active torsions:
REMARK  status: ('A' for Active; 'I' for Inactive)
REMARK    1  A    between atoms: C_1  and  C_2
REMARK    2  A    between atoms: C_3  and  N_4
REMARK    3  A    between atoms: N_7  and  C_8
REMARK    4  A    between atoms: C_16  and  N_17
REMARK                            x       y       z     vdW  Elec       q    Type
REMARK                         _______ _______ _______ _____ _____    ______ ____
ROOT
ATOM      1  N   UNL     1       2.950   7.147  17.597  0.00  0.00    +0.000 N 
ATOM      2  C   UNL     1       2.231   8.004  18.433  0.00  0.00    +0.000 C 
ATOM      3  O   UNL     1       2.107   7.839  19.637  0.00  0.00    +0.000 OA
ATOM      4  N   UNL     1       1.694   9.055  17.700  0.00  0.00    +0.000 N 
ATOM      5  H   UNL     1       3.509   7.686  16.949  0.00  0.00    +0.000 HD
ATOM      6  H   UNL     1       1.338   8.795  16.794  0.00  0.00    +0.000 HD
ENDROOT
BRANCH   1   9
ATOM      7  C   UNL     1       1.509   4.517  17.697  0.00  0.00    +0.000 C 
ATOM      8  C   UNL     1       2.901   4.740  18.227  0.00  0.00    +0.000 A 
ATOM      9  C   UNL     1       3.564   5.978  18.111  0.00  0.00    +0.000 A 
ATOM     10  C   UNL     1       4.911   6.100  18.489  0.00  0.00    +0.000 A 
ATOM     11  C   UNL     1       5.601   5.028  19.053  0.00  0.00    +0.000 A 
ATOM     12  C   UNL     1       4.953   3.813  19.238  0.00  0.00    +0.000 A 
ATOM     13  C   UNL     1       3.616   3.683  18.832  0.00  0.00    +0.000 A 
BRANCH  13  14
ATOM     14  N   UNL     1       2.999   2.381  19.044  0.00  0.00    +0.000 N 
ATOM     15  O   UNL     1       2.277   2.244  20.040  0.00  0.00    +0.000 OA
ATOM     16  O   UNL     1       3.265   1.495  18.220  0.00  0.00    +0.000 OA
ENDBRANCH  13  14
ENDBRANCH   1   9
BRANCH   4  17
ATOM     17  C   UNL     1       0.953  10.002  18.374  0.00  0.00    +0.000 A 
ATOM     18  C   UNL     1      -0.344   9.999  18.823  0.00  0.00    +0.000 A 
ATOM     19  C   UNL     1      -0.726  11.284  19.313  0.00  0.00    +0.000 A 
ATOM     20  C   UNL     1       0.306  12.195  19.226  0.00  0.00    +0.000 A 
ATOM     21  S   UNL     1       1.761  11.463  18.682  0.00  0.00    +0.000 S 
ENDBRANCH   4  17
TORSDOF 3
ENDMDL
MODEL 3
REMARK VINA RESULT:      -6.3      4.587      7.344
REMARK  Name = 
REMARK  4 active torsions:
REMARK  status: ('A' for Active; 'I' for Inactive)
REMARK    1  A    between atoms: C_1  and  C_2
REMARK    2  A    between atoms: C_3  and  N_4
REMARK    3  A    between atoms: N_7  and  C_8
REMARK    4  A    between atoms: C_16  and  N_17
REMARK                            x       y       z     vdW  Elec       q    Type
REMARK                         _______ _______ _______ _____ _____    ______ ____
ROOT
ATOM      1  N   UNL     1       3.320   7.587  17.253  0.00  0.00    +0.000 N 
ATOM      2  C   UNL     1       2.502   8.215  18.195  0.00  0.00    +0.000 C 
ATOM      3  O   UNL     1       2.322   7.798  19.329  0.00  0.00    +0.000 OA
ATOM      4  N   UNL     1       1.942   9.367  17.656  0.00  0.00    +0.000 N 
ATOM      5  H   UNL     1       3.880   8.276  16.767  0.00  0.00    +0.000 HD
ATOM      6  H   UNL     1       1.654   9.281  16.694  0.00  0.00    +0.000 HD
ENDROOT
BRANCH   1   9
ATOM      7  C   UNL     1       6.312   7.388  17.357  0.00  0.00    +0.000 C 
ATOM      8  C   UNL     1       5.380   6.224  17.563  0.00  0.00    +0.000 A 
ATOM      9  C   UNL     1       3.977   6.370  17.560  0.00  0.00    +0.000 A 
ATOM     10  C   UNL     1       3.150   5.287  17.897  0.00  0.00    +0.000 A 
ATOM     11  C   UNL     1       3.686   4.028  18.170  0.00  0.00    +0.000 A 
ATOM     12  C   UNL     1       5.061   3.839  18.117  0.00  0.00    +0.000 A 
ATOM     13  C   UNL     1       5.890   4.930  17.810  0.00  0.00    +0.000 A 
BRANCH  13  14
ATOM     14  N   UNL     1       7.322   4.668  17.781  0.00  0.00    +0.000 N 
ATOM     15  O   UNL     1       7.941   4.747  18.849  0.00  0.00    +0.000 OA
ATOM     16  O   UNL     1       7.820   4.408  16.677  0.00  0.00    +0.000 OA
ENDBRANCH  13  14
ENDBRANCH   1   9
BRANCH   4  17
ATOM     17  C   UNL     1       1.105  10.114  18.456  0.00  0.00    +0.000 A 
ATOM     18  C   UNL     1      -0.128   9.846  18.994  0.00  0.00    +0.000 A 
ATOM     19  C   UNL     1      -0.688  11.004  19.614  0.00  0.00    +0.000 A 
ATOM     20  C   UNL     1       0.158  12.090  19.529  0.00  0.00    +0.000 A 
ATOM     21  S   UNL     1       1.668  11.673  18.826  0.00  0.00    +0.000 S 
ENDBRANCH   4  17
TORSDOF 3
ENDMDL
MODEL 4
REMARK VINA RESULT:      -6.3      4.071      7.433
REMARK  Name = 
REMARK  4 active torsions:
REMARK  status: ('A' for Active; 'I' for Inactive)
REMARK    1  A    between atoms: C_1  and  C_2
REMARK    2  A    between atoms: C_3  and  N_4
REMARK    3  A    between atoms: N_7  and  C_8
REMARK    4  A    between atoms: C_16  and  N_17
REMARK                            x       y       z     vdW  Elec       q    Type
REMARK                         _______ _______ _______ _____ _____    ______ ____
ROOT
ATOM      1  N   UNL     1       3.446   5.906  19.620  0.00  0.00    +0.000 N 
ATOM      2  C   UNL     1       2.562   6.955  19.358  0.00  0.00    +0.000 C 
ATOM      3  O   UNL     1       2.229   7.303  18.234  0.00  0.00    +0.000 OA
ATOM      4  N   UNL     1       2.123   7.525  20.546  0.00  0.00    +0.000 N 
ATOM      5  H   UNL     1       3.097   5.343  20.385  0.00  0.00    +0.000 HD
ATOM      6  H   UNL     1       2.834   7.611  21.256  0.00  0.00    +0.000 HD
ENDROOT
BRANCH   1   9
ATOM      7  C   UNL     1       6.355   6.227  18.962  0.00  0.00    +0.000 C 
ATOM      8  C   UNL     1       5.404   5.355  18.186  0.00  0.00    +0.000 A 
ATOM      9  C   UNL     1       4.055   5.189  18.561  0.00  0.00    +0.000 A 
ATOM     10  C   UNL     1       3.243   4.257  17.895  0.00  0.00    +0.000 A 
ATOM     11  C   UNL     1       3.724   3.530  16.806  0.00  0.00    +0.000 A 
ATOM     12  C   UNL     1       5.030   3.721  16.374  0.00  0.00    +0.000 A 
ATOM     13  C   UNL     1       5.851   4.630  17.059  0.00  0.00    +0.000 A 
BRANCH  13  14
ATOM     14  N   UNL     1       7.212   4.776  16.562  0.00  0.00    +0.000 N 
ATOM     15  O   UNL     1       8.104   4.141  17.139  0.00  0.00    +0.000 OA
ATOM     16  O   UNL     1       7.380   5.550  15.609  0.00  0.00    +0.000 OA
ENDBRANCH  13  14
ENDBRANCH   1   9
BRANCH   4  17
ATOM     17  C   UNL     1       1.238   8.579  20.470  0.00  0.00    +0.000 A 
ATOM     18  C   UNL     1       1.115   9.608  19.571  0.00  0.00    +0.000 A 
ATOM     19  C   UNL     1       0.151  10.566  20.007  0.00  0.00    +0.000 A 
ATOM     20  C   UNL     1      -0.422  10.207  21.209  0.00  0.00    +0.000 A 
ATOM     21  S   UNL     1       0.106   8.659  21.733  0.00  0.00    +0.000 S 
ENDBRANCH   4  17
TORSDOF 3
ENDMDL
MODEL 5
REMARK VINA RESULT:      -6.2      4.909      7.710
REMARK  Name = 
REMARK  4 active torsions:
REMARK  status: ('A' for Active; 'I' for Inactive)
REMARK    1  A    between atoms: C_1  and  C_2
REMARK    2  A    between atoms: C_3  and  N_4
REMARK    3  A    between atoms: N_7  and  C_8
REMARK    4  A    between atoms: C_16  and  N_17
REMARK                            x       y       z     vdW  Elec       q    Type
REMARK                         _______ _______ _______ _____ _____    ______ ____
ROOT
ATOM      1  N   UNL     1       2.211   6.840  20.778  0.00  0.00    +0.000 N 
ATOM      2  C   UNL     1       1.485   8.018  20.587  0.00  0.00    +0.000 C 
ATOM      3  O   UNL     1       1.023   8.369  19.511  0.00  0.00    +0.000 OA
ATOM      4  N   UNL     1       1.367   8.712  21.784  0.00  0.00    +0.000 N 
ATOM      5  H   UNL     1       1.913   6.385  21.630  0.00  0.00    +0.000 HD
ATOM      6  H   UNL     1       2.196   8.700  22.357  0.00  0.00    +0.000 HD
ENDROOT
BRANCH   1   9
ATOM      7  C   UNL     1       1.073   4.068  20.621  0.00  0.00    +0.000 C 
ATOM      8  C   UNL     1       2.024   4.650  19.609  0.00  0.00    +0.000 A 
ATOM      9  C   UNL     1       2.493   5.977  19.690  0.00  0.00    +0.000 A 
ATOM     10  C   UNL     1       3.262   6.523  18.649  0.00  0.00    +0.000 A 
ATOM     11  C   UNL     1       3.641   5.750  17.551  0.00  0.00    +0.000 A 
ATOM     12  C   UNL     1       3.247   4.420  17.477  0.00  0.00    +0.000 A 
ATOM     13  C   UNL     1       2.452   3.884  18.502  0.00  0.00    +0.000 A 
BRANCH  13  14
ATOM     14  N   UNL     1       2.064   2.488  18.358  0.00  0.00    +0.000 N 
ATOM     15  O   UNL     1       0.873   2.244  18.131  0.00  0.00    +0.000 OA
ATOM     16  O   UNL     1       2.958   1.642  18.500  0.00  0.00    +0.000 OA
ENDBRANCH  13  14
ENDBRANCH   1   9
BRANCH   4  17
ATOM     17  C   UNL     1       0.674   9.903  21.776  0.00  0.00    +0.000 A 
ATOM     18  C   UNL     1       0.841  11.054  21.048  0.00  0.00    +0.000 A 
ATOM     19  C   UNL     1      -0.018  12.094  21.517  0.00  0.00    +0.000 A 
ATOM     20  C   UNL     1      -0.807  11.673  22.568  0.00  0.00    +0.000 A 
ATOM     21  S   UNL     1      -0.602  10.000  22.891  0.00  0.00    +0.000 S 
ENDBRANCH   4  17
TORSDOF 3
ENDMDL
MODEL 6
REMARK VINA RESULT:      -6.2      4.742      6.124
REMARK  Name = 
REMARK  4 active torsions:
REMARK  status: ('A' for Active; 'I' for Inactive)
REMARK    1  A    between atoms: C_1  and  C_2
REMARK    2  A    between atoms: C_3  and  N_4
REMARK    3  A    between atoms: N_7  and  C_8
REMARK    4  A    between atoms: C_16  and  N_17
REMARK                            x       y       z     vdW  Elec       q    Type
REMARK                         _______ _______ _______ _____ _____    ______ ____
ROOT
ATOM      1  N   UNL     1       7.784   6.394  18.280  0.00  0.00    +0.000 N 
ATOM      2  C   UNL     1       7.836   7.768  18.036  0.00  0.00    +0.000 C 
ATOM      3  O   UNL     1       7.163   8.338  17.190  0.00  0.00    +0.000 OA
ATOM      4  N   UNL     1       8.749   8.375  18.889  0.00  0.00    +0.000 N 
ATOM      5  H   UNL     1       7.779   6.220  19.276  0.00  0.00    +0.000 HD
ATOM      6  H   UNL     1       9.590   7.844  19.048  0.00  0.00    +0.000 HD
ENDROOT
BRANCH   1   9
ATOM      7  C   UNL     1       5.173   5.358  19.337  0.00  0.00    +0.000 C 
ATOM      8  C   UNL     1       5.742   5.000  17.990  0.00  0.00    +0.000 A 
ATOM      9  C   UNL     1       6.946   5.551  17.507  0.00  0.00    +0.000 A 
ATOM     10  C   UNL     1       7.364   5.300  16.190  0.00  0.00    +0.000 A 
ATOM     11  C   UNL     1       6.644   4.446  15.356  0.00  0.00    +0.000 A 
ATOM     12  C   UNL     1       5.487   3.838  15.827  0.00  0.00    +0.000 A 
ATOM     13  C   UNL     1       5.052   4.114  17.132  0.00  0.00    +0.000 A 
BRANCH  13  14
ATOM     14  N   UNL     1       3.828   3.452  17.561  0.00  0.00    +0.000 N 
ATOM     15  O   UNL     1       2.755   4.014  17.310  0.00  0.00    +0.000 OA
ATOM     16  O   UNL     1       3.955   2.382  18.172  0.00  0.00    +0.000 OA
ENDBRANCH  13  14
ENDBRANCH   1   9
BRANCH   4  17
ATOM     17  C   UNL     1       8.924   9.738  18.784  0.00  0.00    +0.000 A 
ATOM     18  C   UNL     1       8.836  10.593  17.715  0.00  0.00    +0.000 A 
ATOM     19  C   UNL     1       9.281  11.905  18.060  0.00  0.00    +0.000 A 
ATOM     20  C   UNL     1       9.668  11.984  19.382  0.00  0.00    +0.000 A 
ATOM     21  S   UNL     1       9.369  10.519  20.225  0.00  0.00    +0.000 S 
ENDBRANCH   4  17
TORSDOF 3
ENDMDL
MODEL 7
REMARK VINA RESULT:      -6.1      4.873      7.091
REMARK  Name = 
REMARK  4 active torsions:
REMARK  status: ('A' for Active; 'I' for Inactive)
REMARK    1  A    between atoms: C_1  and  C_2
REMARK    2  A    between atoms: C_3  and  N_4
REMARK    3  A    between atoms: N_7  and  C_8
REMARK    4  A    between atoms: C_16  and  N_17
REMARK                            x       y       z     vdW  Elec       q    Type
REMARK                         _______ _______ _______ _____ _____    ______ ____
ROOT
ATOM      1  N   UNL     1       2.320   7.548  19.427  0.00  0.00    +0.000 N 
ATOM      2  C   UNL     1       1.607   8.598  18.844  0.00  0.00    +0.000 C 
ATOM      3  O   UNL     1       1.432   8.719  17.640  0.00  0.00    +0.000 OA
ATOM      4  N   UNL     1       1.133   9.462  19.823  0.00  0.00    +0.000 N 
ATOM      5  H   UNL     1       1.830   7.210  20.245  0.00  0.00    +0.000 HD
ATOM      6  H   UNL     1       1.777   9.630  20.579  0.00  0.00    +0.000 HD
ENDROOT
BRANCH   1   9
ATOM      7  C   UNL     1       1.541   4.657  19.625  0.00  0.00    +0.000 C 
ATOM      8  C   UNL     1       2.633   5.179  18.729  0.00  0.00    +0.000 A 
ATOM      9  C   UNL     1       2.932   6.553  18.625  0.00  0.00    +0.000 A 
ATOM     10  C   UNL     1       3.859   7.007  17.673  0.00  0.00    +0.000 A 
ATOM     11  C   UNL     1       4.558   6.113  16.863  0.00  0.00    +0.000 A 
ATOM     12  C   UNL     1       4.330   4.748  16.989  0.00  0.00    +0.000 A 
ATOM     13  C   UNL     1       3.380   4.296  17.919  0.00  0.00    +0.000 A 
BRANCH  13  14
ATOM     14  N   UNL     1       3.182   2.855  17.994  0.00  0.00    +0.000 N 
ATOM     15  O   UNL     1       2.322   2.356  17.260  0.00  0.00    +0.000 OA
ATOM     16  O   UNL     1       3.877   2.238  18.813  0.00  0.00    +0.000 OA
ENDBRANCH  13  14
ENDBRANCH   1   9
BRANCH   4  17
ATOM     17  C   UNL     1       0.401  10.558  19.418  0.00  0.00    +0.000 A 
ATOM     18  C   UNL     1      -0.929  10.712  19.122  0.00  0.00    +0.000 A 
ATOM     19  C   UNL     1      -1.193  12.002  18.572  0.00  0.00    +0.000 A 
ATOM     20  C   UNL     1      -0.051  12.770  18.493  0.00  0.00    +0.000 A 
ATOM     21  S   UNL     1       1.300  11.983  19.204  0.00  0.00    +0.000 S 
ENDBRANCH   4  17
TORSDOF 3
ENDMDL
MODEL 8
REMARK VINA RESULT:      -6.1      4.741      6.321
REMARK  Name = 
REMARK  4 active torsions:
REMARK  status: ('A' for Active; 'I' for Inactive)
REMARK    1  A    between atoms: C_1  and  C_2
REMARK    2  A    between atoms: C_3  and  N_4
REMARK    3  A    between atoms: N_7  and  C_8
REMARK    4  A    between atoms: C_16  and  N_17
REMARK                            x       y       z     vdW  Elec       q    Type
REMARK                         _______ _______ _______ _____ _____    ______ ____
ROOT
ATOM      1  N   UNL     1       2.869   7.127  19.998  0.00  0.00    +0.000 N 
ATOM      2  C   UNL     1       2.678   5.862  19.437  0.00  0.00    +0.000 C 
ATOM      3  O   UNL     1       1.602   5.452  19.026  0.00  0.00    +0.000 OA
ATOM      4  N   UNL     1       3.876   5.159  19.413  0.00  0.00    +0.000 N 
ATOM      5  H   UNL     1       3.722   7.538  19.642  0.00  0.00    +0.000 HD
ATOM      6  H   UNL     1       4.449   5.282  20.233  0.00  0.00    +0.000 HD
ENDROOT
BRANCH   1   9
ATOM      7  C   UNL     1       2.021   9.005  17.817  0.00  0.00    +0.000 C 
ATOM      8  C   UNL     1       1.389   8.954  19.182  0.00  0.00    +0.000 A 
ATOM      9  C   UNL     1       1.781   8.020  20.162  0.00  0.00    +0.000 A 
ATOM     10  C   UNL     1       1.068   7.914  21.368  0.00  0.00    +0.000 A 
ATOM     11  C   UNL     1       0.010   8.775  21.657  0.00  0.00    +0.000 A 
ATOM     12  C   UNL     1      -0.357   9.748  20.737  0.00  0.00    +0.000 A 
ATOM     13  C   UNL     1       0.335   9.833  19.519  0.00  0.00    +0.000 A 
BRANCH  13  14
ATOM     14  N   UNL     1      -0.106  10.868  18.594  0.00  0.00    +0.000 N 
ATOM     15  O   UNL     1       0.486  11.954  18.624  0.00  0.00    +0.000 OA
ATOM     16  O   UNL     1      -1.064  10.590  17.858  0.00  0.00    +0.000 OA
ENDBRANCH  13  14
ENDBRANCH   1   9
BRANCH   4  17
ATOM     17  C   UNL     1       3.868   3.886  18.886  0.00  0.00    +0.000 A 
ATOM     18  C   UNL     1       3.933   3.430  17.594  0.00  0.00    +0.000 A 
ATOM     19  C   UNL     1       3.709   2.021  17.528  0.00  0.00    +0.000 A 
ATOM     20  C   UNL     1       3.501   1.476  18.778  0.00  0.00    +0.000 A 
ATOM     21  S   UNL     1       3.710   2.637  20.025  0.00  0.00    +0.000 S 
ENDBRANCH   4  17
TORSDOF 3
ENDMDL
MODEL 9
REMARK VINA RESULT:      -6.0      4.917      7.014
REMARK  Name = 
REMARK  4 active torsions:
REMARK  status: ('A' for Active; 'I' for Inactive)
REMARK    1  A    between atoms: C_1  and  C_2
REMARK    2  A    between atoms: C_3  and  N_4
REMARK    3  A    between atoms: N_7  and  C_8
REMARK    4  A    between atoms: C_16  and  N_17
REMARK                            x       y       z     vdW  Elec       q    Type
REMARK                         _______ _______ _______ _____ _____    ______ ____
ROOT
ATOM      1  N   UNL     1       2.376   7.489  19.325  0.00  0.00    +0.000 N 
ATOM      2  C   UNL     1       1.818   8.591  18.674  0.00  0.00    +0.000 C 
ATOM      3  O   UNL     1       1.794   8.726  17.459  0.00  0.00    +0.000 OA
ATOM      4  N   UNL     1       1.301   9.488  19.600  0.00  0.00    +0.000 N 
ATOM      5  H   UNL     1       1.769   7.189  20.077  0.00  0.00    +0.000 HD
ATOM      6  H   UNL     1       1.863   9.605  20.428  0.00  0.00    +0.000 HD
ENDROOT
BRANCH   1   9
ATOM      7  C   UNL     1       1.603   4.612  19.686  0.00  0.00    +0.000 C 
ATOM      8  C   UNL     1       2.703   5.084  18.773  0.00  0.00    +0.000 A 
ATOM      9  C   UNL     1       2.999   6.450  18.590  0.00  0.00    +0.000 A 
ATOM     10  C   UNL     1       3.934   6.850  17.622  0.00  0.00    +0.000 A 
ATOM     11  C   UNL     1       4.644   5.912  16.874  0.00  0.00    +0.000 A 
ATOM     12  C   UNL     1       4.419   4.556  17.078  0.00  0.00    +0.000 A 
ATOM     13  C   UNL     1       3.462   4.157  18.024  0.00  0.00    +0.000 A 
BRANCH  13  14
ATOM     14  N   UNL     1       3.267   2.723  18.183  0.00  0.00    +0.000 N 
ATOM     15  O   UNL     1       3.903   2.153  19.078  0.00  0.00    +0.000 OA
ATOM     16  O   UNL     1       2.493   2.172  17.387  0.00  0.00    +0.000 OA
ENDBRANCH  13  14
ENDBRANCH   1   9
BRANCH   4  17
ATOM     17  C   UNL     1       0.708  10.638  19.124  0.00  0.00    +0.000 A 
ATOM     18  C   UNL     1       1.213  11.884  18.853  0.00  0.00    +0.000 A 
ATOM     19  C   UNL     1       0.172  12.811  18.545  0.00  0.00    +0.000 A 
ATOM     20  C   UNL     1      -1.072  12.216  18.581  0.00  0.00    +0.000 A 
ATOM     21  S   UNL     1      -0.964  10.525  18.854  0.00  0.00    +0.000 S 
ENDBRANCH   4  17
TORSDOF 3
ENDMDL
