MODEL 1
REMARK VINA RESULT:      -6.8      0.000      0.000
REMARK  Name = 
REMARK  6 active torsions:
REMARK  status: ('A' for Active; 'I' for Inactive)
REMARK    1  A    between atoms: C_1  and  C_2
REMARK    2  A    between atoms: C_2  and  O_3
REMARK    3  A    between atoms: O_3  and  C_4
REMARK    4  A    between atoms: C_4  and  C_5
REMARK    5  A    between atoms: C_11  and  O_12
REMARK    6  A    between atoms: O_12  and  C_13
REMARK                            x       y       z     vdW  Elec       q    Type
REMARK                         _______ _______ _______ _____ _____    ______ ____
ROOT
ATOM      1  C   UNL     1       1.908   4.470  20.634  0.00  0.00    +0.000 C 
ATOM      2  O   UNL     1       2.319   4.011  21.707  0.00  0.00    +0.000 OA
ATOM      3  N   UNL     1       1.645   3.669  19.529  0.00  0.00    +0.000 N 
ATOM      4  C   UNL     1       1.749   2.220  19.653  0.00  0.00    +0.000 C 
ATOM      5  C   UNL     1       2.936   1.684  18.860  0.00  0.00    +0.000 C 
ATOM      6  C   UNL     1       2.904   2.184  17.411  0.00  0.00    +0.000 C 
ATOM      7  C   UNL     1       2.808   3.716  17.342  0.00  0.00    +0.000 C 
ATOM      8  C   UNL     1       1.576   4.180  18.152  0.00  0.00    +0.000 C 
ENDROOT
BRANCH   1   9
ATOM      9  C   UNL     1       1.563   5.961  20.519  0.00  0.00    +0.000 C 
BRANCH   9  10
ATOM     10  O   UNL     1       2.606   6.753  19.949  0.00  0.00    +0.000 OA
BRANCH  10  12
ATOM     11  C   UNL     1       2.583   7.797  17.793  0.00  0.00    +0.000 C 
ATOM     12  C   UNL     1       2.090   7.872  19.222  0.00  0.00    +0.000 C 
ENDBRANCH  10  12
ENDBRANCH   9  10
ENDBRANCH   1   9
BRANCH   7  13
ATOM     13  O   UNL     1       3.950   4.324  17.962  0.00  0.00    +0.000 OA
BRANCH  13  14
ATOM     14  C   UNL     1       5.147   4.389  17.317  0.00  0.00    +0.000 A 
ATOM     15  C   UNL     1       5.366   4.296  15.951  0.00  0.00    +0.000 A 
ATOM     16  C   UNL     1       6.671   4.399  15.491  0.00  0.00    +0.000 A 
ATOM     17  N   UNL     1       7.745   4.583  16.289  0.00  0.00    +0.000 NA
ATOM     18  C   UNL     1       7.504   4.663  17.613  0.00  0.00    +0.000 A 
ATOM     19  C   UNL     1       6.239   4.575  18.163  0.00  0.00    +0.000 A 
ENDBRANCH  13  14
ENDBRANCH   7  13
TORSDOF 5
ENDMDL
MODEL 2
REMARK VINA RESULT:      -6.7      2.271      6.012
REMARK  Name = 
REMARK  6 active torsions:
REMARK  status: ('A' for Active; 'I' for Inactive)
REMARK    1  A    between atoms: C_1  and  C_2
REMARK    2  A    between atoms: C_2  and  O_3
REMARK    3  A    between atoms: O_3  and  C_4
REMARK    4  A    between atoms: C_4  and  C_5
REMARK    5  A    between atoms: C_11  and  O_12
REMARK    6  A    between atoms: O_12  and  C_13
REMARK                            x       y       z     vdW  Elec       q    Type
REMARK                         _______ _______ _______ _____ _____    ______ ____
ROOT
ATOM      1  C   UNL     1       7.095   4.874  15.962  0.00  0.00    +0.000 C 
ATOM      2  O   UNL     1       7.947   4.107  16.425  0.00  0.00    +0.000 OA
ATOM      3  N   UNL     1       6.435   5.819  16.740  0.00  0.00    +0.000 N 
ATOM      4  C   UNL     1       6.825   5.997  18.134  0.00  0.00    +0.000 C 
ATOM      5  C   UNL     1       5.732   5.508  19.078  0.00  0.00    +0.000 C 
ATOM      6  C   UNL     1       4.376   6.132  18.726  0.00  0.00    +0.000 C 
ATOM      7  C   UNL     1       4.012   5.900  17.251  0.00  0.00    +0.000 C 
ATOM      8  C   UNL     1       5.157   6.436  16.360  0.00  0.00    +0.000 C 
ENDROOT
BRANCH   1   9
ATOM      9  C   UNL     1       6.810   4.885  14.454  0.00  0.00    +0.000 C 
BRANCH   9  10
ATOM     10  O   UNL     1       6.288   3.652  13.956  0.00  0.00    +0.000 OA
BRANCH  10  12
ATOM     11  C   UNL     1       5.008   3.341  11.956  0.00  0.00    +0.000 C 
ATOM     12  C   UNL     1       6.389   3.566  12.532  0.00  0.00    +0.000 C 
ENDBRANCH  10  12
ENDBRANCH   9  10
ENDBRANCH   1   9
BRANCH   7  13
ATOM     13  O   UNL     1       3.905   4.497  16.969  0.00  0.00    +0.000 OA
BRANCH  13  14
ATOM     14  C   UNL     1       3.042   3.706  17.663  0.00  0.00    +0.000 A 
ATOM     15  C   UNL     1       1.692   3.935  17.884  0.00  0.00    +0.000 A 
ATOM     16  C   UNL     1       0.981   2.993  18.613  0.00  0.00    +0.000 A 
ATOM     17  N   UNL     1       1.520   1.865  19.125  0.00  0.00    +0.000 NA
ATOM     18  C   UNL     1       2.836   1.672  18.902  0.00  0.00    +0.000 A 
ATOM     19  C   UNL     1       3.624   2.552  18.185  0.00  0.00    +0.000 A 
ENDBRANCH  13  14
ENDBRANCH   7  13
TORSDOF 5
ENDMDL
MODEL 3
REMARK VINA RESULT:      -6.7      0.974      1.034
REMARK  Name = 
REMARK  6 active torsions:
REMARK  status: ('A' for Active; 'I' for Inactive)
REMARK    1  A    between atoms: C_1  and  C_2
REMARK    2  A    between atoms: C_2  and  O_3
REMARK    3  A    between atoms: O_3  and  C_4
REMARK    4  A    between atoms: C_4  and  C_5
REMARK    5  A    between atoms: C_11  and  O_12
REMARK    6  A    between atoms: O_12  and  C_13
REMARK                            x       y       z     vdW  Elec       q    Type
REMARK                         _______ _______ _______ _____ _____    ______ ____
ROOT
ATOM      1  C   UNL     1       2.192   5.421  20.011  0.00  0.00    +0.000 C 
ATOM      2  O   UNL     1       2.275   5.190  21.223  0.00  0.00    +0.000 OA
ATOM      3  N   UNL     1       1.734   4.478  19.098  0.00  0.00    +0.000 N 
ATOM      4  C   UNL     1       1.228   3.199  19.583  0.00  0.00    +0.000 C 
ATOM      5  C   UNL     1       2.164   2.057  19.204  0.00  0.00    +0.000 C 
ATOM      6  C   UNL     1       2.479   2.074  17.703  0.00  0.00    +0.000 C 
ATOM      7  C   UNL     1       3.020   3.440  17.253  0.00  0.00    +0.000 C 
ATOM      8  C   UNL     1       2.011   4.539  17.656  0.00  0.00    +0.000 C 
ENDROOT
BRANCH   1   9
ATOM      9  C   UNL     1       2.494   6.827  19.474  0.00  0.00    +0.000 C 
BRANCH   9  10
ATOM     10  O   UNL     1       1.784   7.867  20.149  0.00  0.00    +0.000 OA
BRANCH  10  12
ATOM     11  C   UNL     1       1.901   8.594  17.870  0.00  0.00    +0.000 C 
ATOM     12  C   UNL     1       1.494   8.965  19.279  0.00  0.00    +0.000 C 
ENDBRANCH  10  12
ENDBRANCH   9  10
ENDBRANCH   1   9
BRANCH   7  13
ATOM     13  O   UNL     1       4.245   3.749  17.933  0.00  0.00    +0.000 OA
BRANCH  13  14
ATOM     14  C   UNL     1       5.268   4.372  17.287  0.00  0.00    +0.000 A 
ATOM     15  C   UNL     1       5.764   4.076  16.026  0.00  0.00    +0.000 A 
ATOM     16  C   UNL     1       6.812   4.844  15.540  0.00  0.00    +0.000 A 
ATOM     17  N   UNL     1       7.385   5.862  16.218  0.00  0.00    +0.000 NA
ATOM     18  C   UNL     1       6.889   6.123  17.444  0.00  0.00    +0.000 A 
ATOM     19  C   UNL     1       5.845   5.416  18.009  0.00  0.00    +0.000 A 
ENDBRANCH  13  14
ENDBRANCH   7  13
TORSDOF 5
ENDMDL
MODEL 4
REMARK VINA RESULT:      -6.6      2.253      6.006
REMARK  Name = 
REMARK  6 active torsions:
REMARK  status: ('A' for Active; 'I' for Inactive)
REMARK    1  A    between atoms: C_1  and  C_2
REMARK    2  A    between atoms: C_2  and  O_3
REMARK    3  A    between atoms: O_3  and  C_4
REMARK    4  A    between atoms: C_4  and  C_5
REMARK    5  A    between atoms: C_11  and  O_12
REMARK    6  A    between atoms: O_12  and  C_13
REMARK                            x       y       z     vdW  Elec       q    Type
REMARK                         _______ _______ _______ _____ _____    ______ ____
ROOT
ATOM      1  C   UNL     1       7.134   4.918  16.052  0.00  0.00    +0.000 C 
ATOM      2  O   UNL     1       7.985   4.133  16.485  0.00  0.00    +0.000 OA
ATOM      3  N   UNL     1       6.456   5.813  16.871  0.00  0.00    +0.000 N 
ATOM      4  C   UNL     1       6.824   5.917  18.278  0.00  0.00    +0.000 C 
ATOM      5  C   UNL     1       5.721   5.369  19.177  0.00  0.00    +0.000 C 
ATOM      6  C   UNL     1       4.365   6.001  18.839  0.00  0.00    +0.000 C 
ATOM      7  C   UNL     1       4.025   5.850  17.348  0.00  0.00    +0.000 C 
ATOM      8  C   UNL     1       5.178   6.442  16.506  0.00  0.00    +0.000 C 
ENDROOT
BRANCH   1   9
ATOM      9  C   UNL     1       6.872   5.011  14.542  0.00  0.00    +0.000 C 
BRANCH   9  10
ATOM     10  O   UNL     1       5.940   4.043  14.058  0.00  0.00    +0.000 OA
BRANCH  10  12
ATOM     11  C   UNL     1       5.043   3.269  11.976  0.00  0.00    +0.000 C 
ATOM     12  C   UNL     1       6.303   3.553  12.764  0.00  0.00    +0.000 C 
ENDBRANCH  10  12
ENDBRANCH   9  10
ENDBRANCH   1   9
BRANCH   7  13
ATOM     13  O   UNL     1       3.933   4.464  16.987  0.00  0.00    +0.000 OA
BRANCH  13  14
ATOM     14  C   UNL     1       3.124   3.613  17.674  0.00  0.00    +0.000 A 
ATOM     15  C   UNL     1       3.487   2.417  18.277  0.00  0.00    +0.000 A 
ATOM     16  C   UNL     1       2.505   1.698  18.943  0.00  0.00    +0.000 A 
ATOM     17  N   UNL     1       1.215   2.085  19.041  0.00  0.00    +0.000 NA
ATOM     18  C   UNL     1       0.888   3.247  18.440  0.00  0.00    +0.000 A 
ATOM     19  C   UNL     1       1.797   4.033  17.757  0.00  0.00    +0.000 A 
ENDBRANCH  13  14
ENDBRANCH   7  13
TORSDOF 5
ENDMDL
MODEL 5
REMARK VINA RESULT:      -6.5      0.645      1.216
REMARK  Name = 
REMARK  6 active torsions:
REMARK  status: ('A' for Active; 'I' for Inactive)
REMARK    1  A    between atoms: C_1  and  C_2
REMARK    2  A    between atoms: C_2  and  O_3
REMARK    3  A    between atoms: O_3  and  C_4
REMARK    4  A    between atoms: C_4  and  C_5
REMARK    5  A    between atoms: C_11  and  O_12
REMARK    6  A    between atoms: O_12  and  C_13
REMARK                            x       y       z     vdW  Elec       q    Type
REMARK                         _______ _______ _______ _____ _____    ______ ____
ROOT
ATOM      1  C   UNL     1       1.887   4.489  20.606  0.00  0.00    +0.000 C 
ATOM      2  O   UNL     1       2.172   3.980  21.696  0.00  0.00    +0.000 OA
ATOM      3  N   UNL     1       1.680   3.733  19.458  0.00  0.00    +0.000 N 
ATOM      4  C   UNL     1       1.690   2.278  19.547  0.00  0.00    +0.000 C 
ATOM      5  C   UNL     1       2.911   1.692  18.846  0.00  0.00    +0.000 C 
ATOM      6  C   UNL     1       3.039   2.230  17.416  0.00  0.00    +0.000 C 
ATOM      7  C   UNL     1       3.036   3.766  17.386  0.00  0.00    +0.000 C 
ATOM      8  C   UNL     1       1.764   4.281  18.097  0.00  0.00    +0.000 C 
ENDROOT
BRANCH   1   9
ATOM      9  C   UNL     1       1.638   6.000  20.506  0.00  0.00    +0.000 C 
BRANCH   9  10
ATOM     10  O   UNL     1       2.698   6.719  19.872  0.00  0.00    +0.000 OA
BRANCH  10  12
ATOM     11  C   UNL     1       2.966   7.848  17.777  0.00  0.00    +0.000 C 
ATOM     12  C   UNL     1       2.207   7.808  19.085  0.00  0.00    +0.000 C 
ENDBRANCH  10  12
ENDBRANCH   9  10
ENDBRANCH   1   9
BRANCH   7  13
ATOM     13  O   UNL     1       4.150   4.290  18.122  0.00  0.00    +0.000 OA
BRANCH  13  14
ATOM     14  C   UNL     1       5.194   4.886  17.485  0.00  0.00    +0.000 A 
ATOM     15  C   UNL     1       6.128   5.751  18.038  0.00  0.00    +0.000 A 
ATOM     16  C   UNL     1       7.129   6.244  17.214  0.00  0.00    +0.000 A 
ATOM     17  N   UNL     1       7.254   5.938  15.904  0.00  0.00    +0.000 NA
ATOM     18  C   UNL     1       6.329   5.102  15.391  0.00  0.00    +0.000 A 
ATOM     19  C   UNL     1       5.298   4.558  16.134  0.00  0.00    +0.000 A 
ENDBRANCH  13  14
ENDBRANCH   7  13
TORSDOF 5
ENDMDL
MODEL 6
REMARK VINA RESULT:      -6.4      1.194      1.395
REMARK  Name = 
REMARK  6 active torsions:
REMARK  status: ('A' for Active; 'I' for Inactive)
REMARK    1  A    between atoms: C_1  and  C_2
REMARK    2  A    between atoms: C_2  and  O_3
REMARK    3  A    between atoms: O_3  and  C_4
REMARK    4  A    between atoms: C_4  and  C_5
REMARK    5  A    between atoms: C_11  and  O_12
REMARK    6  A    between atoms: O_12  and  C_13
REMARK                            x       y       z     vdW  Elec       q    Type
REMARK                         _______ _______ _______ _____ _____    ______ ____
ROOT
ATOM      1  C   UNL     1       2.051   5.047  20.358  0.00  0.00    +0.000 C 
ATOM      2  O   UNL     1       2.263   4.643  21.508  0.00  0.00    +0.000 OA
ATOM      3  N   UNL     1       1.673   4.198  19.324  0.00  0.00    +0.000 N 
ATOM      4  C   UNL     1       1.408   2.793  19.612  0.00  0.00    +0.000 C 
ATOM      5  C   UNL     1       2.475   1.895  18.997  0.00  0.00    +0.000 C 
ATOM      6  C   UNL     1       2.665   2.201  17.506  0.00  0.00    +0.000 C 
ATOM      7  C   UNL     1       2.954   3.691  17.266  0.00  0.00    +0.000 C 
ATOM      8  C   UNL     1       1.823   4.532  17.901  0.00  0.00    +0.000 C 
ENDROOT
BRANCH   1   9
ATOM      9  C   UNL     1       2.092   6.550  20.052  0.00  0.00    +0.000 C 
BRANCH   9  10
ATOM     10  O   UNL     1       1.389   7.352  21.003  0.00  0.00    +0.000 OA
BRANCH  10  12
ATOM     11  C   UNL     1      -0.069   9.251  21.056  0.00  0.00    +0.000 C 
ATOM     12  C   UNL     1       1.253   8.706  20.562  0.00  0.00    +0.000 C 
ENDBRANCH  10  12
ENDBRANCH   9  10
ENDBRANCH   1   9
BRANCH   7  13
ATOM     13  O   UNL     1       4.167   4.084  17.924  0.00  0.00    +0.000 OA
BRANCH  13  14
ATOM     14  C   UNL     1       5.218   4.585  17.218  0.00  0.00    +0.000 A 
ATOM     15  C   UNL     1       5.783   4.052  16.069  0.00  0.00    +0.000 A 
ATOM     16  C   UNL     1       6.849   4.727  15.492  0.00  0.00    +0.000 A 
ATOM     17  N   UNL     1       7.375   5.872  15.979  0.00  0.00    +0.000 NA
ATOM     18  C   UNL     1       6.811   6.364  17.101  0.00  0.00    +0.000 A 
ATOM     19  C   UNL     1       5.745   5.763  17.743  0.00  0.00    +0.000 A 
ENDBRANCH  13  14
ENDBRANCH   7  13
TORSDOF 5
ENDMDL
MODEL 7
REMARK VINA RESULT:      -6.4      2.414      5.379
REMARK  Name = 
REMARK  6 active torsions:
REMARK  status: ('A' for Active; 'I' for Inactive)
REMARK    1  A    between atoms: C_1  and  C_2
REMARK    2  A    between atoms: C_2  and  O_3
REMARK    3  A    between atoms: O_3  and  C_4
REMARK    4  A    between atoms: C_4  and  C_5
REMARK    5  A    between atoms: C_11  and  O_12
REMARK    6  A    between atoms: O_12  and  C_13
REMARK                            x       y       z     vdW  Elec       q    Type
REMARK                         _______ _______ _______ _____ _____    ______ ____
ROOT
ATOM      1  C   UNL     1       5.195   4.406  16.635  0.00  0.00    +0.000 C 
ATOM      2  O   UNL     1       4.897   4.385  15.435  0.00  0.00    +0.000 OA
ATOM      3  N   UNL     1       4.358   3.899  17.622  0.00  0.00    +0.000 N 
ATOM      4  C   UNL     1       3.127   3.218  17.238  0.00  0.00    +0.000 C 
ATOM      5  C   UNL     1       1.901   4.038  17.626  0.00  0.00    +0.000 C 
ATOM      6  C   UNL     1       1.952   4.445  19.103  0.00  0.00    +0.000 C 
ATOM      7  C   UNL     1       3.264   5.169  19.446  0.00  0.00    +0.000 C 
ATOM      8  C   UNL     1       4.455   4.271  19.041  0.00  0.00    +0.000 C 
ENDROOT
BRANCH   1   9
ATOM      9  C   UNL     1       6.579   4.902  17.075  0.00  0.00    +0.000 C 
BRANCH   9  10
ATOM     10  O   UNL     1       6.949   6.158  16.503  0.00  0.00    +0.000 OA
BRANCH  10  12
ATOM     11  C   UNL     1       7.853   8.102  17.572  0.00  0.00    +0.000 C 
ATOM     12  C   UNL     1       6.618   7.253  17.363  0.00  0.00    +0.000 C 
ENDBRANCH  10  12
ENDBRANCH   9  10
ENDBRANCH   1   9
BRANCH   7  13
ATOM     13  O   UNL     1       3.391   6.376  18.682  0.00  0.00    +0.000 OA
BRANCH  13  14
ATOM     14  C   UNL     1       2.576   7.441  18.912  0.00  0.00    +0.000 A 
ATOM     15  C   UNL     1       1.927   7.757  20.096  0.00  0.00    +0.000 A 
ATOM     16  C   UNL     1       1.144   8.902  20.126  0.00  0.00    +0.000 A 
ATOM     17  N   UNL     1       0.969   9.730  19.073  0.00  0.00    +0.000 NA
ATOM     18  C   UNL     1       1.605   9.395  17.933  0.00  0.00    +0.000 A 
ATOM     19  C   UNL     1       2.408   8.277  17.809  0.00  0.00    +0.000 A 
ENDBRANCH  13  14
ENDBRANCH   7  13
TORSDOF 5
ENDMDL
MODEL 8
REMARK VINA RESULT:      -6.4      1.148      1.646
REMARK  Name = 
REMARK  6 active torsions:
REMARK  status: ('A' for Active; 'I' for Inactive)
REMARK    1  A    between atoms: C_1  and  C_2
REMARK    2  A    between atoms: C_2  and  O_3
REMARK    3  A    between atoms: O_3  and  C_4
REMARK    4  A    between atoms: C_4  and  C_5
REMARK    5  A    between atoms: C_11  and  O_12
REMARK    6  A    between atoms: O_12  and  C_13
REMARK                            x       y       z     vdW  Elec       q    Type
REMARK                         _______ _______ _______ _____ _____    ______ ____
ROOT
ATOM      1  C   UNL     1       2.173   5.326  20.078  0.00  0.00    +0.000 C 
ATOM      2  O   UNL     1       2.197   5.048  21.283  0.00  0.00    +0.000 OA
ATOM      3  N   UNL     1       1.759   4.418  19.110  0.00  0.00    +0.000 N 
ATOM      4  C   UNL     1       1.230   3.123  19.521  0.00  0.00    +0.000 C 
ATOM      5  C   UNL     1       2.183   1.995  19.144  0.00  0.00    +0.000 C 
ATOM      6  C   UNL     1       2.570   2.068  17.662  0.00  0.00    +0.000 C 
ATOM      7  C   UNL     1       3.133   3.449  17.291  0.00  0.00    +0.000 C 
ATOM      8  C   UNL     1       2.106   4.534  17.686  0.00  0.00    +0.000 C 
ENDROOT
BRANCH   1   9
ATOM      9  C   UNL     1       2.502   6.750  19.611  0.00  0.00    +0.000 C 
BRANCH   9  10
ATOM     10  O   UNL     1       1.820   7.769  20.344  0.00  0.00    +0.000 OA
BRANCH  10  12
ATOM     11  C   UNL     1       0.459   9.739  20.259  0.00  0.00    +0.000 C 
ATOM     12  C   UNL     1       1.436   8.863  19.505  0.00  0.00    +0.000 C 
ENDBRANCH  10  12
ENDBRANCH   9  10
ENDBRANCH   1   9
BRANCH   7  13
ATOM     13  O   UNL     1       4.324   3.729  18.041  0.00  0.00    +0.000 OA
BRANCH  13  14
ATOM     14  C   UNL     1       5.305   4.522  17.529  0.00  0.00    +0.000 A 
ATOM     15  C   UNL     1       5.898   5.617  18.140  0.00  0.00    +0.000 A 
ATOM     16  C   UNL     1       6.895   6.289  17.449  0.00  0.00    +0.000 A 
ATOM     17  N   UNL     1       7.326   5.948  16.215  0.00  0.00    +0.000 NA
ATOM     18  C   UNL     1       6.727   4.884  15.641  0.00  0.00    +0.000 A 
ATOM     19  C   UNL     1       5.728   4.151  16.254  0.00  0.00    +0.000 A 
ENDBRANCH  13  14
ENDBRANCH   7  13
TORSDOF 5
ENDMDL
MODEL 9
REMARK VINA RESULT:      -6.2      3.121      4.539
REMARK  Name = 
REMARK  6 active torsions:
REMARK  status: ('A' for Active; 'I' for Inactive)
REMARK    1  A    between atoms: C_1  and  C_2
REMARK    2  A    between atoms: C_2  and  O_3
REMARK    3  A    between atoms: O_3  and  C_4
REMARK    4  A    between atoms: C_4  and  C_5
REMARK    5  A    between atoms: C_11  and  O_12
REMARK    6  A    between atoms: O_12  and  C_13
REMARK                            x       y       z     vdW  Elec       q    Type
REMARK                         _______ _______ _______ _____ _____    ______ ____
ROOT
ATOM      1  C   UNL     1       6.886   5.892  18.530  0.00  0.00    +0.000 C 
ATOM      2  O   UNL     1       7.538   5.297  19.396  0.00  0.00    +0.000 OA
ATOM      3  N   UNL     1       5.534   5.652  18.313  0.00  0.00    +0.000 N 
ATOM      4  C   UNL     1       4.816   4.745  19.201  0.00  0.00    +0.000 C 
ATOM      5  C   UNL     1       4.425   3.461  18.477  0.00  0.00    +0.000 C 
ATOM      6  C   UNL     1       3.686   3.767  17.168  0.00  0.00    +0.000 C 
ATOM      7  C   UNL     1       4.495   4.715  16.269  0.00  0.00    +0.000 C 
ATOM      8  C   UNL     1       4.837   5.995  17.065  0.00  0.00    +0.000 C 
ENDROOT
BRANCH   1   9
ATOM      9  C   UNL     1       7.537   7.021  17.720  0.00  0.00    +0.000 C 
BRANCH   9  10
ATOM     10  O   UNL     1       8.415   7.848  18.486  0.00  0.00    +0.000 OA
BRANCH  10  12
ATOM     11  C   UNL     1       9.138  10.056  19.070  0.00  0.00    +0.000 C 
ATOM     12  C   UNL     1       8.307   9.226  18.116  0.00  0.00    +0.000 C 
ENDBRANCH  10  12
ENDBRANCH   9  10
ENDBRANCH   1   9
BRANCH   7  13
ATOM     13  O   UNL     1       5.749   4.120  15.904  0.00  0.00    +0.000 OA
BRANCH  13  14
ATOM     14  C   UNL     1       6.190   4.149  14.617  0.00  0.00    +0.000 A 
ATOM     15  C   UNL     1       5.703   3.409  13.549  0.00  0.00    +0.000 A 
ATOM     16  C   UNL     1       6.289   3.595  12.305  0.00  0.00    +0.000 A 
ATOM     17  N   UNL     1       7.307   4.450  12.066  0.00  0.00    +0.000 NA
ATOM     18  C   UNL     1       7.766   5.150  13.123  0.00  0.00    +0.000 A 
ATOM     19  C   UNL     1       7.244   5.035  14.397  0.00  0.00    +0.000 A 
ENDBRANCH  13  14
ENDBRANCH   7  13
TORSDOF 5
ENDMDL
