MODEL 1
REMARK VINA RESULT:      -9.0      0.000      0.000
REMARK  Name = 
REMARK  9 active torsions:
REMARK  status: ('A' for Active; 'I' for Inactive)
REMARK    1  A    between atoms: C_1  and  C_2
REMARK    2  A    between atoms: C_2  and  C_3
REMARK    3  A    between atoms: C_5  and  N_6
REMARK    4  A    between atoms: C_7  and  C_9
REMARK    5  A    between atoms: C_12  and  O_13
REMARK    6  A    between atoms: O_13  and  C_14
REMARK    7  A    between atoms: C_20  and  C_21
REMARK    8  A    between atoms: C_27  and  C_28
REMARK    9  A    between atoms: C_27  and  C_29
REMARK                            x       y       z     vdW  Elec       q    Type
REMARK                         _______ _______ _______ _____ _____    ______ ____
ROOT
ATOM      1  C   UNL     1       7.386   6.928  17.934  0.00  0.00    +0.000 A 
ATOM      2  C   UNL     1       7.086   6.279  19.134  0.00  0.00    +0.000 A 
ATOM      3  C   UNL     1       6.365   5.078  19.112  0.00  0.00    +0.000 A 
ATOM      4  C   UNL     1       5.912   4.524  17.903  0.00  0.00    +0.000 A 
ATOM      5  C   UNL     1       6.138   5.230  16.712  0.00  0.00    +0.000 A 
ATOM      6 CL   UNL     1       5.428   4.827  15.187  0.00  0.00    +0.000 Cl
ATOM      7  C   UNL     1       6.915   6.393  16.729  0.00  0.00    +0.000 A 
ENDROOT
BRANCH   1   9
ATOM      8  N   UNL     1       8.508   8.803  19.050  0.00  0.00    +0.000 N 
ATOM      9  C   UNL     1       8.098   8.233  17.863  0.00  0.00    +0.000 C 
ATOM     10  O   UNL     1       8.308   8.744  16.769  0.00  0.00    +0.000 OA
ATOM     11  H   UNL     1       8.509   8.252  19.897  0.00  0.00    +0.000 HD
BRANCH   8  16
ATOM     12  C   UNL     1       9.828  12.703  21.817  0.00  0.00    +0.000 C 
ATOM     13  C   UNL     1      10.078  12.015  20.454  0.00  0.00    +0.000 C 
ATOM     14  C   UNL     1      11.599  11.803  20.355  0.00  0.00    +0.000 C 
ATOM     15  C   UNL     1       9.316  10.675  20.443  0.00  0.00    +0.000 C 
ATOM     16  C   UNL     1       9.254  10.060  19.042  0.00  0.00    +0.000 C 
ATOM     17  C   UNL     1       8.607  11.055  18.083  0.00  0.00    +0.000 C 
ATOM     18  C   UNL     1       9.348  12.406  18.058  0.00  0.00    +0.000 C 
ATOM     19  C   UNL     1       8.448  13.430  17.327  0.00  0.00    +0.000 C 
ATOM     20  C   UNL     1      10.649  12.315  17.241  0.00  0.00    +0.000 C 
ATOM     21  N   UNL     1       9.577  12.939  19.415  0.00  0.00    +0.000 NA
ATOM     22  H   UNL     1       8.705  13.352  19.750  0.00  0.00    +0.000 HD
ENDBRANCH   8  16
ENDBRANCH   1   9
BRANCH   4  23
ATOM     23  O   UNL     1       5.185   3.365  18.069  0.00  0.00    +0.000 OA
BRANCH  23  24
ATOM     24  C   UNL     1       3.845   3.389  18.394  0.00  0.00    +0.000 A 
ATOM     25  C   UNL     1       2.859   3.899  17.540  0.00  0.00    +0.000 A 
ATOM     26  C   UNL     1       1.551   4.054  17.994  0.00  0.00    +0.000 A 
ATOM     27  C   UNL     1       1.201   3.608  19.266  0.00  0.00    +0.000 A 
ATOM     28  C   UNL     1       2.151   2.979  20.075  0.00  0.00    +0.000 A 
ATOM     29 CL   UNL     1       1.619   2.373  21.604  0.00  0.00    +0.000 Cl
ATOM     30  C   UNL     1       3.481   2.862  19.646  0.00  0.00    +0.000 A 
BRANCH  30  31
ATOM     31  C   UNL     1       4.460   2.194  20.453  0.00  0.00    +0.000 C 
ATOM     32  N   UNL     1       5.235   1.624  21.113  0.00  0.00    +0.000 NA
ENDBRANCH  30  31
ENDBRANCH  23  24
ENDBRANCH   4  23
TORSDOF 5
ENDMDL
MODEL 2
REMARK VINA RESULT:      -8.7      7.046      9.875
REMARK  Name = 
REMARK  9 active torsions:
REMARK  status: ('A' for Active; 'I' for Inactive)
REMARK    1  A    between atoms: C_1  and  C_2
REMARK    2  A    between atoms: C_2  and  C_3
REMARK    3  A    between atoms: C_5  and  N_6
REMARK    4  A    between atoms: C_7  and  C_9
REMARK    5  A    between atoms: C_12  and  O_13
REMARK    6  A    between atoms: O_13  and  C_14
REMARK    7  A    between atoms: C_20  and  C_21
REMARK    8  A    between atoms: C_27  and  C_28
REMARK    9  A    between atoms: C_27  and  C_29
REMARK                            x       y       z     vdW  Elec       q    Type
REMARK                         _______ _______ _______ _____ _____    ______ ____
ROOT
ATOM      1  C   UNL     1       1.546   8.635  19.336  0.00  0.00    +0.000 A 
ATOM      2  C   UNL     1       1.265   9.385  18.191  0.00  0.00    +0.000 A 
ATOM      3  C   UNL     1       0.473  10.537  18.292  0.00  0.00    +0.000 A 
ATOM      4  C   UNL     1      -0.071  10.939  19.524  0.00  0.00    +0.000 A 
ATOM      5  C   UNL     1       0.139  10.128  20.650  0.00  0.00    +0.000 A 
ATOM      6 CL   UNL     1      -0.667  10.334  22.166  0.00  0.00    +0.000 Cl
ATOM      7  C   UNL     1       0.985   9.018  20.560  0.00  0.00    +0.000 A 
ENDROOT
BRANCH   1   9
ATOM      8  N   UNL     1       3.022   7.065  18.163  0.00  0.00    +0.000 N 
ATOM      9  C   UNL     1       2.330   7.371  19.316  0.00  0.00    +0.000 C 
ATOM     10  O   UNL     1       2.349   6.660  20.314  0.00  0.00    +0.000 OA
ATOM     11  H   UNL     1       3.155   7.775  17.455  0.00  0.00    +0.000 HD
BRANCH   8  16
ATOM     12  C   UNL     1       6.190   4.521  15.318  0.00  0.00    +0.000 C 
ATOM     13  C   UNL     1       5.587   4.585  16.742  0.00  0.00    +0.000 C 
ATOM     14  C   UNL     1       6.782   4.633  17.711  0.00  0.00    +0.000 C 
ATOM     15  C   UNL     1       4.723   5.858  16.843  0.00  0.00    +0.000 C 
ATOM     16  C   UNL     1       3.850   5.862  18.099  0.00  0.00    +0.000 C 
ATOM     17  C   UNL     1       2.972   4.614  18.108  0.00  0.00    +0.000 C 
ATOM     18  C   UNL     1       3.801   3.319  18.019  0.00  0.00    +0.000 C 
ATOM     19  C   UNL     1       2.833   2.153  17.709  0.00  0.00    +0.000 C 
ATOM     20  C   UNL     1       4.460   2.983  19.370  0.00  0.00    +0.000 C 
ATOM     21  N   UNL     1       4.780   3.359  16.915  0.00  0.00    +0.000 NA
ATOM     22  H   UNL     1       4.285   3.177  16.041  0.00  0.00    +0.000 HD
ENDBRANCH   8  16
ENDBRANCH   1   9
BRANCH   4  23
ATOM     23  O   UNL     1      -0.857  12.067  19.434  0.00  0.00    +0.000 OA
BRANCH  23  24
ATOM     24  C   UNL     1      -2.227  11.987  19.292  0.00  0.00    +0.000 A 
ATOM     25  C   UNL     1      -2.849  11.258  18.271  0.00  0.00    +0.000 A 
ATOM     26  C   UNL     1      -4.225  11.357  18.078  0.00  0.00    +0.000 A 
ATOM     27  C   UNL     1      -4.998  12.104  18.965  0.00  0.00    +0.000 A 
ATOM     28  C   UNL     1      -4.399  12.728  20.063  0.00  0.00    +0.000 A 
ATOM     29 CL   UNL     1      -5.436  13.561  21.168  0.00  0.00    +0.000 Cl
ATOM     30  C   UNL     1      -3.010  12.673  20.237  0.00  0.00    +0.000 A 
BRANCH  30  31
ATOM     31  C   UNL     1      -2.385  13.285  21.374  0.00  0.00    +0.000 C 
ATOM     32  N   UNL     1      -1.846  13.770  22.288  0.00  0.00    +0.000 NA
ENDBRANCH  30  31
ENDBRANCH  23  24
ENDBRANCH   4  23
TORSDOF 5
ENDMDL
MODEL 3
REMARK VINA RESULT:      -8.6      7.098      9.839
REMARK  Name = 
REMARK  9 active torsions:
REMARK  status: ('A' for Active; 'I' for Inactive)
REMARK    1  A    between atoms: C_1  and  C_2
REMARK    2  A    between atoms: C_2  and  C_3
REMARK    3  A    between atoms: C_5  and  N_6
REMARK    4  A    between atoms: C_7  and  C_9
REMARK    5  A    between atoms: C_12  and  O_13
REMARK    6  A    between atoms: O_13  and  C_14
REMARK    7  A    between atoms: C_20  and  C_21
REMARK    8  A    between atoms: C_27  and  C_28
REMARK    9  A    between atoms: C_27  and  C_29
REMARK                            x       y       z     vdW  Elec       q    Type
REMARK                         _______ _______ _______ _____ _____    ______ ____
ROOT
ATOM      1  C   UNL     1       1.505   8.805  19.113  0.00  0.00    +0.000 A 
ATOM      2  C   UNL     1       0.814   9.733  18.330  0.00  0.00    +0.000 A 
ATOM      3  C   UNL     1      -0.044  10.655  18.943  0.00  0.00    +0.000 A 
ATOM      4  C   UNL     1      -0.246  10.648  20.333  0.00  0.00    +0.000 A 
ATOM      5  C   UNL     1       0.380   9.654  21.100  0.00  0.00    +0.000 A 
ATOM      6 CL   UNL     1       0.037   9.343  22.766  0.00  0.00    +0.000 Cl
ATOM      7  C   UNL     1       1.287   8.778  20.496  0.00  0.00    +0.000 A 
ENDROOT
BRANCH   1   9
ATOM      8  N   UNL     1       2.629   6.632  19.312  0.00  0.00    +0.000 N 
ATOM      9  C   UNL     1       2.394   7.755  18.546  0.00  0.00    +0.000 C 
ATOM     10  O   UNL     1       2.870   7.911  17.428  0.00  0.00    +0.000 OA
ATOM     11  H   UNL     1       2.051   6.448  20.121  0.00  0.00    +0.000 HD
BRANCH   8  16
ATOM     12  C   UNL     1       4.351   2.082  20.278  0.00  0.00    +0.000 C 
ATOM     13  C   UNL     1       4.254   3.156  19.168  0.00  0.00    +0.000 C 
ATOM     14  C   UNL     1       3.618   2.458  17.953  0.00  0.00    +0.000 C 
ATOM     15  C   UNL     1       3.371   4.308  19.687  0.00  0.00    +0.000 C 
ATOM     16  C   UNL     1       3.454   5.545  18.790  0.00  0.00    +0.000 C 
ATOM     17  C   UNL     1       4.909   5.990  18.677  0.00  0.00    +0.000 C 
ATOM     18  C   UNL     1       5.823   4.868  18.150  0.00  0.00    +0.000 C 
ATOM     19  C   UNL     1       7.290   5.300  18.380  0.00  0.00    +0.000 C 
ATOM     20  C   UNL     1       5.660   4.681  16.631  0.00  0.00    +0.000 C 
ATOM     21  N   UNL     1       5.635   3.605  18.891  0.00  0.00    +0.000 NA
ATOM     22  H   UNL     1       6.131   3.677  19.781  0.00  0.00    +0.000 HD
ENDBRANCH   8  16
ENDBRANCH   1   9
BRANCH   4  23
ATOM     23  O   UNL     1      -1.153  11.594  20.761  0.00  0.00    +0.000 OA
BRANCH  23  24
ATOM     24  C   UNL     1      -0.746  12.808  21.275  0.00  0.00    +0.000 A 
ATOM     25  C   UNL     1       0.157  13.654  20.619  0.00  0.00    +0.000 A 
ATOM     26  C   UNL     1       0.658  14.780  21.267  0.00  0.00    +0.000 A 
ATOM     27  C   UNL     1       0.186  15.121  22.532  0.00  0.00    +0.000 A 
ATOM     28  C   UNL     1      -0.812  14.353  23.138  0.00  0.00    +0.000 A 
ATOM     29 CL   UNL     1      -1.411  14.891  24.669  0.00  0.00    +0.000 Cl
ATOM     30  C   UNL     1      -1.289  13.191  22.515  0.00  0.00    +0.000 A 
BRANCH  30  31
ATOM     31  C   UNL     1      -2.332  12.409  23.112  0.00  0.00    +0.000 C 
ATOM     32  N   UNL     1      -3.199  11.802  23.604  0.00  0.00    +0.000 NA
ENDBRANCH  30  31
ENDBRANCH  23  24
ENDBRANCH   4  23
TORSDOF 5
ENDMDL
MODEL 4
REMARK VINA RESULT:      -8.6      7.003      9.586
REMARK  Name = 
REMARK  9 active torsions:
REMARK  status: ('A' for Active; 'I' for Inactive)
REMARK    1  A    between atoms: C_1  and  C_2
REMARK    2  A    between atoms: C_2  and  C_3
REMARK    3  A    between atoms: C_5  and  N_6
REMARK    4  A    between atoms: C_7  and  C_9
REMARK    5  A    between atoms: C_12  and  O_13
REMARK    6  A    between atoms: O_13  and  C_14
REMARK    7  A    between atoms: C_20  and  C_21
REMARK    8  A    between atoms: C_27  and  C_28
REMARK    9  A    between atoms: C_27  and  C_29
REMARK                            x       y       z     vdW  Elec       q    Type
REMARK                         _______ _______ _______ _____ _____    ______ ____
ROOT
ATOM      1  C   UNL     1       1.870   9.008  18.730  0.00  0.00    +0.000 A 
ATOM      2  C   UNL     1       1.673  10.200  18.027  0.00  0.00    +0.000 A 
ATOM      3  C   UNL     1       0.917  11.229  18.604  0.00  0.00    +0.000 A 
ATOM      4  C   UNL     1       0.326  11.075  19.870  0.00  0.00    +0.000 A 
ATOM      5  C   UNL     1       0.452   9.841  20.527  0.00  0.00    +0.000 A 
ATOM      6 CL   UNL     1      -0.420   9.399  21.953  0.00  0.00    +0.000 Cl
ATOM      7  C   UNL     1       1.263   8.841  19.980  0.00  0.00    +0.000 A 
ENDROOT
BRANCH   1   9
ATOM      8  N   UNL     1       2.883   6.793  19.026  0.00  0.00    +0.000 N 
ATOM      9  C   UNL     1       2.611   7.843  18.175  0.00  0.00    +0.000 C 
ATOM     10  O   UNL     1       2.938   7.847  16.994  0.00  0.00    +0.000 OA
ATOM     11  H   UNL     1       2.412   6.737  19.918  0.00  0.00    +0.000 HD
BRANCH   8  16
ATOM     12  C   UNL     1       4.284   2.184  20.208  0.00  0.00    +0.000 C 
ATOM     13  C   UNL     1       4.187   3.181  19.028  0.00  0.00    +0.000 C 
ATOM     14  C   UNL     1       3.394   2.460  17.923  0.00  0.00    +0.000 C 
ATOM     15  C   UNL     1       3.453   4.443  19.522  0.00  0.00    +0.000 C 
ATOM     16  C   UNL     1       3.566   5.601  18.528  0.00  0.00    +0.000 C 
ATOM     17  C   UNL     1       5.039   5.902  18.270  0.00  0.00    +0.000 C 
ATOM     18  C   UNL     1       5.806   4.666  17.763  0.00  0.00    +0.000 C 
ATOM     19  C   UNL     1       7.319   4.976  17.844  0.00  0.00    +0.000 C 
ATOM     20  C   UNL     1       5.502   4.388  16.280  0.00  0.00    +0.000 C 
ATOM     21  N   UNL     1       5.573   3.480  18.612  0.00  0.00    +0.000 NA
ATOM     22  H   UNL     1       6.146   3.569  19.452  0.00  0.00    +0.000 HD
ENDBRANCH   8  16
ENDBRANCH   1   9
BRANCH   4  23
ATOM     23  O   UNL     1      -0.416  12.167  20.266  0.00  0.00    +0.000 OA
BRANCH  23  24
ATOM     24  C   UNL     1      -1.792  12.182  20.170  0.00  0.00    +0.000 A 
ATOM     25  C   UNL     1      -2.483  11.794  19.016  0.00  0.00    +0.000 A 
ATOM     26  C   UNL     1      -3.858  11.996  18.923  0.00  0.00    +0.000 A 
ATOM     27  C   UNL     1      -4.563  12.492  20.017  0.00  0.00    +0.000 A 
ATOM     28  C   UNL     1      -3.897  12.758  21.217  0.00  0.00    +0.000 A 
ATOM     29 CL   UNL     1      -4.854  13.286  22.557  0.00  0.00    +0.000 Cl
ATOM     30  C   UNL     1      -2.507  12.604  21.305  0.00  0.00    +0.000 A 
BRANCH  30  31
ATOM     31  C   UNL     1      -1.815  12.847  22.538  0.00  0.00    +0.000 C 
ATOM     32  N   UNL     1      -1.227  13.061  23.522  0.00  0.00    +0.000 NA
ENDBRANCH  30  31
ENDBRANCH  23  24
ENDBRANCH   4  23
TORSDOF 5
ENDMDL
MODEL 5
REMARK VINA RESULT:      -8.4      8.169      9.400
REMARK  Name = 
REMARK  9 active torsions:
REMARK  status: ('A' for Active; 'I' for Inactive)
REMARK    1  A    between atoms: C_1  and  C_2
REMARK    2  A    between atoms: C_2  and  C_3
REMARK    3  A    between atoms: C_5  and  N_6
REMARK    4  A    between atoms: C_7  and  C_9
REMARK    5  A    between atoms: C_12  and  O_13
REMARK    6  A    between atoms: O_13  and  C_14
REMARK    7  A    between atoms: C_20  and  C_21
REMARK    8  A    between atoms: C_27  and  C_28
REMARK    9  A    between atoms: C_27  and  C_29
REMARK                            x       y       z     vdW  Elec       q    Type
REMARK                         _______ _______ _______ _____ _____    ______ ____
ROOT
ATOM      1  C   UNL     1       0.153   9.980  20.768  0.00  0.00    +0.000 A 
ATOM      2  C   UNL     1       0.417   8.996  21.725  0.00  0.00    +0.000 A 
ATOM      3  C   UNL     1       1.298   7.950  21.419  0.00  0.00    +0.000 A 
ATOM      4  C   UNL     1       1.903   7.855  20.155  0.00  0.00    +0.000 A 
ATOM      5  C   UNL     1       1.559   8.795  19.171  0.00  0.00    +0.000 A 
ATOM      6 CL   UNL     1       2.004   8.672  17.504  0.00  0.00    +0.000 Cl
ATOM      7  C   UNL     1       0.734   9.875  19.498  0.00  0.00    +0.000 A 
ENDROOT
BRANCH   1   9
ATOM      8  N   UNL     1      -0.910  11.616  22.256  0.00  0.00    +0.000 N 
ATOM      9  C   UNL     1      -0.808  11.095  20.983  0.00  0.00    +0.000 C 
ATOM     10  O   UNL     1      -1.459  11.519  20.035  0.00  0.00    +0.000 OA
ATOM     11  H   UNL     1      -0.209  11.388  22.948  0.00  0.00    +0.000 HD
BRANCH   8  16
ATOM     12  C   UNL     1      -1.543  15.659  25.059  0.00  0.00    +0.000 C 
ATOM     13  C   UNL     1      -2.111  14.906  23.832  0.00  0.00    +0.000 C 
ATOM     14  C   UNL     1      -2.137  15.925  22.679  0.00  0.00    +0.000 C 
ATOM     15  C   UNL     1      -1.177  13.720  23.519  0.00  0.00    +0.000 C 
ATOM     16  C   UNL     1      -1.801  12.744  22.520  0.00  0.00    +0.000 C 
ATOM     17  C   UNL     1      -3.137  12.248  23.066  0.00  0.00    +0.000 C 
ATOM     18  C   UNL     1      -4.103  13.405  23.381  0.00  0.00    +0.000 C 
ATOM     19  C   UNL     1      -5.273  12.836  24.218  0.00  0.00    +0.000 C 
ATOM     20  C   UNL     1      -4.730  13.976  22.096  0.00  0.00    +0.000 C 
ATOM     21  N   UNL     1      -3.467  14.453  24.204  0.00  0.00    +0.000 NA
ATOM     22  H   UNL     1      -3.440  14.129  25.172  0.00  0.00    +0.000 HD
ENDBRANCH   8  16
ENDBRANCH   1   9
BRANCH   4  23
ATOM     23  O   UNL     1       2.706   6.744  20.012  0.00  0.00    +0.000 OA
BRANCH  23  24
ATOM     24  C   UNL     1       2.178   5.497  19.746  0.00  0.00    +0.000 A 
ATOM     25  C   UNL     1       1.179   4.905  20.528  0.00  0.00    +0.000 A 
ATOM     26  C   UNL     1       0.813   3.579  20.309  0.00  0.00    +0.000 A 
ATOM     27  C   UNL     1       1.370   2.871  19.247  0.00  0.00    +0.000 A 
ATOM     28  C   UNL     1       2.272   3.498  18.383  0.00  0.00    +0.000 A 
ATOM     29 CL   UNL     1       2.851   2.582  17.036  0.00  0.00    +0.000 Cl
ATOM     30  C   UNL     1       2.682   4.817  18.623  0.00  0.00    +0.000 A 
BRANCH  30  31
ATOM     31  C   UNL     1       3.585   5.482  17.729  0.00  0.00    +0.000 C 
ATOM     32  N   UNL     1       4.337   5.992  16.997  0.00  0.00    +0.000 NA
ENDBRANCH  30  31
ENDBRANCH  23  24
ENDBRANCH   4  23
TORSDOF 5
ENDMDL
MODEL 6
REMARK VINA RESULT:      -8.4      7.009      8.189
REMARK  Name = 
REMARK  9 active torsions:
REMARK  status: ('A' for Active; 'I' for Inactive)
REMARK    1  A    between atoms: C_1  and  C_2
REMARK    2  A    between atoms: C_2  and  C_3
REMARK    3  A    between atoms: C_5  and  N_6
REMARK    4  A    between atoms: C_7  and  C_9
REMARK    5  A    between atoms: C_12  and  O_13
REMARK    6  A    between atoms: O_13  and  C_14
REMARK    7  A    between atoms: C_20  and  C_21
REMARK    8  A    between atoms: C_27  and  C_28
REMARK    9  A    between atoms: C_27  and  C_29
REMARK                            x       y       z     vdW  Elec       q    Type
REMARK                         _______ _______ _______ _____ _____    ______ ____
ROOT
ATOM      1  C   UNL     1       1.292   9.353  19.671  0.00  0.00    +0.000 A 
ATOM      2  C   UNL     1       1.842   9.374  18.386  0.00  0.00    +0.000 A 
ATOM      3  C   UNL     1       2.407   8.207  17.855  0.00  0.00    +0.000 A 
ATOM      4  C   UNL     1       2.459   7.019  18.603  0.00  0.00    +0.000 A 
ATOM      5  C   UNL     1       1.990   7.034  19.925  0.00  0.00    +0.000 A 
ATOM      6 CL   UNL     1       2.216   5.746  21.057  0.00  0.00    +0.000 Cl
ATOM      7  C   UNL     1       1.365   8.178  20.429  0.00  0.00    +0.000 A 
ENDROOT
BRANCH   1   9
ATOM      8  N   UNL     1      -0.262  11.252  19.665  0.00  0.00    +0.000 N 
ATOM      9  C   UNL     1       0.720  10.555  20.337  0.00  0.00    +0.000 C 
ATOM     10  O   UNL     1       1.122  10.874  21.450  0.00  0.00    +0.000 OA
ATOM     11  H   UNL     1      -0.711  10.836  18.861  0.00  0.00    +0.000 HD
BRANCH   8  16
ATOM     12  C   UNL     1      -4.601  13.543  20.394  0.00  0.00    +0.000 C 
ATOM     13  C   UNL     1      -3.111  13.558  20.812  0.00  0.00    +0.000 C 
ATOM     14  C   UNL     1      -3.098  13.489  22.350  0.00  0.00    +0.000 C 
ATOM     15  C   UNL     1      -2.421  12.331  20.184  0.00  0.00    +0.000 C 
ATOM     16  C   UNL     1      -0.897  12.412  20.288  0.00  0.00    +0.000 C 
ATOM     17  C   UNL     1      -0.414  13.700  19.626  0.00  0.00    +0.000 C 
ATOM     18  C   UNL     1      -1.073  14.951  20.235  0.00  0.00    +0.000 C 
ATOM     19  C   UNL     1      -0.778  16.148  19.302  0.00  0.00    +0.000 C 
ATOM     20  C   UNL     1      -0.451  15.303  21.598  0.00  0.00    +0.000 C 
ATOM     21  N   UNL     1      -2.542  14.825  20.308  0.00  0.00    +0.000 NA
ATOM     22  H   UNL     1      -2.926  14.999  19.378  0.00  0.00    +0.000 HD
ENDBRANCH   8  16
ENDBRANCH   1   9
BRANCH   4  23
ATOM     23  O   UNL     1       3.087   5.983  17.944  0.00  0.00    +0.000 OA
BRANCH  23  24
ATOM     24  C   UNL     1       2.802   4.664  18.230  0.00  0.00    +0.000 A 
ATOM     25  C   UNL     1       1.587   4.053  17.899  0.00  0.00    +0.000 A 
ATOM     26  C   UNL     1       1.295   2.774  18.367  0.00  0.00    +0.000 A 
ATOM     27  C   UNL     1       2.255   2.061  19.082  0.00  0.00    +0.000 A 
ATOM     28  C   UNL     1       3.519   2.615  19.304  0.00  0.00    +0.000 A 
ATOM     29 CL   UNL     1       4.686   1.635  20.120  0.00  0.00    +0.000 Cl
ATOM     30  C   UNL     1       3.805   3.920  18.878  0.00  0.00    +0.000 A 
BRANCH  30  31
ATOM     31  C   UNL     1       5.106   4.491  19.074  0.00  0.00    +0.000 C 
ATOM     32  N   UNL     1       6.170   4.952  19.199  0.00  0.00    +0.000 NA
ENDBRANCH  30  31
ENDBRANCH  23  24
ENDBRANCH   4  23
TORSDOF 5
ENDMDL
MODEL 7
REMARK VINA RESULT:      -8.3      7.656     10.384
REMARK  Name = 
REMARK  9 active torsions:
REMARK  status: ('A' for Active; 'I' for Inactive)
REMARK    1  A    between atoms: C_1  and  C_2
REMARK    2  A    between atoms: C_2  and  C_3
REMARK    3  A    between atoms: C_5  and  N_6
REMARK    4  A    between atoms: C_7  and  C_9
REMARK    5  A    between atoms: C_12  and  O_13
REMARK    6  A    between atoms: O_13  and  C_14
REMARK    7  A    between atoms: C_20  and  C_21
REMARK    8  A    between atoms: C_27  and  C_28
REMARK    9  A    between atoms: C_27  and  C_29
REMARK                            x       y       z     vdW  Elec       q    Type
REMARK                         _______ _______ _______ _____ _____    ______ ____
ROOT
ATOM      1  C   UNL     1       1.040   8.911  20.119  0.00  0.00    +0.000 A 
ATOM      2  C   UNL     1       0.628   9.748  19.079  0.00  0.00    +0.000 A 
ATOM      3  C   UNL     1      -0.197  10.845  19.358  0.00  0.00    +0.000 A 
ATOM      4  C   UNL     1      -0.644  11.106  20.665  0.00  0.00    +0.000 A 
ATOM      5  C   UNL     1      -0.301  10.206  21.686  0.00  0.00    +0.000 A 
ATOM      6 CL   UNL     1      -0.975  10.232  23.279  0.00  0.00    +0.000 Cl
ATOM      7  C   UNL     1       0.577   9.152  21.418  0.00  0.00    +0.000 A 
ENDROOT
BRANCH   1   9
ATOM      8  N   UNL     1       2.483   7.538  18.685  0.00  0.00    +0.000 N 
ATOM      9  C   UNL     1       1.870   7.694  19.910  0.00  0.00    +0.000 C 
ATOM     10  O   UNL     1       1.994   6.887  20.825  0.00  0.00    +0.000 OA
ATOM     11  H   UNL     1       2.532   8.321  18.047  0.00  0.00    +0.000 HD
BRANCH   8  16
ATOM     12  C   UNL     1       5.704   5.562  15.471  0.00  0.00    +0.000 C 
ATOM     13  C   UNL     1       5.114   5.391  16.892  0.00  0.00    +0.000 C 
ATOM     14  C   UNL     1       6.317   5.335  17.850  0.00  0.00    +0.000 C 
ATOM     15  C   UNL     1       4.209   6.603  17.188  0.00  0.00    +0.000 C 
ATOM     16  C   UNL     1       3.350   6.388  18.436  0.00  0.00    +0.000 C 
ATOM     17  C   UNL     1       2.515   5.123  18.262  0.00  0.00    +0.000 C 
ATOM     18  C   UNL     1       3.386   3.885  17.975  0.00  0.00    +0.000 C 
ATOM     19  C   UNL     1       2.455   2.746  17.498  0.00  0.00    +0.000 C 
ATOM     20  C   UNL     1       4.071   3.375  19.255  0.00  0.00    +0.000 C 
ATOM     21  N   UNL     1       4.351   4.126  16.884  0.00  0.00    +0.000 NA
ATOM     22  H   UNL     1       3.853   4.059  15.994  0.00  0.00    +0.000 HD
ENDBRANCH   8  16
ENDBRANCH   1   9
BRANCH   4  23
ATOM     23  O   UNL     1      -1.481  12.198  20.752  0.00  0.00    +0.000 OA
BRANCH  23  24
ATOM     24  C   UNL     1      -1.173  13.285  21.542  0.00  0.00    +0.000 A 
ATOM     25  C   UNL     1      -0.014  14.052  21.373  0.00  0.00    +0.000 A 
ATOM     26  C   UNL     1       0.323  15.027  22.309  0.00  0.00    +0.000 A 
ATOM     27  C   UNL     1      -0.544  15.309  23.361  0.00  0.00    +0.000 A 
ATOM     28  C   UNL     1      -1.766  14.637  23.462  0.00  0.00    +0.000 A 
ATOM     29 CL   UNL     1      -2.828  15.105  24.743  0.00  0.00    +0.000 Cl
ATOM     30  C   UNL     1      -2.092  13.621  22.553  0.00  0.00    +0.000 A 
BRANCH  30  31
ATOM     31  C   UNL     1      -3.353  12.943  22.627  0.00  0.00    +0.000 C 
ATOM     32  N   UNL     1      -4.382  12.393  22.653  0.00  0.00    +0.000 NA
ENDBRANCH  30  31
ENDBRANCH  23  24
ENDBRANCH   4  23
TORSDOF 5
ENDMDL
MODEL 8
REMARK VINA RESULT:      -8.3      7.679      9.104
REMARK  Name = 
REMARK  9 active torsions:
REMARK  status: ('A' for Active; 'I' for Inactive)
REMARK    1  A    between atoms: C_1  and  C_2
REMARK    2  A    between atoms: C_2  and  C_3
REMARK    3  A    between atoms: C_5  and  N_6
REMARK    4  A    between atoms: C_7  and  C_9
REMARK    5  A    between atoms: C_12  and  O_13
REMARK    6  A    between atoms: O_13  and  C_14
REMARK    7  A    between atoms: C_20  and  C_21
REMARK    8  A    between atoms: C_27  and  C_28
REMARK    9  A    between atoms: C_27  and  C_29
REMARK                            x       y       z     vdW  Elec       q    Type
REMARK                         _______ _______ _______ _____ _____    ______ ____
ROOT
ATOM      1  C   UNL     1       0.420   9.469  20.537  0.00  0.00    +0.000 A 
ATOM      2  C   UNL     1       0.637   8.432  21.448  0.00  0.00    +0.000 A 
ATOM      3  C   UNL     1       1.573   7.432  21.151  0.00  0.00    +0.000 A 
ATOM      4  C   UNL     1       2.281   7.436  19.937  0.00  0.00    +0.000 A 
ATOM      5  C   UNL     1       1.987   8.429  18.989  0.00  0.00    +0.000 A 
ATOM      6 CL   UNL     1       2.568   8.428  17.360  0.00  0.00    +0.000 Cl
ATOM      7  C   UNL     1       1.104   9.462  19.316  0.00  0.00    +0.000 A 
ENDROOT
BRANCH   1   9
ATOM      8  N   UNL     1      -0.629  11.158  21.975  0.00  0.00    +0.000 N 
ATOM      9  C   UNL     1      -0.591  10.541  20.743  0.00  0.00    +0.000 C 
ATOM     10  O   UNL     1      -1.337  10.848  19.820  0.00  0.00    +0.000 OA
ATOM     11  H   UNL     1       0.136  11.028  22.623  0.00  0.00    +0.000 HD
BRANCH   8  16
ATOM     12  C   UNL     1      -1.062  15.724  23.865  0.00  0.00    +0.000 C 
ATOM     13  C   UNL     1      -1.819  14.647  23.051  0.00  0.00    +0.000 C 
ATOM     14  C   UNL     1      -2.282  15.338  21.755  0.00  0.00    +0.000 C 
ATOM     15  C   UNL     1      -0.845  13.489  22.759  0.00  0.00    +0.000 C 
ATOM     16  C   UNL     1      -1.567  12.251  22.222  0.00  0.00    +0.000 C 
ATOM     17  C   UNL     1      -2.635  11.817  23.222  0.00  0.00    +0.000 C 
ATOM     18  C   UNL     1      -3.636  12.946  23.531  0.00  0.00    +0.000 C 
ATOM     19  C   UNL     1      -4.461  12.526  24.770  0.00  0.00    +0.000 C 
ATOM     20  C   UNL     1      -4.645  13.128  22.383  0.00  0.00    +0.000 C 
ATOM     21  N   UNL     1      -2.958  14.209  23.884  0.00  0.00    +0.000 NA
ATOM     22  H   UNL     1      -2.639  14.142  24.851  0.00  0.00    +0.000 HD
ENDBRANCH   8  16
ENDBRANCH   1   9
BRANCH   4  23
ATOM     23  O   UNL     1       3.128   6.358  19.792  0.00  0.00    +0.000 OA
BRANCH  23  24
ATOM     24  C   UNL     1       2.887   5.367  18.863  0.00  0.00    +0.000 A 
ATOM     25  C   UNL     1       1.689   4.645  18.806  0.00  0.00    +0.000 A 
ATOM     26  C   UNL     1       1.574   3.544  17.960  0.00  0.00    +0.000 A 
ATOM     27  C   UNL     1       2.618   3.221  17.096  0.00  0.00    +0.000 A 
ATOM     28  C   UNL     1       3.766   4.017  17.055  0.00  0.00    +0.000 A 
ATOM     29 CL   UNL     1       4.980   3.605  15.894  0.00  0.00    +0.000 Cl
ATOM     30  C   UNL     1       3.911   5.098  17.936  0.00  0.00    +0.000 A 
BRANCH  30  31
ATOM     31  C   UNL     1       5.070   5.940  17.886  0.00  0.00    +0.000 C 
ATOM     32  N   UNL     1       6.032   6.599  17.830  0.00  0.00    +0.000 NA
ENDBRANCH  30  31
ENDBRANCH  23  24
ENDBRANCH   4  23
TORSDOF 5
ENDMDL
MODEL 9
REMARK VINA RESULT:      -8.2      7.488     10.032
REMARK  Name = 
REMARK  9 active torsions:
REMARK  status: ('A' for Active; 'I' for Inactive)
REMARK    1  A    between atoms: C_1  and  C_2
REMARK    2  A    between atoms: C_2  and  C_3
REMARK    3  A    between atoms: C_5  and  N_6
REMARK    4  A    between atoms: C_7  and  C_9
REMARK    5  A    between atoms: C_12  and  O_13
REMARK    6  A    between atoms: O_13  and  C_14
REMARK    7  A    between atoms: C_20  and  C_21
REMARK    8  A    between atoms: C_27  and  C_28
REMARK    9  A    between atoms: C_27  and  C_29
REMARK                            x       y       z     vdW  Elec       q    Type
REMARK                         _______ _______ _______ _____ _____    ______ ____
ROOT
ATOM      1  C   UNL     1       1.277   8.481  20.188  0.00  0.00    +0.000 A 
ATOM      2  C   UNL     1       1.319   8.589  21.580  0.00  0.00    +0.000 A 
ATOM      3  C   UNL     1       0.464   9.487  22.232  0.00  0.00    +0.000 A 
ATOM      4  C   UNL     1      -0.420  10.305  21.508  0.00  0.00    +0.000 A 
ATOM      5  C   UNL     1      -0.388  10.256  20.106  0.00  0.00    +0.000 A 
ATOM      6 CL   UNL     1      -1.212  11.370  19.070  0.00  0.00    +0.000 Cl
ATOM      7  C   UNL     1       0.416   9.312  19.461  0.00  0.00    +0.000 A 
ENDROOT
BRANCH   1   9
ATOM      8  N   UNL     1       2.582   6.412  19.991  0.00  0.00    +0.000 N 
ATOM      9  C   UNL     1       2.183   7.596  19.407  0.00  0.00    +0.000 C 
ATOM     10  O   UNL     1       2.530   7.934  18.281  0.00  0.00    +0.000 OA
ATOM     11  H   UNL     1       2.106   6.076  20.817  0.00  0.00    +0.000 HD
BRANCH   8  16
ATOM     12  C   UNL     1       4.458   1.820  20.014  0.00  0.00    +0.000 C 
ATOM     13  C   UNL     1       4.313   3.090  19.142  0.00  0.00    +0.000 C 
ATOM     14  C   UNL     1       3.681   2.628  17.816  0.00  0.00    +0.000 C 
ATOM     15  C   UNL     1       3.402   4.085  19.887  0.00  0.00    +0.000 C 
ATOM     16  C   UNL     1       3.433   5.479  19.256  0.00  0.00    +0.000 C 
ATOM     17  C   UNL     1       4.872   5.986  19.223  0.00  0.00    +0.000 C 
ATOM     18  C   UNL     1       5.813   5.022  18.476  0.00  0.00    +0.000 C 
ATOM     19  C   UNL     1       7.269   5.448  18.776  0.00  0.00    +0.000 C 
ATOM     20  C   UNL     1       5.635   5.138  16.951  0.00  0.00    +0.000 C 
ATOM     21  N   UNL     1       5.674   3.631  18.950  0.00  0.00    +0.000 NA
ATOM     22  H   UNL     1       6.181   3.540  19.832  0.00  0.00    +0.000 HD
ENDBRANCH   8  16
ENDBRANCH   1   9
BRANCH   4  23
ATOM     23  O   UNL     1      -1.156  11.157  22.304  0.00  0.00    +0.000 OA
BRANCH  23  24
ATOM     24  C   UNL     1      -0.894  12.510  22.353  0.00  0.00    +0.000 A 
ATOM     25  C   UNL     1       0.206  13.102  21.719  0.00  0.00    +0.000 A 
ATOM     26  C   UNL     1       0.509  14.442  21.950  0.00  0.00    +0.000 A 
ATOM     27  C   UNL     1      -0.339  15.221  22.732  0.00  0.00    +0.000 A 
ATOM     28  C   UNL     1      -1.509  14.669  23.261  0.00  0.00    +0.000 A 
ATOM     29 CL   UNL     1      -2.557  15.723  24.146  0.00  0.00    +0.000 Cl
ATOM     30  C   UNL     1      -1.799  13.311  23.075  0.00  0.00    +0.000 A 
BRANCH  30  31
ATOM     31  C   UNL     1      -3.009  12.737  23.587  0.00  0.00    +0.000 C 
ATOM     32  N   UNL     1      -3.999  12.256  23.974  0.00  0.00    +0.000 NA
ENDBRANCH  30  31
ENDBRANCH  23  24
ENDBRANCH   4  23
TORSDOF 5
ENDMDL
