MODEL 1
REMARK VINA RESULT:      -9.8      0.000      0.000
REMARK  Name = 
REMARK  5 active torsions:
REMARK  status: ('A' for Active; 'I' for Inactive)
REMARK    1  A    between atoms: O_1  and  C_2
REMARK    2  A    between atoms: C_5  and  C_6
REMARK    3  A    between atoms: C_11  and  C_12
REMARK    4  A    between atoms: C_15  and  C_16
REMARK    5  A    between atoms: C_26  and  C_27
REMARK                            x       y       z     vdW  Elec       q    Type
REMARK                         _______ _______ _______ _____ _____    ______ ____
ROOT
ATOM      1  C   UNL     1      -2.267  13.312  21.951  0.00  0.00    +0.000 C 
ATOM      2  N   UNL     1      -1.705  12.224  22.375  0.00  0.00    +0.000 NA
ATOM      3  N   UNL     1      -1.144  11.600  21.292  0.00  0.00    +0.000 N 
ATOM      4  C   UNL     1      -0.374  10.474  21.345  0.00  0.00    +0.000 A 
ATOM      5  N   UNL     1       0.294   9.953  20.330  0.00  0.00    +0.000 NA
ATOM      6  C   UNL     1       0.949   8.792  20.708  0.00  0.00    +0.000 A 
ATOM      7  C   UNL     1       0.768   8.431  22.028  0.00  0.00    +0.000 A 
ATOM      8  S   UNL     1      -0.204   9.581  22.824  0.00  0.00    +0.000 S 
ATOM      9  C   UNL     1      -1.315  12.349  20.047  0.00  0.00    +0.000 C 
ATOM     10  C   UNL     1      -2.142  13.567  20.476  0.00  0.00    +0.000 C 
ENDROOT
BRANCH   1  14
ATOM     11  C   UNL     1      -4.304  15.982  24.586  0.00  0.00    +0.000 A 
ATOM     12  C   UNL     1      -3.156  15.331  25.017  0.00  0.00    +0.000 A 
ATOM     13  C   UNL     1      -2.495  14.458  24.147  0.00  0.00    +0.000 A 
ATOM     14  C   UNL     1      -2.986  14.244  22.852  0.00  0.00    +0.000 A 
ATOM     15  C   UNL     1      -4.147  14.908  22.430  0.00  0.00    +0.000 A 
ATOM     16  C   UNL     1      -4.802  15.776  23.305  0.00  0.00    +0.000 A 
BRANCH  11  17
ATOM     17  O   UNL     1      -4.986  16.840  25.392  0.00  0.00    +0.000 OA
ATOM     18  H   UNL     1      -4.387  17.146  26.096  0.00  0.00    +0.000 HD
ENDBRANCH  11  17
ENDBRANCH   1  14
BRANCH   6  19
ATOM     19  C   UNL     1       1.779   8.035  19.777  0.00  0.00    +0.000 A 
ATOM     20  C   UNL     1       2.262   6.770  20.123  0.00  0.00    +0.000 A 
ATOM     21  C   UNL     1       3.080   6.052  19.245  0.00  0.00    +0.000 A 
ATOM     22  C   UNL     1       3.437   6.557  17.983  0.00  0.00    +0.000 A 
ATOM     23  C   UNL     1       2.941   7.831  17.646  0.00  0.00    +0.000 A 
ATOM     24  C   UNL     1       2.130   8.563  18.531  0.00  0.00    +0.000 A 
BRANCH  22  25
ATOM     25  C   UNL     1       4.304   5.768  17.076  0.00  0.00    +0.000 A 
ATOM     26  C   UNL     1       5.038   6.391  16.047  0.00  0.00    +0.000 A 
ATOM     27  C   UNL     1       5.820   5.656  15.151  0.00  0.00    +0.000 A 
ATOM     28  C   UNL     1       5.904   4.275  15.276  0.00  0.00    +0.000 A 
ATOM     29  C   UNL     1       5.205   3.632  16.293  0.00  0.00    +0.000 A 
ATOM     30  C   UNL     1       4.411   4.369  17.179  0.00  0.00    +0.000 A 
ENDBRANCH  22  25
ENDBRANCH   6  19
BRANCH   9  31
ATOM     31  C   UNL     1      -2.013  11.537  18.969  0.00  0.00    +0.000 A 
ATOM     32  C   UNL     1      -1.287  10.765  18.049  0.00  0.00    +0.000 A 
ATOM     33  C   UNL     1      -1.942  10.060  17.038  0.00  0.00    +0.000 A 
ATOM     34  C   UNL     1      -3.329  10.126  16.931  0.00  0.00    +0.000 A 
ATOM     35  C   UNL     1      -4.065  10.887  17.837  0.00  0.00    +0.000 A 
ATOM     36  C   UNL     1      -3.412  11.587  18.853  0.00  0.00    +0.000 A 
ENDBRANCH   9  31
TORSDOF 5
ENDMDL
MODEL 2
REMARK VINA RESULT:      -9.7      0.824      1.163
REMARK  Name = 
REMARK  5 active torsions:
REMARK  status: ('A' for Active; 'I' for Inactive)
REMARK    1  A    between atoms: O_1  and  C_2
REMARK    2  A    between atoms: C_5  and  C_6
REMARK    3  A    between atoms: C_11  and  C_12
REMARK    4  A    between atoms: C_15  and  C_16
REMARK    5  A    between atoms: C_26  and  C_27
REMARK                            x       y       z     vdW  Elec       q    Type
REMARK                         _______ _______ _______ _____ _____    ______ ____
ROOT
ATOM      1  C   UNL     1      -2.489  14.023  22.253  0.00  0.00    +0.000 C 
ATOM      2  N   UNL     1      -2.010  12.894  22.670  0.00  0.00    +0.000 NA
ATOM      3  N   UNL     1      -1.455  12.258  21.590  0.00  0.00    +0.000 N 
ATOM      4  C   UNL     1      -0.758  11.085  21.641  0.00  0.00    +0.000 A 
ATOM      5  N   UNL     1      -0.093  10.544  20.635  0.00  0.00    +0.000 NA
ATOM      6  C   UNL     1       0.477   9.337  21.008  0.00  0.00    +0.000 A 
ATOM      7  C   UNL     1       0.233   8.961  22.313  0.00  0.00    +0.000 A 
ATOM      8  S   UNL     1      -0.690  10.154  23.105  0.00  0.00    +0.000 S 
ATOM      9  C   UNL     1      -1.540  13.041  20.358  0.00  0.00    +0.000 C 
ATOM     10  C   UNL     1      -2.303  14.300  20.788  0.00  0.00    +0.000 C 
ENDROOT
BRANCH   1  14
ATOM     11  C   UNL     1      -4.426  16.780  24.874  0.00  0.00    +0.000 A 
ATOM     12  C   UNL     1      -3.092  16.453  25.081  0.00  0.00    +0.000 A 
ATOM     13  C   UNL     1      -2.466  15.548  24.218  0.00  0.00    +0.000 A 
ATOM     14  C   UNL     1      -3.177  14.980  23.152  0.00  0.00    +0.000 A 
ATOM     15  C   UNL     1      -4.523  15.320  22.955  0.00  0.00    +0.000 A 
ATOM     16  C   UNL     1      -5.142  16.221  23.822  0.00  0.00    +0.000 A 
BRANCH  11  17
ATOM     17  O   UNL     1      -5.083  17.653  25.685  0.00  0.00    +0.000 OA
ATOM     18  H   UNL     1      -5.998  17.342  25.798  0.00  0.00    +0.000 HD
ENDBRANCH  11  17
ENDBRANCH   1  14
BRANCH   6  19
ATOM     19  C   UNL     1       1.287   8.548  20.085  0.00  0.00    +0.000 A 
ATOM     20  C   UNL     1       1.793   7.303  20.470  0.00  0.00    +0.000 A 
ATOM     21  C   UNL     1       2.593   6.555  19.600  0.00  0.00    +0.000 A 
ATOM     22  C   UNL     1       2.907   7.010  18.307  0.00  0.00    +0.000 A 
ATOM     23  C   UNL     1       2.387   8.263  17.931  0.00  0.00    +0.000 A 
ATOM     24  C   UNL     1       1.595   9.025  18.808  0.00  0.00    +0.000 A 
BRANCH  22  25
ATOM     25  C   UNL     1       3.755   6.190  17.409  0.00  0.00    +0.000 A 
ATOM     26  C   UNL     1       3.687   4.782  17.429  0.00  0.00    +0.000 A 
ATOM     27  C   UNL     1       4.516   3.993  16.627  0.00  0.00    +0.000 A 
ATOM     28  C   UNL     1       5.423   4.596  15.764  0.00  0.00    +0.000 A 
ATOM     29  C   UNL     1       5.503   5.984  15.709  0.00  0.00    +0.000 A 
ATOM     30  C   UNL     1       4.681   6.771  16.524  0.00  0.00    +0.000 A 
ENDBRANCH  22  25
ENDBRANCH   6  19
BRANCH   9  31
ATOM     31  C   UNL     1      -2.253  12.296  19.242  0.00  0.00    +0.000 A 
ATOM     32  C   UNL     1      -1.565  11.851  18.102  0.00  0.00    +0.000 A 
ATOM     33  C   UNL     1      -2.244  11.207  17.067  0.00  0.00    +0.000 A 
ATOM     34  C   UNL     1      -3.620  11.008  17.156  0.00  0.00    +0.000 A 
ATOM     35  C   UNL     1      -4.318  11.443  18.279  0.00  0.00    +0.000 A 
ATOM     36  C   UNL     1      -3.639  12.081  19.319  0.00  0.00    +0.000 A 
ENDBRANCH   9  31
TORSDOF 5
ENDMDL
MODEL 3
REMARK VINA RESULT:      -9.7      0.089      1.150
REMARK  Name = 
REMARK  5 active torsions:
REMARK  status: ('A' for Active; 'I' for Inactive)
REMARK    1  A    between atoms: O_1  and  C_2
REMARK    2  A    between atoms: C_5  and  C_6
REMARK    3  A    between atoms: C_11  and  C_12
REMARK    4  A    between atoms: C_15  and  C_16
REMARK    5  A    between atoms: C_26  and  C_27
REMARK                            x       y       z     vdW  Elec       q    Type
REMARK                         _______ _______ _______ _____ _____    ______ ____
ROOT
ATOM      1  C   UNL     1      -2.286  13.332  21.912  0.00  0.00    +0.000 C 
ATOM      2  N   UNL     1      -1.724  12.254  22.359  0.00  0.00    +0.000 NA
ATOM      3  N   UNL     1      -1.153  11.613  21.290  0.00  0.00    +0.000 N 
ATOM      4  C   UNL     1      -0.380  10.491  21.368  0.00  0.00    +0.000 A 
ATOM      5  N   UNL     1       0.296   9.955  20.367  0.00  0.00    +0.000 NA
ATOM      6  C   UNL     1       0.953   8.803  20.769  0.00  0.00    +0.000 A 
ATOM      7  C   UNL     1       0.764   8.464  22.094  0.00  0.00    +0.000 A 
ATOM      8  S   UNL     1      -0.217   9.624  22.864  0.00  0.00    +0.000 S 
ATOM      9  C   UNL     1      -1.318  12.340  20.032  0.00  0.00    +0.000 C 
ATOM     10  C   UNL     1      -2.152  13.563  20.434  0.00  0.00    +0.000 C 
ENDROOT
BRANCH   1  14
ATOM     11  C   UNL     1      -4.355  16.036  24.488  0.00  0.00    +0.000 A 
ATOM     12  C   UNL     1      -3.289  15.293  24.981  0.00  0.00    +0.000 A 
ATOM     13  C   UNL     1      -2.618  14.410  24.129  0.00  0.00    +0.000 A 
ATOM     14  C   UNL     1      -3.015  14.277  22.792  0.00  0.00    +0.000 A 
ATOM     15  C   UNL     1      -4.092  15.033  22.308  0.00  0.00    +0.000 A 
ATOM     16  C   UNL     1      -4.760  15.910  23.164  0.00  0.00    +0.000 A 
BRANCH  11  17
ATOM     17  O   UNL     1      -5.043  16.908  25.273  0.00  0.00    +0.000 OA
ATOM     18  H   UNL     1      -4.997  17.792  24.869  0.00  0.00    +0.000 HD
ENDBRANCH  11  17
ENDBRANCH   1  14
BRANCH   6  19
ATOM     19  C   UNL     1       1.792   8.033  19.857  0.00  0.00    +0.000 A 
ATOM     20  C   UNL     1       2.175   8.567  18.623  0.00  0.00    +0.000 A 
ATOM     21  C   UNL     1       2.956   7.823  17.733  0.00  0.00    +0.000 A 
ATOM     22  C   UNL     1       3.399   6.526  18.042  0.00  0.00    +0.000 A 
ATOM     23  C   UNL     1       3.010   6.002  19.289  0.00  0.00    +0.000 A 
ATOM     24  C   UNL     1       2.213   6.740  20.181  0.00  0.00    +0.000 A 
BRANCH  22  25
ATOM     25  C   UNL     1       4.228   5.766  17.076  0.00  0.00    +0.000 A 
ATOM     26  C   UNL     1       4.302   4.359  17.128  0.00  0.00    +0.000 A 
ATOM     27  C   UNL     1       5.118   3.631  16.258  0.00  0.00    +0.000 A 
ATOM     28  C   UNL     1       5.869   4.293  15.295  0.00  0.00    +0.000 A 
ATOM     29  C   UNL     1       5.805   5.681  15.206  0.00  0.00    +0.000 A 
ATOM     30  C   UNL     1       4.998   6.408  16.089  0.00  0.00    +0.000 A 
ENDBRANCH  22  25
ENDBRANCH   6  19
BRANCH   9  31
ATOM     31  C   UNL     1      -2.006  11.507  18.963  0.00  0.00    +0.000 A 
ATOM     32  C   UNL     1      -1.270  10.729  18.055  0.00  0.00    +0.000 A 
ATOM     33  C   UNL     1      -1.917  10.006  17.052  0.00  0.00    +0.000 A 
ATOM     34  C   UNL     1      -3.304  10.057  16.941  0.00  0.00    +0.000 A 
ATOM     35  C   UNL     1      -4.049  10.823  17.834  0.00  0.00    +0.000 A 
ATOM     36  C   UNL     1      -3.405  11.542  18.843  0.00  0.00    +0.000 A 
ENDBRANCH   9  31
TORSDOF 5
ENDMDL
MODEL 4
REMARK VINA RESULT:      -9.7      0.167      1.163
REMARK  Name = 
REMARK  5 active torsions:
REMARK  status: ('A' for Active; 'I' for Inactive)
REMARK    1  A    between atoms: O_1  and  C_2
REMARK    2  A    between atoms: C_5  and  C_6
REMARK    3  A    between atoms: C_11  and  C_12
REMARK    4  A    between atoms: C_15  and  C_16
REMARK    5  A    between atoms: C_26  and  C_27
REMARK                            x       y       z     vdW  Elec       q    Type
REMARK                         _______ _______ _______ _____ _____    ______ ____
ROOT
ATOM      1  C   UNL     1      -2.365  13.394  21.926  0.00  0.00    +0.000 C 
ATOM      2  N   UNL     1      -1.810  12.313  22.375  0.00  0.00    +0.000 NA
ATOM      3  N   UNL     1      -1.226  11.677  21.310  0.00  0.00    +0.000 N 
ATOM      4  C   UNL     1      -0.455  10.553  21.393  0.00  0.00    +0.000 A 
ATOM      5  N   UNL     1       0.234  10.021  20.398  0.00  0.00    +0.000 NA
ATOM      6  C   UNL     1       0.884   8.866  20.804  0.00  0.00    +0.000 A 
ATOM      7  C   UNL     1       0.676   8.521  22.124  0.00  0.00    +0.000 A 
ATOM      8  S   UNL     1      -0.313   9.679  22.887  0.00  0.00    +0.000 S 
ATOM      9  C   UNL     1      -1.373  12.410  20.054  0.00  0.00    +0.000 C 
ATOM     10  C   UNL     1      -2.210  13.631  20.451  0.00  0.00    +0.000 C 
ENDROOT
BRANCH   1  14
ATOM     11  C   UNL     1      -4.524  16.120  24.402  0.00  0.00    +0.000 A 
ATOM     12  C   UNL     1      -4.935  15.904  23.092  0.00  0.00    +0.000 A 
ATOM     13  C   UNL     1      -4.221  15.010  22.288  0.00  0.00    +0.000 A 
ATOM     14  C   UNL     1      -3.103  14.336  22.800  0.00  0.00    +0.000 A 
ATOM     15  C   UNL     1      -2.701  14.563  24.124  0.00  0.00    +0.000 A 
ATOM     16  C   UNL     1      -3.416  15.459  24.919  0.00  0.00    +0.000 A 
BRANCH  11  17
ATOM     17  O   UNL     1      -5.182  16.980  25.225  0.00  0.00    +0.000 OA
ATOM     18  H   UNL     1      -5.645  16.463  25.907  0.00  0.00    +0.000 HD
ENDBRANCH  11  17
ENDBRANCH   1  14
BRANCH   6  19
ATOM     19  C   UNL     1       1.733   8.099  19.899  0.00  0.00    +0.000 A 
ATOM     20  C   UNL     1       2.082   8.613  18.646  0.00  0.00    +0.000 A 
ATOM     21  C   UNL     1       2.874   7.871  17.764  0.00  0.00    +0.000 A 
ATOM     22  C   UNL     1       3.362   6.596  18.099  0.00  0.00    +0.000 A 
ATOM     23  C   UNL     1       3.006   6.093  19.365  0.00  0.00    +0.000 A 
ATOM     24  C   UNL     1       2.199   6.829  20.250  0.00  0.00    +0.000 A 
BRANCH  22  25
ATOM     25  C   UNL     1       4.201   5.838  17.140  0.00  0.00    +0.000 A 
ATOM     26  C   UNL     1       4.944   6.500  16.143  0.00  0.00    +0.000 A 
ATOM     27  C   UNL     1       5.699   5.798  15.199  0.00  0.00    +0.000 A 
ATOM     28  C   UNL     1       5.747   4.410  15.242  0.00  0.00    +0.000 A 
ATOM     29  C   UNL     1       5.037   3.728  16.226  0.00  0.00    +0.000 A 
ATOM     30  C   UNL     1       4.270   4.433  17.161  0.00  0.00    +0.000 A 
ENDBRANCH  22  25
ENDBRANCH   6  19
BRANCH   9  31
ATOM     31  C   UNL     1      -2.048  11.583  18.972  0.00  0.00    +0.000 A 
ATOM     32  C   UNL     1      -1.300  10.833  18.050  0.00  0.00    +0.000 A 
ATOM     33  C   UNL     1      -1.935  10.115  17.036  0.00  0.00    +0.000 A 
ATOM     34  C   UNL     1      -3.324  10.143  16.928  0.00  0.00    +0.000 A 
ATOM     35  C   UNL     1      -4.080  10.882  17.834  0.00  0.00    +0.000 A 
ATOM     36  C   UNL     1      -3.447  11.595  18.854  0.00  0.00    +0.000 A 
ENDBRANCH   9  31
TORSDOF 5
ENDMDL
MODEL 5
REMARK VINA RESULT:      -9.7      0.117      1.632
REMARK  Name = 
REMARK  5 active torsions:
REMARK  status: ('A' for Active; 'I' for Inactive)
REMARK    1  A    between atoms: O_1  and  C_2
REMARK    2  A    between atoms: C_5  and  C_6
REMARK    3  A    between atoms: C_11  and  C_12
REMARK    4  A    between atoms: C_15  and  C_16
REMARK    5  A    between atoms: C_26  and  C_27
REMARK                            x       y       z     vdW  Elec       q    Type
REMARK                         _______ _______ _______ _____ _____    ______ ____
ROOT
ATOM      1  C   UNL     1      -2.314  13.355  21.928  0.00  0.00    +0.000 C 
ATOM      2  N   UNL     1      -1.765  12.266  22.368  0.00  0.00    +0.000 NA
ATOM      3  N   UNL     1      -1.182  11.638  21.298  0.00  0.00    +0.000 N 
ATOM      4  C   UNL     1      -0.417  10.509  21.371  0.00  0.00    +0.000 A 
ATOM      5  N   UNL     1       0.271   9.984  20.372  0.00  0.00    +0.000 NA
ATOM      6  C   UNL     1       0.915   8.822  20.768  0.00  0.00    +0.000 A 
ATOM      7  C   UNL     1       0.703   8.465  22.084  0.00  0.00    +0.000 A 
ATOM      8  S   UNL     1      -0.282   9.620  22.856  0.00  0.00    +0.000 S 
ATOM      9  C   UNL     1      -1.324  12.384  20.048  0.00  0.00    +0.000 C 
ATOM     10  C   UNL     1      -2.156  13.606  20.456  0.00  0.00    +0.000 C 
ENDROOT
BRANCH   1  14
ATOM     11  C   UNL     1      -4.465  16.065  24.428  0.00  0.00    +0.000 A 
ATOM     12  C   UNL     1      -4.892  15.843  23.125  0.00  0.00    +0.000 A 
ATOM     13  C   UNL     1      -4.180  14.953  22.313  0.00  0.00    +0.000 A 
ATOM     14  C   UNL     1      -3.049  14.291  22.811  0.00  0.00    +0.000 A 
ATOM     15  C   UNL     1      -2.631  14.526  24.128  0.00  0.00    +0.000 A 
ATOM     16  C   UNL     1      -3.344  15.417  24.932  0.00  0.00    +0.000 A 
BRANCH  11  17
ATOM     17  O   UNL     1      -5.120  16.921  25.258  0.00  0.00    +0.000 OA
ATOM     18  H   UNL     1      -5.909  17.256  24.798  0.00  0.00    +0.000 HD
ENDBRANCH  11  17
ENDBRANCH   1  14
BRANCH   6  19
ATOM     19  C   UNL     1       1.762   8.060  19.856  0.00  0.00    +0.000 A 
ATOM     20  C   UNL     1       2.116   8.585  18.609  0.00  0.00    +0.000 A 
ATOM     21  C   UNL     1       2.905   7.848  17.721  0.00  0.00    +0.000 A 
ATOM     22  C   UNL     1       3.386   6.567  18.045  0.00  0.00    +0.000 A 
ATOM     23  C   UNL     1       3.026   6.053  19.304  0.00  0.00    +0.000 A 
ATOM     24  C   UNL     1       2.220   6.784  20.195  0.00  0.00    +0.000 A 
BRANCH  22  25
ATOM     25  C   UNL     1       4.223   5.814  17.079  0.00  0.00    +0.000 A 
ATOM     26  C   UNL     1       4.308   4.408  17.132  0.00  0.00    +0.000 A 
ATOM     27  C   UNL     1       5.132   3.687  16.264  0.00  0.00    +0.000 A 
ATOM     28  C   UNL     1       5.879   4.355  15.302  0.00  0.00    +0.000 A 
ATOM     29  C   UNL     1       5.804   5.742  15.213  0.00  0.00    +0.000 A 
ATOM     30  C   UNL     1       4.989   6.462  16.094  0.00  0.00    +0.000 A 
ENDBRANCH  22  25
ENDBRANCH   6  19
BRANCH   9  31
ATOM     31  C   UNL     1      -2.001  11.571  18.957  0.00  0.00    +0.000 A 
ATOM     32  C   UNL     1      -3.398  11.544  18.825  0.00  0.00    +0.000 A 
ATOM     33  C   UNL     1      -4.004  10.757  17.845  0.00  0.00    +0.000 A 
ATOM     34  C   UNL     1      -3.221   9.984  16.990  0.00  0.00    +0.000 A 
ATOM     35  C   UNL     1      -1.834  10.000  17.108  0.00  0.00    +0.000 A 
ATOM     36  C   UNL     1      -1.225  10.792  18.083  0.00  0.00    +0.000 A 
ENDBRANCH   9  31
TORSDOF 5
ENDMDL
MODEL 6
REMARK VINA RESULT:      -9.2      0.698      1.055
REMARK  Name = 
REMARK  5 active torsions:
REMARK  status: ('A' for Active; 'I' for Inactive)
REMARK    1  A    between atoms: O_1  and  C_2
REMARK    2  A    between atoms: C_5  and  C_6
REMARK    3  A    between atoms: C_11  and  C_12
REMARK    4  A    between atoms: C_15  and  C_16
REMARK    5  A    between atoms: C_26  and  C_27
REMARK                            x       y       z     vdW  Elec       q    Type
REMARK                         _______ _______ _______ _____ _____    ______ ____
ROOT
ATOM      1  C   UNL     1      -2.435  13.075  21.613  0.00  0.00    +0.000 C 
ATOM      2  N   UNL     1      -1.858  12.008  22.070  0.00  0.00    +0.000 NA
ATOM      3  N   UNL     1      -1.219  11.402  21.019  0.00  0.00    +0.000 N 
ATOM      4  C   UNL     1      -0.414  10.304  21.116  0.00  0.00    +0.000 A 
ATOM      5  N   UNL     1       0.323   9.806  20.139  0.00  0.00    +0.000 NA
ATOM      6  C   UNL     1       0.999   8.669  20.555  0.00  0.00    +0.000 A 
ATOM      7  C   UNL     1       0.761   8.304  21.865  0.00  0.00    +0.000 A 
ATOM      8  S   UNL     1      -0.290   9.421  22.606  0.00  0.00    +0.000 S 
ATOM      9  C   UNL     1      -1.351  12.143  19.765  0.00  0.00    +0.000 C 
ATOM     10  C   UNL     1      -2.242  13.332  20.146  0.00  0.00    +0.000 C 
ENDROOT
BRANCH   1  14
ATOM     11  C   UNL     1      -4.699  15.728  24.074  0.00  0.00    +0.000 A 
ATOM     12  C   UNL     1      -3.643  16.221  23.317  0.00  0.00    +0.000 A 
ATOM     13  C   UNL     1      -2.907  15.344  22.514  0.00  0.00    +0.000 A 
ATOM     14  C   UNL     1      -3.233  13.982  22.472  0.00  0.00    +0.000 A 
ATOM     15  C   UNL     1      -4.301  13.498  23.241  0.00  0.00    +0.000 A 
ATOM     16  C   UNL     1      -5.029  14.379  24.042  0.00  0.00    +0.000 A 
BRANCH  11  17
ATOM     17  O   UNL     1      -5.445  16.537  24.872  0.00  0.00    +0.000 OA
ATOM     18  H   UNL     1      -4.892  17.284  25.162  0.00  0.00    +0.000 HD
ENDBRANCH  11  17
ENDBRANCH   1  14
BRANCH   6  19
ATOM     19  C   UNL     1       1.902   7.941  19.671  0.00  0.00    +0.000 A 
ATOM     20  C   UNL     1       2.435   6.708  20.059  0.00  0.00    +0.000 A 
ATOM     21  C   UNL     1       3.323   6.018  19.227  0.00  0.00    +0.000 A 
ATOM     22  C   UNL     1       3.703   6.521  17.971  0.00  0.00    +0.000 A 
ATOM     23  C   UNL     1       3.156   7.761  17.591  0.00  0.00    +0.000 A 
ATOM     24  C   UNL     1       2.275   8.465  18.430  0.00  0.00    +0.000 A 
BRANCH  22  25
ATOM     25  C   UNL     1       4.645   5.762  17.113  0.00  0.00    +0.000 A 
ATOM     26  C   UNL     1       4.336   4.460  16.669  0.00  0.00    +0.000 A 
ATOM     27  C   UNL     1       5.234   3.711  15.903  0.00  0.00    +0.000 A 
ATOM     28  C   UNL     1       6.460   4.256  15.542  0.00  0.00    +0.000 A 
ATOM     29  C   UNL     1       6.787   5.546  15.950  0.00  0.00    +0.000 A 
ATOM     30  C   UNL     1       5.891   6.287  16.730  0.00  0.00    +0.000 A 
ENDBRANCH  22  25
ENDBRANCH   6  19
BRANCH   9  31
ATOM     31  C   UNL     1      -1.963  11.305  18.654  0.00  0.00    +0.000 A 
ATOM     32  C   UNL     1      -1.169  10.497  17.825  0.00  0.00    +0.000 A 
ATOM     33  C   UNL     1      -1.743   9.769  16.782  0.00  0.00    +0.000 A 
ATOM     34  C   UNL     1      -3.115   9.844  16.553  0.00  0.00    +0.000 A 
ATOM     35  C   UNL     1      -3.917  10.640  17.367  0.00  0.00    +0.000 A 
ATOM     36  C   UNL     1      -3.346  11.365  18.415  0.00  0.00    +0.000 A 
ENDBRANCH   9  31
TORSDOF 5
ENDMDL
MODEL 7
REMARK VINA RESULT:      -9.0      0.990      1.727
REMARK  Name = 
REMARK  5 active torsions:
REMARK  status: ('A' for Active; 'I' for Inactive)
REMARK    1  A    between atoms: O_1  and  C_2
REMARK    2  A    between atoms: C_5  and  C_6
REMARK    3  A    between atoms: C_11  and  C_12
REMARK    4  A    between atoms: C_15  and  C_16
REMARK    5  A    between atoms: C_26  and  C_27
REMARK                            x       y       z     vdW  Elec       q    Type
REMARK                         _______ _______ _______ _____ _____    ______ ____
ROOT
ATOM      1  C   UNL     1      -2.573  14.304  21.936  0.00  0.00    +0.000 C 
ATOM      2  N   UNL     1      -2.114  13.203  22.444  0.00  0.00    +0.000 NA
ATOM      3  N   UNL     1      -1.536  12.490  21.426  0.00  0.00    +0.000 N 
ATOM      4  C   UNL     1      -0.851  11.319  21.578  0.00  0.00    +0.000 A 
ATOM      5  N   UNL     1      -0.164  10.704  20.631  0.00  0.00    +0.000 NA
ATOM      6  C   UNL     1       0.386   9.522  21.101  0.00  0.00    +0.000 A 
ATOM      7  C   UNL     1       0.104   9.241  22.422  0.00  0.00    +0.000 A 
ATOM      8  S   UNL     1      -0.829  10.492  23.105  0.00  0.00    +0.000 S 
ATOM      9  C   UNL     1      -1.582  13.185  20.141  0.00  0.00    +0.000 C 
ATOM     10  C   UNL     1      -2.345  14.476  20.462  0.00  0.00    +0.000 C 
ENDROOT
BRANCH   1  14
ATOM     11  C   UNL     1      -4.644  17.237  24.244  0.00  0.00    +0.000 A 
ATOM     12  C   UNL     1      -5.339  16.476  23.313  0.00  0.00    +0.000 A 
ATOM     13  C   UNL     1      -4.652  15.518  22.561  0.00  0.00    +0.000 A 
ATOM     14  C   UNL     1      -3.276  15.325  22.747  0.00  0.00    +0.000 A 
ATOM     15  C   UNL     1      -2.588  16.101  23.691  0.00  0.00    +0.000 A 
ATOM     16  C   UNL     1      -3.279  17.057  24.436  0.00  0.00    +0.000 A 
BRANCH  11  17
ATOM     17  O   UNL     1      -5.264  18.183  25.000  0.00  0.00    +0.000 OA
ATOM     18  H   UNL     1      -5.426  18.966  24.445  0.00  0.00    +0.000 HD
ENDBRANCH  11  17
ENDBRANCH   1  14
BRANCH   6  19
ATOM     19  C   UNL     1       1.214   8.666  20.258  0.00  0.00    +0.000 A 
ATOM     20  C   UNL     1       1.569   9.070  18.968  0.00  0.00    +0.000 A 
ATOM     21  C   UNL     1       2.339   8.241  18.145  0.00  0.00    +0.000 A 
ATOM     22  C   UNL     1       2.798   6.986  18.580  0.00  0.00    +0.000 A 
ATOM     23  C   UNL     1       2.436   6.593  19.882  0.00  0.00    +0.000 A 
ATOM     24  C   UNL     1       1.650   7.416  20.708  0.00  0.00    +0.000 A 
BRANCH  22  25
ATOM     25  C   UNL     1       3.615   6.134  17.682  0.00  0.00    +0.000 A 
ATOM     26  C   UNL     1       4.657   6.682  16.909  0.00  0.00    +0.000 A 
ATOM     27  C   UNL     1       5.403   5.903  16.019  0.00  0.00    +0.000 A 
ATOM     28  C   UNL     1       5.138   4.545  15.897  0.00  0.00    +0.000 A 
ATOM     29  C   UNL     1       4.126   3.970  16.660  0.00  0.00    +0.000 A 
ATOM     30  C   UNL     1       3.372   4.756  17.539  0.00  0.00    +0.000 A 
ENDBRANCH  22  25
ENDBRANCH   6  19
BRANCH   9  31
ATOM     31  C   UNL     1      -2.271  12.369  19.060  0.00  0.00    +0.000 A 
ATOM     32  C   UNL     1      -3.577  11.883  19.231  0.00  0.00    +0.000 A 
ATOM     33  C   UNL     1      -4.178  11.098  18.246  0.00  0.00    +0.000 A 
ATOM     34  C   UNL     1      -3.479  10.784  17.083  0.00  0.00    +0.000 A 
ATOM     35  C   UNL     1      -2.183  11.258  16.898  0.00  0.00    +0.000 A 
ATOM     36  C   UNL     1      -1.582  12.049  17.879  0.00  0.00    +0.000 A 
ENDBRANCH   9  31
TORSDOF 5
ENDMDL
MODEL 8
REMARK VINA RESULT:      -8.8      0.772      1.147
REMARK  Name = 
REMARK  5 active torsions:
REMARK  status: ('A' for Active; 'I' for Inactive)
REMARK    1  A    between atoms: O_1  and  C_2
REMARK    2  A    between atoms: C_5  and  C_6
REMARK    3  A    between atoms: C_11  and  C_12
REMARK    4  A    between atoms: C_15  and  C_16
REMARK    5  A    between atoms: C_26  and  C_27
REMARK                            x       y       z     vdW  Elec       q    Type
REMARK                         _______ _______ _______ _____ _____    ______ ____
ROOT
ATOM      1  C   UNL     1      -2.195  13.099  21.504  0.00  0.00    +0.000 C 
ATOM      2  N   UNL     1      -1.621  12.022  21.941  0.00  0.00    +0.000 NA
ATOM      3  N   UNL     1      -1.032  11.405  20.868  0.00  0.00    +0.000 N 
ATOM      4  C   UNL     1      -0.243  10.293  20.937  0.00  0.00    +0.000 A 
ATOM      5  N   UNL     1       0.449   9.781  19.934  0.00  0.00    +0.000 NA
ATOM      6  C   UNL     1       1.119   8.633  20.326  0.00  0.00    +0.000 A 
ATOM      7  C   UNL     1       0.922   8.272  21.644  0.00  0.00    +0.000 A 
ATOM      8  S   UNL     1      -0.082   9.407  22.421  0.00  0.00    +0.000 S 
ATOM      9  C   UNL     1      -1.196  12.148  19.619  0.00  0.00    +0.000 C 
ATOM     10  C   UNL     1      -2.051  13.352  20.031  0.00  0.00    +0.000 C 
ENDROOT
BRANCH   1  14
ATOM     11  C   UNL     1      -4.377  15.710  24.082  0.00  0.00    +0.000 A 
ATOM     12  C   UNL     1      -4.421  14.338  24.293  0.00  0.00    +0.000 A 
ATOM     13  C   UNL     1      -3.704  13.490  23.443  0.00  0.00    +0.000 A 
ATOM     14  C   UNL     1      -2.945  14.020  22.390  0.00  0.00    +0.000 A 
ATOM     15  C   UNL     1      -2.908  15.408  22.190  0.00  0.00    +0.000 A 
ATOM     16  C   UNL     1      -3.629  16.247  23.041  0.00  0.00    +0.000 A 
BRANCH  11  17
ATOM     17  O   UNL     1      -5.057  16.578  24.878  0.00  0.00    +0.000 OA
ATOM     18  H   UNL     1      -5.593  17.162  24.313  0.00  0.00    +0.000 HD
ENDBRANCH  11  17
ENDBRANCH   1  14
BRANCH   6  19
ATOM     19  C   UNL     1       1.976   7.888  19.411  0.00  0.00    +0.000 A 
ATOM     20  C   UNL     1       2.382   6.586  19.718  0.00  0.00    +0.000 A 
ATOM     21  C   UNL     1       3.226   5.877  18.857  0.00  0.00    +0.000 A 
ATOM     22  C   UNL     1       3.687   6.431  17.650  0.00  0.00    +0.000 A 
ATOM     23  C   UNL     1       3.268   7.740  17.351  0.00  0.00    +0.000 A 
ATOM     24  C   UNL     1       2.431   8.462  18.220  0.00  0.00    +0.000 A 
BRANCH  22  25
ATOM     25  C   UNL     1       4.579   5.650  16.759  0.00  0.00    +0.000 A 
ATOM     26  C   UNL     1       4.781   4.270  16.960  0.00  0.00    +0.000 A 
ATOM     27  C   UNL     1       5.658   3.530  16.162  0.00  0.00    +0.000 A 
ATOM     28  C   UNL     1       6.342   4.150  15.124  0.00  0.00    +0.000 A 
ATOM     29  C   UNL     1       6.151   5.509  14.889  0.00  0.00    +0.000 A 
ATOM     30  C   UNL     1       5.284   6.250  15.700  0.00  0.00    +0.000 A 
ENDBRANCH  22  25
ENDBRANCH   6  19
BRANCH   9  31
ATOM     31  C   UNL     1      -1.862  11.321  18.532  0.00  0.00    +0.000 A 
ATOM     32  C   UNL     1      -1.646  11.590  17.171  0.00  0.00    +0.000 A 
ATOM     33  C   UNL     1      -2.301  10.848  16.187  0.00  0.00    +0.000 A 
ATOM     34  C   UNL     1      -3.184   9.835  16.551  0.00  0.00    +0.000 A 
ATOM     35  C   UNL     1      -3.409   9.554  17.897  0.00  0.00    +0.000 A 
ATOM     36  C   UNL     1      -2.750  10.290  18.883  0.00  0.00    +0.000 A 
ENDBRANCH   9  31
TORSDOF 5
ENDMDL
MODEL 9
REMARK VINA RESULT:      -8.7      3.655     10.935
REMARK  Name = 
REMARK  5 active torsions:
REMARK  status: ('A' for Active; 'I' for Inactive)
REMARK    1  A    between atoms: O_1  and  C_2
REMARK    2  A    between atoms: C_5  and  C_6
REMARK    3  A    between atoms: C_11  and  C_12
REMARK    4  A    between atoms: C_15  and  C_16
REMARK    5  A    between atoms: C_26  and  C_27
REMARK                            x       y       z     vdW  Elec       q    Type
REMARK                         _______ _______ _______ _____ _____    ______ ____
ROOT
ATOM      1  C   UNL     1       1.953   8.195  18.696  0.00  0.00    +0.000 C 
ATOM      2  N   UNL     1       1.558   8.381  19.917  0.00  0.00    +0.000 NA
ATOM      3  N   UNL     1       0.786   9.514  19.933  0.00  0.00    +0.000 N 
ATOM      4  C   UNL     1       0.103   9.984  21.017  0.00  0.00    +0.000 A 
ATOM      5  N   UNL     1      -0.760  10.985  21.004  0.00  0.00    +0.000 NA
ATOM      6  C   UNL     1      -1.253  11.233  22.276  0.00  0.00    +0.000 A 
ATOM      7  C   UNL     1      -0.749  10.409  23.261  0.00  0.00    +0.000 A 
ATOM      8  S   UNL     1       0.328   9.275  22.586  0.00  0.00    +0.000 S 
ATOM      9  C   UNL     1       0.624  10.115  18.610  0.00  0.00    +0.000 C 
ATOM     10  C   UNL     1       1.472   9.214  17.703  0.00  0.00    +0.000 C 
ENDROOT
BRANCH   1  14
ATOM     11  C   UNL     1       4.423   4.894  17.590  0.00  0.00    +0.000 A 
ATOM     12  C   UNL     1       3.319   4.686  18.407  0.00  0.00    +0.000 A 
ATOM     13  C   UNL     1       2.516   5.774  18.765  0.00  0.00    +0.000 A 
ATOM     14  C   UNL     1       2.820   7.061  18.301  0.00  0.00    +0.000 A 
ATOM     15  C   UNL     1       3.937   7.256  17.476  0.00  0.00    +0.000 A 
ATOM     16  C   UNL     1       4.736   6.166  17.126  0.00  0.00    +0.000 A 
BRANCH  11  17
ATOM     17  O   UNL     1       5.237   3.872  17.214  0.00  0.00    +0.000 OA
ATOM     18  H   UNL     1       4.713   3.231  16.702  0.00  0.00    +0.000 HD
ENDBRANCH  11  17
ENDBRANCH   1  14
BRANCH   6  19
ATOM     19  C   UNL     1      -2.243  12.274  22.530  0.00  0.00    +0.000 A 
ATOM     20  C   UNL     1      -2.334  13.389  21.691  0.00  0.00    +0.000 A 
ATOM     21  C   UNL     1      -3.262  14.403  21.945  0.00  0.00    +0.000 A 
ATOM     22  C   UNL     1      -4.147  14.340  23.036  0.00  0.00    +0.000 A 
ATOM     23  C   UNL     1      -4.048  13.211  23.870  0.00  0.00    +0.000 A 
ATOM     24  C   UNL     1      -3.106  12.196  23.627  0.00  0.00    +0.000 A 
BRANCH  22  25
ATOM     25  C   UNL     1      -5.121  15.432  23.275  0.00  0.00    +0.000 A 
ATOM     26  C   UNL     1      -6.323  15.509  22.541  0.00  0.00    +0.000 A 
ATOM     27  C   UNL     1      -7.227  16.560  22.718  0.00  0.00    +0.000 A 
ATOM     28  C   UNL     1      -6.962  17.554  23.652  0.00  0.00    +0.000 A 
ATOM     29  C   UNL     1      -5.792  17.497  24.404  0.00  0.00    +0.000 A 
ATOM     30  C   UNL     1      -4.882  16.451  24.214  0.00  0.00    +0.000 A 
ENDBRANCH  22  25
ENDBRANCH   6  19
BRANCH   9  31
ATOM     31  C   UNL     1       1.085  11.563  18.567  0.00  0.00    +0.000 A 
ATOM     32  C   UNL     1       0.177  12.625  18.698  0.00  0.00    +0.000 A 
ATOM     33  C   UNL     1       0.612  13.948  18.612  0.00  0.00    +0.000 A 
ATOM     34  C   UNL     1       1.959  14.224  18.388  0.00  0.00    +0.000 A 
ATOM     35  C   UNL     1       2.873  13.182  18.256  0.00  0.00    +0.000 A 
ATOM     36  C   UNL     1       2.441  11.858  18.348  0.00  0.00    +0.000 A 
ENDBRANCH   9  31
TORSDOF 5
ENDMDL
