MODEL 1
REMARK VINA RESULT:      -8.8      0.000      0.000
REMARK  Name = 
REMARK  5 active torsions:
REMARK  status: ('A' for Active; 'I' for Inactive)
REMARK    1  A    between atoms: C_2  and  C_15
REMARK    2  A    between atoms: N_3  and  N_4
REMARK    3  A    between atoms: N_4  and  C_5
REMARK    4  A    between atoms: C_5  and  N_7
REMARK    5  A    between atoms: N_7  and  C_8
REMARK                            x       y       z     vdW  Elec       q    Type
REMARK                         _______ _______ _______ _____ _____    ______ ____
ROOT
ATOM      1  O   UNL     1       3.992   5.258  16.694  0.00  0.00    +0.000 OA
ATOM      2  C   UNL     1       4.226   6.051  17.608  0.00  0.00    +0.000 C 
ATOM      3  N   UNL     1       5.332   6.863  17.597  0.00  0.00    +0.000 N 
ATOM      4  H   UNL     1       5.423   7.686  18.188  0.00  0.00    +0.000 HD
ENDROOT
BRANCH   2   5
ATOM      5  C   UNL     1       3.363   6.100  18.842  0.00  0.00    +0.000 A 
ATOM      6  C   UNL     1       2.808   7.312  19.060  0.00  0.00    +0.000 A 
ATOM      7  C   UNL     1       1.840   7.512  20.159  0.00  0.00    +0.000 A 
ATOM      8  O   UNL     1       1.319   8.599  20.368  0.00  0.00    +0.000 OA
ATOM      9  N   UNL     1       1.542   6.403  20.904  0.00  0.00    +0.000 N 
ATOM     10  C   UNL     1       2.115   5.178  20.715  0.00  0.00    +0.000 A 
ATOM     11  N   UNL     1       1.734   4.177  21.556  0.00  0.00    +0.000 N 
ATOM     12  C   UNL     1       2.182   2.893  21.462  0.00  0.00    +0.000 A 
ATOM     13  O   UNL     1       1.835   2.026  22.248  0.00  0.00    +0.000 OA
ATOM     14  N   UNL     1       3.061   2.658  20.452  0.00  0.00    +0.000 N 
ATOM     15  C   UNL     1       3.645   3.635  19.707  0.00  0.00    +0.000 A 
ATOM     16  O   UNL     1       4.647   3.382  19.046  0.00  0.00    +0.000 OA
ATOM     17  C   UNL     1       3.024   4.991  19.737  0.00  0.00    +0.000 A 
ATOM     18  H   UNL     1       0.867   6.552  21.644  0.00  0.00    +0.000 HD
ATOM     19  H   UNL     1       1.069   4.347  22.299  0.00  0.00    +0.000 HD
ATOM     20  H   UNL     1       3.483   1.739  20.416  0.00  0.00    +0.000 HD
ENDBRANCH   2   5
BRANCH   3  21
ATOM     21  N   UNL     1       6.225   6.821  16.534  0.00  0.00    +0.000 N 
ATOM     22  H   UNL     1       6.051   7.469  15.768  0.00  0.00    +0.000 HD
BRANCH  21  23
ATOM     23  C   UNL     1       7.089   5.755  16.394  0.00  0.00    +0.000 C 
ATOM     24  S   UNL     1       7.605   4.772  17.646  0.00  0.00    +0.000 S 
BRANCH  23  25
ATOM     25  N   UNL     1       7.581   5.564  15.127  0.00  0.00    +0.000 N 
ATOM     26  H   UNL     1       8.520   5.907  14.956  0.00  0.00    +0.000 HD
BRANCH  25  27
ATOM     27  C   UNL     1       6.982   4.775  14.128  0.00  0.00    +0.000 A 
ATOM     28  C   UNL     1       7.602   4.677  12.884  0.00  0.00    +0.000 A 
ATOM     29  C   UNL     1       6.974   3.968  11.858  0.00  0.00    +0.000 A 
ATOM     30  C   UNL     1       5.763   3.324  12.098  0.00  0.00    +0.000 A 
ATOM     31  F   UNL     1       5.158   2.660  11.105  0.00  0.00    +0.000 F 
ATOM     32  C   UNL     1       5.173   3.358  13.351  0.00  0.00    +0.000 A 
ATOM     33  C   UNL     1       5.787   4.078  14.368  0.00  0.00    +0.000 A 
ENDBRANCH  25  27
ENDBRANCH  23  25
ENDBRANCH  21  23
ENDBRANCH   3  21
TORSDOF 5
ENDMDL
MODEL 2
REMARK VINA RESULT:      -8.7      1.340      3.505
REMARK  Name = 
REMARK  5 active torsions:
REMARK  status: ('A' for Active; 'I' for Inactive)
REMARK    1  A    between atoms: C_2  and  C_15
REMARK    2  A    between atoms: N_3  and  N_4
REMARK    3  A    between atoms: N_4  and  C_5
REMARK    4  A    between atoms: C_5  and  N_7
REMARK    5  A    between atoms: N_7  and  C_8
REMARK                            x       y       z     vdW  Elec       q    Type
REMARK                         _______ _______ _______ _____ _____    ______ ____
ROOT
ATOM      1  O   UNL     1       3.939   5.145  16.784  0.00  0.00    +0.000 OA
ATOM      2  C   UNL     1       4.056   6.056  17.606  0.00  0.00    +0.000 C 
ATOM      3  N   UNL     1       5.085   6.961  17.544  0.00  0.00    +0.000 N 
ATOM      4  H   UNL     1       5.073   7.851  18.036  0.00  0.00    +0.000 HD
ENDROOT
BRANCH   2   5
ATOM      5  C   UNL     1       3.130   6.165  18.789  0.00  0.00    +0.000 A 
ATOM      6  C   UNL     1       3.125   5.063  19.570  0.00  0.00    +0.000 A 
ATOM      7  C   UNL     1       2.365   5.039  20.837  0.00  0.00    +0.000 A 
ATOM      8  O   UNL     1       2.355   4.053  21.563  0.00  0.00    +0.000 OA
ATOM      9  N   UNL     1       1.701   6.191  21.160  0.00  0.00    +0.000 N 
ATOM     10  C   UNL     1       1.672   7.304  20.369  0.00  0.00    +0.000 A 
ATOM     11  N   UNL     1       0.945   8.365  20.816  0.00  0.00    +0.000 N 
ATOM     12  C   UNL     1       0.859   9.558  20.161  0.00  0.00    +0.000 A 
ATOM     13  O   UNL     1       0.179  10.481  20.580  0.00  0.00    +0.000 OA
ATOM     14  N   UNL     1       1.559   9.632  18.998  0.00  0.00    +0.000 N 
ATOM     15  C   UNL     1       2.135   8.563  18.384  0.00  0.00    +0.000 A 
ATOM     16  O   UNL     1       2.465   8.641  17.206  0.00  0.00    +0.000 OA
ATOM     17  C   UNL     1       2.335   7.327  19.195  0.00  0.00    +0.000 A 
ATOM     18  H   UNL     1       1.197   6.164  22.037  0.00  0.00    +0.000 HD
ATOM     19  H   UNL     1       0.435   8.316  21.687  0.00  0.00    +0.000 HD
ATOM     20  H   UNL     1       1.438  10.470  18.443  0.00  0.00    +0.000 HD
ENDBRANCH   2   5
BRANCH   3  21
ATOM     21  N   UNL     1       6.031   6.881  16.531  0.00  0.00    +0.000 N 
ATOM     22  H   UNL     1       5.847   7.429  15.692  0.00  0.00    +0.000 HD
BRANCH  21  23
ATOM     23  C   UNL     1       6.981   5.881  16.544  0.00  0.00    +0.000 C 
ATOM     24  S   UNL     1       7.461   5.035  17.905  0.00  0.00    +0.000 S 
BRANCH  23  25
ATOM     25  N   UNL     1       7.591   5.638  15.338  0.00  0.00    +0.000 N 
ATOM     26  H   UNL     1       8.571   5.893  15.274  0.00  0.00    +0.000 HD
BRANCH  25  27
ATOM     27  C   UNL     1       7.037   4.902  14.275  0.00  0.00    +0.000 A 
ATOM     28  C   UNL     1       5.845   4.210  14.483  0.00  0.00    +0.000 A 
ATOM     29  C   UNL     1       5.330   3.406  13.464  0.00  0.00    +0.000 A 
ATOM     30  C   UNL     1       5.980   3.343  12.233  0.00  0.00    +0.000 A 
ATOM     31  F   UNL     1       5.490   2.558  11.266  0.00  0.00    +0.000 F 
ATOM     32  C   UNL     1       7.127   4.082  11.994  0.00  0.00    +0.000 A 
ATOM     33  C   UNL     1       7.651   4.867  13.014  0.00  0.00    +0.000 A 
ENDBRANCH  25  27
ENDBRANCH  23  25
ENDBRANCH  21  23
ENDBRANCH   3  21
TORSDOF 5
ENDMDL
MODEL 3
REMARK VINA RESULT:      -8.6      3.326      7.231
REMARK  Name = 
REMARK  5 active torsions:
REMARK  status: ('A' for Active; 'I' for Inactive)
REMARK    1  A    between atoms: C_2  and  C_15
REMARK    2  A    between atoms: N_3  and  N_4
REMARK    3  A    between atoms: N_4  and  C_5
REMARK    4  A    between atoms: C_5  and  N_7
REMARK    5  A    between atoms: N_7  and  C_8
REMARK                            x       y       z     vdW  Elec       q    Type
REMARK                         _______ _______ _______ _____ _____    ______ ____
ROOT
ATOM      1  O   UNL     1       2.856   3.461  16.539  0.00  0.00    +0.000 OA
ATOM      2  C   UNL     1       3.989   3.334  17.008  0.00  0.00    +0.000 C 
ATOM      3  N   UNL     1       4.216   2.658  18.180  0.00  0.00    +0.000 N 
ATOM      4  H   UNL     1       5.135   2.322  18.458  0.00  0.00    +0.000 HD
ENDROOT
BRANCH   2   5
ATOM      5  C   UNL     1       5.179   4.005  16.372  0.00  0.00    +0.000 A 
ATOM      6  C   UNL     1       5.391   3.621  15.094  0.00  0.00    +0.000 A 
ATOM      7  C   UNL     1       6.443   4.264  14.279  0.00  0.00    +0.000 A 
ATOM      8  O   UNL     1       6.645   3.937  13.117  0.00  0.00    +0.000 OA
ATOM      9  N   UNL     1       7.152   5.261  14.892  0.00  0.00    +0.000 N 
ATOM     10  C   UNL     1       6.970   5.641  16.191  0.00  0.00    +0.000 A 
ATOM     11  N   UNL     1       7.772   6.633  16.666  0.00  0.00    +0.000 N 
ATOM     12  C   UNL     1       7.677   7.150  17.924  0.00  0.00    +0.000 A 
ATOM     13  O   UNL     1       8.428   8.025  18.325  0.00  0.00    +0.000 OA
ATOM     14  N   UNL     1       6.708   6.603  18.705  0.00  0.00    +0.000 N 
ATOM     15  C   UNL     1       6.011   5.480  18.381  0.00  0.00    +0.000 A 
ATOM     16  O   UNL     1       5.397   4.871  19.250  0.00  0.00    +0.000 OA
ATOM     17  C   UNL     1       6.035   5.041  16.955  0.00  0.00    +0.000 A 
ATOM     18  H   UNL     1       7.859   5.700  14.316  0.00  0.00    +0.000 HD
ATOM     19  H   UNL     1       8.483   7.052  16.083  0.00  0.00    +0.000 HD
ATOM     20  H   UNL     1       6.677   6.899  19.672  0.00  0.00    +0.000 HD
ENDBRANCH   2   5
BRANCH   3  21
ATOM     21  N   UNL     1       3.161   2.081  18.874  0.00  0.00    +0.000 N 
ATOM     22  H   UNL     1       2.761   1.235  18.471  0.00  0.00    +0.000 HD
BRANCH  21  23
ATOM     23  C   UNL     1       2.508   2.788  19.861  0.00  0.00    +0.000 C 
ATOM     24  S   UNL     1       2.693   2.531  21.504  0.00  0.00    +0.000 S 
BRANCH  23  25
ATOM     25  N   UNL     1       1.605   3.720  19.413  0.00  0.00    +0.000 N 
ATOM     26  H   UNL     1       0.705   3.363  19.112  0.00  0.00    +0.000 HD
BRANCH  25  27
ATOM     27  C   UNL     1       1.751   5.116  19.518  0.00  0.00    +0.000 A 
ATOM     28  C   UNL     1       1.406   5.741  20.714  0.00  0.00    +0.000 A 
ATOM     29  C   UNL     1       1.465   7.134  20.803  0.00  0.00    +0.000 A 
ATOM     30  C   UNL     1       1.914   7.881  19.717  0.00  0.00    +0.000 A 
ATOM     31  F   UNL     1       1.951   9.217  19.803  0.00  0.00    +0.000 F 
ATOM     32  C   UNL     1       2.325   7.263  18.547  0.00  0.00    +0.000 A 
ATOM     33  C   UNL     1       2.249   5.880  18.451  0.00  0.00    +0.000 A 
ENDBRANCH  25  27
ENDBRANCH  23  25
ENDBRANCH  21  23
ENDBRANCH   3  21
TORSDOF 5
ENDMDL
MODEL 4
REMARK VINA RESULT:      -8.5      1.170      3.078
REMARK  Name = 
REMARK  5 active torsions:
REMARK  status: ('A' for Active; 'I' for Inactive)
REMARK    1  A    between atoms: C_2  and  C_15
REMARK    2  A    between atoms: N_3  and  N_4
REMARK    3  A    between atoms: N_4  and  C_5
REMARK    4  A    between atoms: C_5  and  N_7
REMARK    5  A    between atoms: N_7  and  C_8
REMARK                            x       y       z     vdW  Elec       q    Type
REMARK                         _______ _______ _______ _____ _____    ______ ____
ROOT
ATOM      1  O   UNL     1       4.400   3.022  17.343  0.00  0.00    +0.000 OA
ATOM      2  C   UNL     1       4.548   3.899  18.195  0.00  0.00    +0.000 C 
ATOM      3  N   UNL     1       5.680   4.673  18.249  0.00  0.00    +0.000 N 
ATOM      4  H   UNL     1       5.728   5.551  18.762  0.00  0.00    +0.000 HD
ENDROOT
BRANCH   2   5
ATOM      5  C   UNL     1       3.537   4.102  19.293  0.00  0.00    +0.000 A 
ATOM      6  C   UNL     1       3.343   3.003  20.054  0.00  0.00    +0.000 A 
ATOM      7  C   UNL     1       2.474   3.055  21.248  0.00  0.00    +0.000 A 
ATOM      8  O   UNL     1       2.292   2.073  21.955  0.00  0.00    +0.000 OA
ATOM      9  N   UNL     1       1.912   4.271  21.528  0.00  0.00    +0.000 N 
ATOM     10  C   UNL     1       2.074   5.384  20.754  0.00  0.00    +0.000 A 
ATOM     11  N   UNL     1       1.429   6.516  21.150  0.00  0.00    +0.000 N 
ATOM     12  C   UNL     1       1.532   7.714  20.509  0.00  0.00    +0.000 A 
ATOM     13  O   UNL     1       0.921   8.704  20.879  0.00  0.00    +0.000 OA
ATOM     14  N   UNL     1       2.338   7.719  19.414  0.00  0.00    +0.000 N 
ATOM     15  C   UNL     1       2.848   6.597  18.837  0.00  0.00    +0.000 A 
ATOM     16  O   UNL     1       3.289   6.644  17.695  0.00  0.00    +0.000 OA
ATOM     17  C   UNL     1       2.839   5.342  19.644  0.00  0.00    +0.000 A 
ATOM     18  H   UNL     1       1.331   4.294  22.356  0.00  0.00    +0.000 HD
ATOM     19  H   UNL     1       0.840   6.518  21.972  0.00  0.00    +0.000 HD
ATOM     20  H   UNL     1       2.358   8.568  18.863  0.00  0.00    +0.000 HD
ENDBRANCH   2   5
BRANCH   3  21
ATOM     21  N   UNL     1       6.699   4.494  17.324  0.00  0.00    +0.000 N 
ATOM     22  H   UNL     1       7.220   3.621  17.385  0.00  0.00    +0.000 HD
BRANCH  21  23
ATOM     23  C   UNL     1       7.168   5.563  16.589  0.00  0.00    +0.000 C 
ATOM     24  S   UNL     1       7.113   7.160  17.083  0.00  0.00    +0.000 S 
BRANCH  23  25
ATOM     25  N   UNL     1       7.653   5.249  15.344  0.00  0.00    +0.000 N 
ATOM     26  H   UNL     1       8.655   5.342  15.218  0.00  0.00    +0.000 HD
BRANCH  25  27
ATOM     27  C   UNL     1       6.919   4.636  14.312  0.00  0.00    +0.000 A 
ATOM     28  C   UNL     1       7.520   4.466  13.066  0.00  0.00    +0.000 A 
ATOM     29  C   UNL     1       6.775   3.938  12.009  0.00  0.00    +0.000 A 
ATOM     30  C   UNL     1       5.458   3.538  12.220  0.00  0.00    +0.000 A 
ATOM     31  F   UNL     1       4.743   3.049  11.199  0.00  0.00    +0.000 F 
ATOM     32  C   UNL     1       4.873   3.640  13.472  0.00  0.00    +0.000 A 
ATOM     33  C   UNL     1       5.607   4.182  14.519  0.00  0.00    +0.000 A 
ENDBRANCH  25  27
ENDBRANCH  23  25
ENDBRANCH  21  23
ENDBRANCH   3  21
TORSDOF 5
ENDMDL
MODEL 5
REMARK VINA RESULT:      -8.5      3.392      7.453
REMARK  Name = 
REMARK  5 active torsions:
REMARK  status: ('A' for Active; 'I' for Inactive)
REMARK    1  A    between atoms: C_2  and  C_15
REMARK    2  A    between atoms: N_3  and  N_4
REMARK    3  A    between atoms: N_4  and  C_5
REMARK    4  A    between atoms: C_5  and  N_7
REMARK    5  A    between atoms: N_7  and  C_8
REMARK                            x       y       z     vdW  Elec       q    Type
REMARK                         _______ _______ _______ _____ _____    ______ ____
ROOT
ATOM      1  O   UNL     1       5.389   3.473  19.415  0.00  0.00    +0.000 OA
ATOM      2  C   UNL     1       5.228   4.670  19.173  0.00  0.00    +0.000 C 
ATOM      3  N   UNL     1       4.253   5.410  19.794  0.00  0.00    +0.000 N 
ATOM      4  H   UNL     1       4.254   6.427  19.811  0.00  0.00    +0.000 HD
ENDROOT
BRANCH   2   5
ATOM      5  C   UNL     1       6.027   5.367  18.103  0.00  0.00    +0.000 A 
ATOM      6  C   UNL     1       6.728   6.427  18.562  0.00  0.00    +0.000 A 
ATOM      7  C   UNL     1       7.659   7.157  17.676  0.00  0.00    +0.000 A 
ATOM      8  O   UNL     1       8.309   8.114  18.074  0.00  0.00    +0.000 OA
ATOM      9  N   UNL     1       7.768   6.680  16.398  0.00  0.00    +0.000 N 
ATOM     10  C   UNL     1       7.046   5.628  15.910  0.00  0.00    +0.000 A 
ATOM     11  N   UNL     1       7.248   5.287  14.607  0.00  0.00    +0.000 N 
ATOM     12  C   UNL     1       6.638   4.234  13.994  0.00  0.00    +0.000 A 
ATOM     13  O   UNL     1       6.826   3.971  12.817  0.00  0.00    +0.000 OA
ATOM     14  N   UNL     1       5.786   3.521  14.777  0.00  0.00    +0.000 N 
ATOM     15  C   UNL     1       5.375   3.914  16.013  0.00  0.00    +0.000 A 
ATOM     16  O   UNL     1       4.383   3.402  16.518  0.00  0.00    +0.000 OA
ATOM     17  C   UNL     1       6.170   4.974  16.699  0.00  0.00    +0.000 A 
ATOM     18  H   UNL     1       8.420   7.181  15.807  0.00  0.00    +0.000 HD
ATOM     19  H   UNL     1       7.892   5.808  14.027  0.00  0.00    +0.000 HD
ATOM     20  H   UNL     1       5.247   2.793  14.324  0.00  0.00    +0.000 HD
ENDBRANCH   2   5
BRANCH   3  21
ATOM     21  N   UNL     1       3.416   4.822  20.734  0.00  0.00    +0.000 N 
ATOM     22  H   UNL     1       3.816   4.067  21.288  0.00  0.00    +0.000 HD
BRANCH  21  23
ATOM     23  C   UNL     1       2.056   5.041  20.687  0.00  0.00    +0.000 C 
ATOM     24  S   UNL     1       0.938   3.973  20.046  0.00  0.00    +0.000 S 
BRANCH  23  25
ATOM     25  N   UNL     1       1.642   6.262  21.159  0.00  0.00    +0.000 N 
ATOM     26  H   UNL     1       1.517   6.334  22.163  0.00  0.00    +0.000 HD
BRANCH  25  27
ATOM     27  C   UNL     1       1.569   7.447  20.405  0.00  0.00    +0.000 A 
ATOM     28  C   UNL     1       0.953   8.565  20.963  0.00  0.00    +0.000 A 
ATOM     29  C   UNL     1       0.797   9.720  20.194  0.00  0.00    +0.000 A 
ATOM     30  C   UNL     1       1.303   9.765  18.897  0.00  0.00    +0.000 A 
ATOM     31  F   UNL     1       1.135  10.869  18.159  0.00  0.00    +0.000 F 
ATOM     32  C   UNL     1       1.978   8.682  18.357  0.00  0.00    +0.000 A 
ATOM     33  C   UNL     1       2.117   7.526  19.114  0.00  0.00    +0.000 A 
ENDBRANCH  25  27
ENDBRANCH  23  25
ENDBRANCH  21  23
ENDBRANCH   3  21
TORSDOF 5
ENDMDL
MODEL 6
REMARK VINA RESULT:      -8.5      3.363      7.255
REMARK  Name = 
REMARK  5 active torsions:
REMARK  status: ('A' for Active; 'I' for Inactive)
REMARK    1  A    between atoms: C_2  and  C_15
REMARK    2  A    between atoms: N_3  and  N_4
REMARK    3  A    between atoms: N_4  and  C_5
REMARK    4  A    between atoms: C_5  and  N_7
REMARK    5  A    between atoms: N_7  and  C_8
REMARK                            x       y       z     vdW  Elec       q    Type
REMARK                         _______ _______ _______ _____ _____    ______ ____
ROOT
ATOM      1  O   UNL     1       2.954   3.563  16.684  0.00  0.00    +0.000 OA
ATOM      2  C   UNL     1       4.106   3.449  17.105  0.00  0.00    +0.000 C 
ATOM      3  N   UNL     1       4.389   2.791  18.276  0.00  0.00    +0.000 N 
ATOM      4  H   UNL     1       5.321   2.464  18.519  0.00  0.00    +0.000 HD
ENDROOT
BRANCH   2   5
ATOM      5  C   UNL     1       5.264   4.117  16.409  0.00  0.00    +0.000 A 
ATOM      6  C   UNL     1       5.451   3.683  15.144  0.00  0.00    +0.000 A 
ATOM      7  C   UNL     1       6.466   4.311  14.273  0.00  0.00    +0.000 A 
ATOM      8  O   UNL     1       6.645   3.939  13.121  0.00  0.00    +0.000 OA
ATOM      9  N   UNL     1       7.169   5.349  14.823  0.00  0.00    +0.000 N 
ATOM     10  C   UNL     1       7.012   5.781  16.109  0.00  0.00    +0.000 A 
ATOM     11  N   UNL     1       7.804   6.810  16.519  0.00  0.00    +0.000 N 
ATOM     12  C   UNL     1       7.731   7.380  17.756  0.00  0.00    +0.000 A 
ATOM     13  O   UNL     1       8.472   8.287  18.098  0.00  0.00    +0.000 OA
ATOM     14  N   UNL     1       6.796   6.846  18.585  0.00  0.00    +0.000 N 
ATOM     15  C   UNL     1       6.116   5.695  18.329  0.00  0.00    +0.000 A 
ATOM     16  O   UNL     1       5.539   5.111  19.240  0.00  0.00    +0.000 OA
ATOM     17  C   UNL     1       6.112   5.195  16.924  0.00  0.00    +0.000 A 
ATOM     18  H   UNL     1       7.850   5.778  14.210  0.00  0.00    +0.000 HD
ATOM     19  H   UNL     1       8.490   7.218  15.899  0.00  0.00    +0.000 HD
ATOM     20  H   UNL     1       6.783   7.183  19.540  0.00  0.00    +0.000 HD
ENDBRANCH   2   5
BRANCH   3  21
ATOM     21  N   UNL     1       3.368   2.218  19.024  0.00  0.00    +0.000 N 
ATOM     22  H   UNL     1       3.262   1.208  18.948  0.00  0.00    +0.000 HD
BRANCH  21  23
ATOM     23  C   UNL     1       2.380   3.008  19.572  0.00  0.00    +0.000 C 
ATOM     24  S   UNL     1       0.737   2.756  19.378  0.00  0.00    +0.000 S 
BRANCH  23  25
ATOM     25  N   UNL     1       2.826   4.102  20.271  0.00  0.00    +0.000 N 
ATOM     26  H   UNL     1       3.616   3.947  20.888  0.00  0.00    +0.000 HD
BRANCH  25  27
ATOM     27  C   UNL     1       2.413   5.430  20.060  0.00  0.00    +0.000 A 
ATOM     28  C   UNL     1       2.706   6.041  18.842  0.00  0.00    +0.000 A 
ATOM     29  C   UNL     1       2.378   7.386  18.652  0.00  0.00    +0.000 A 
ATOM     30  C   UNL     1       1.718   8.089  19.656  0.00  0.00    +0.000 A 
ATOM     31  F   UNL     1       1.423   9.383  19.475  0.00  0.00    +0.000 F 
ATOM     32  C   UNL     1       1.362   7.471  20.844  0.00  0.00    +0.000 A 
ATOM     33  C   UNL     1       1.704   6.139  21.042  0.00  0.00    +0.000 A 
ENDBRANCH  25  27
ENDBRANCH  23  25
ENDBRANCH  21  23
ENDBRANCH   3  21
TORSDOF 5
ENDMDL
MODEL 7
REMARK VINA RESULT:      -8.4      5.275      8.160
REMARK  Name = 
REMARK  5 active torsions:
REMARK  status: ('A' for Active; 'I' for Inactive)
REMARK    1  A    between atoms: C_2  and  C_15
REMARK    2  A    between atoms: N_3  and  N_4
REMARK    3  A    between atoms: N_4  and  C_5
REMARK    4  A    between atoms: C_5  and  N_7
REMARK    5  A    between atoms: N_7  and  C_8
REMARK                            x       y       z     vdW  Elec       q    Type
REMARK                         _______ _______ _______ _____ _____    ______ ____
ROOT
ATOM      1  O   UNL     1       1.203  11.192  20.471  0.00  0.00    +0.000 OA
ATOM      2  C   UNL     1       0.180  10.518  20.345  0.00  0.00    +0.000 C 
ATOM      3  N   UNL     1       0.197   9.150  20.445  0.00  0.00    +0.000 N 
ATOM      4  H   UNL     1      -0.641   8.593  20.597  0.00  0.00    +0.000 HD
ENDROOT
BRANCH   2   5
ATOM      5  C   UNL     1      -1.134  11.152  19.970  0.00  0.00    +0.000 A 
ATOM      6  C   UNL     1      -1.671  11.899  20.960  0.00  0.00    +0.000 A 
ATOM      7  C   UNL     1      -2.898  12.689  20.728  0.00  0.00    +0.000 A 
ATOM      8  O   UNL     1      -3.395  13.379  21.608  0.00  0.00    +0.000 OA
ATOM      9  N   UNL     1      -3.424  12.624  19.466  0.00  0.00    +0.000 N 
ATOM     10  C   UNL     1      -2.911  11.852  18.463  0.00  0.00    +0.000 A 
ATOM     11  N   UNL     1      -3.562  11.873  17.267  0.00  0.00    +0.000 N 
ATOM     12  C   UNL     1      -3.144  11.194  16.161  0.00  0.00    +0.000 A 
ATOM     13  O   UNL     1      -3.766  11.218  15.111  0.00  0.00    +0.000 OA
ATOM     14  N   UNL     1      -2.006  10.468  16.323  0.00  0.00    +0.000 N 
ATOM     15  C   UNL     1      -1.417  10.230  17.526  0.00  0.00    +0.000 A 
ATOM     16  O   UNL     1      -0.599   9.323  17.636  0.00  0.00    +0.000 OA
ATOM     17  C   UNL     1      -1.810  11.102  18.671  0.00  0.00    +0.000 A 
ATOM     18  H   UNL     1      -4.256  13.181  19.319  0.00  0.00    +0.000 HD
ATOM     19  H   UNL     1      -4.400  12.424  17.141  0.00  0.00    +0.000 HD
ATOM     20  H   UNL     1      -1.725   9.879  15.549  0.00  0.00    +0.000 HD
ENDBRANCH   2   5
BRANCH   3  21
ATOM     21  N   UNL     1       1.384   8.478  20.706  0.00  0.00    +0.000 N 
ATOM     22  H   UNL     1       1.812   8.649  21.614  0.00  0.00    +0.000 HD
BRANCH  21  23
ATOM     23  C   UNL     1       2.084   7.879  19.681  0.00  0.00    +0.000 C 
ATOM     24  S   UNL     1       2.213   8.487  18.127  0.00  0.00    +0.000 S 
BRANCH  23  25
ATOM     25  N   UNL     1       2.650   6.667  19.989  0.00  0.00    +0.000 N 
ATOM     26  H   UNL     1       3.436   6.691  20.630  0.00  0.00    +0.000 HD
BRANCH  25  27
ATOM     27  C   UNL     1       2.120   5.408  19.652  0.00  0.00    +0.000 A 
ATOM     28  C   UNL     1       2.316   4.917  18.363  0.00  0.00    +0.000 A 
ATOM     29  C   UNL     1       1.722   3.709  17.991  0.00  0.00    +0.000 A 
ATOM     30  C   UNL     1       0.985   2.981  18.921  0.00  0.00    +0.000 A 
ATOM     31  F   UNL     1       0.403   1.832  18.553  0.00  0.00    +0.000 F 
ATOM     32  C   UNL     1       0.842   3.427  20.225  0.00  0.00    +0.000 A 
ATOM     33  C   UNL     1       1.416   4.638  20.592  0.00  0.00    +0.000 A 
ENDBRANCH  25  27
ENDBRANCH  23  25
ENDBRANCH  21  23
ENDBRANCH   3  21
TORSDOF 5
ENDMDL
MODEL 8
REMARK VINA RESULT:      -8.4      4.367      8.014
REMARK  Name = 
REMARK  5 active torsions:
REMARK  status: ('A' for Active; 'I' for Inactive)
REMARK    1  A    between atoms: C_2  and  C_15
REMARK    2  A    between atoms: N_3  and  N_4
REMARK    3  A    between atoms: N_4  and  C_5
REMARK    4  A    between atoms: C_5  and  N_7
REMARK    5  A    between atoms: N_7  and  C_8
REMARK                            x       y       z     vdW  Elec       q    Type
REMARK                         _______ _______ _______ _____ _____    ______ ____
ROOT
ATOM      1  O   UNL     1       0.809   4.718  20.259  0.00  0.00    +0.000 OA
ATOM      2  C   UNL     1       1.895   5.296  20.326  0.00  0.00    +0.000 C 
ATOM      3  N   UNL     1       2.010   6.567  20.829  0.00  0.00    +0.000 N 
ATOM      4  H   UNL     1       2.896   6.968  21.129  0.00  0.00    +0.000 HD
ENDROOT
BRANCH   2   5
ATOM      5  C   UNL     1       3.147   4.676  19.761  0.00  0.00    +0.000 A 
ATOM      6  C   UNL     1       3.508   3.533  20.385  0.00  0.00    +0.000 A 
ATOM      7  C   UNL     1       4.644   2.729  19.887  0.00  0.00    +0.000 A 
ATOM      8  O   UNL     1       4.982   1.686  20.432  0.00  0.00    +0.000 OA
ATOM      9  N   UNL     1       5.272   3.206  18.769  0.00  0.00    +0.000 N 
ATOM     10  C   UNL     1       4.939   4.373  18.144  0.00  0.00    +0.000 A 
ATOM     11  N   UNL     1       5.675   4.728  17.055  0.00  0.00    +0.000 N 
ATOM     12  C   UNL     1       5.433   5.837  16.301  0.00  0.00    +0.000 A 
ATOM     13  O   UNL     1       6.128   6.136  15.343  0.00  0.00    +0.000 OA
ATOM     14  N   UNL     1       4.383   6.598  16.710  0.00  0.00    +0.000 N 
ATOM     15  C   UNL     1       3.734   6.429  17.894  0.00  0.00    +0.000 A 
ATOM     16  O   UNL     1       3.027   7.328  18.336  0.00  0.00    +0.000 OA
ATOM     17  C   UNL     1       3.925   5.133  18.606  0.00  0.00    +0.000 A 
ATOM     18  H   UNL     1       6.039   2.637  18.432  0.00  0.00    +0.000 HD
ATOM     19  H   UNL     1       6.447   4.156  16.740  0.00  0.00    +0.000 HD
ATOM     20  H   UNL     1       4.239   7.477  16.229  0.00  0.00    +0.000 HD
ENDBRANCH   2   5
BRANCH   3  21
ATOM     21  N   UNL     1       0.890   7.243  21.295  0.00  0.00    +0.000 N 
ATOM     22  H   UNL     1       0.068   6.675  21.495  0.00  0.00    +0.000 HD
BRANCH  21  23
ATOM     23  C   UNL     1       0.809   8.614  21.183  0.00  0.00    +0.000 C 
ATOM     24  S   UNL     1       0.264   9.641  22.387  0.00  0.00    +0.000 S 
BRANCH  23  25
ATOM     25  N   UNL     1       1.156   9.124  19.957  0.00  0.00    +0.000 N 
ATOM     26  H   UNL     1       1.690   8.508  19.352  0.00  0.00    +0.000 HD
BRANCH  25  27
ATOM     27  C   UNL     1       0.677  10.326  19.406  0.00  0.00    +0.000 A 
ATOM     28  C   UNL     1       1.531  11.425  19.340  0.00  0.00    +0.000 A 
ATOM     29  C   UNL     1       1.042  12.648  18.875  0.00  0.00    +0.000 A 
ATOM     30  C   UNL     1      -0.274  12.748  18.433  0.00  0.00    +0.000 A 
ATOM     31  F   UNL     1      -0.742  13.927  18.005  0.00  0.00    +0.000 F 
ATOM     32  C   UNL     1      -1.111  11.643  18.430  0.00  0.00    +0.000 A 
ATOM     33  C   UNL     1      -0.632  10.431  18.910  0.00  0.00    +0.000 A 
ENDBRANCH  25  27
ENDBRANCH  23  25
ENDBRANCH  21  23
ENDBRANCH   3  21
TORSDOF 5
ENDMDL
MODEL 9
REMARK VINA RESULT:      -8.4      2.932      4.793
REMARK  Name = 
REMARK  5 active torsions:
REMARK  status: ('A' for Active; 'I' for Inactive)
REMARK    1  A    between atoms: C_2  and  C_15
REMARK    2  A    between atoms: N_3  and  N_4
REMARK    3  A    between atoms: N_4  and  C_5
REMARK    4  A    between atoms: C_5  and  N_7
REMARK    5  A    between atoms: N_7  and  C_8
REMARK                            x       y       z     vdW  Elec       q    Type
REMARK                         _______ _______ _______ _____ _____    ______ ____
ROOT
ATOM      1  O   UNL     1       2.359   2.495  17.008  0.00  0.00    +0.000 OA
ATOM      2  C   UNL     1       2.936   3.395  17.621  0.00  0.00    +0.000 C 
ATOM      3  N   UNL     1       4.070   3.993  17.133  0.00  0.00    +0.000 N 
ATOM      4  H   UNL     1       4.419   4.885  17.475  0.00  0.00    +0.000 HD
ENDROOT
BRANCH   2   5
ATOM      5  C   UNL     1       2.485   3.820  18.994  0.00  0.00    +0.000 A 
ATOM      6  C   UNL     1       2.394   2.795  19.870  0.00  0.00    +0.000 A 
ATOM      7  C   UNL     1       2.080   3.044  21.292  0.00  0.00    +0.000 A 
ATOM      8  O   UNL     1       2.002   2.130  22.103  0.00  0.00    +0.000 OA
ATOM      9  N   UNL     1       1.911   4.354  21.649  0.00  0.00    +0.000 N 
ATOM     10  C   UNL     1       1.971   5.399  20.772  0.00  0.00    +0.000 A 
ATOM     11  N   UNL     1       1.756   6.646  21.275  0.00  0.00    +0.000 N 
ATOM     12  C   UNL     1       1.829   7.788  20.534  0.00  0.00    +0.000 A 
ATOM     13  O   UNL     1       1.608   8.888  21.014  0.00  0.00    +0.000 OA
ATOM     14  N   UNL     1       2.135   7.609  19.222  0.00  0.00    +0.000 N 
ATOM     15  C   UNL     1       2.160   6.398  18.602  0.00  0.00    +0.000 A 
ATOM     16  O   UNL     1       2.127   6.338  17.378  0.00  0.00    +0.000 OA
ATOM     17  C   UNL     1       2.225   5.183  19.466  0.00  0.00    +0.000 A 
ATOM     18  H   UNL     1       1.710   4.509  22.629  0.00  0.00    +0.000 HD
ATOM     19  H   UNL     1       1.542   6.782  22.253  0.00  0.00    +0.000 HD
ATOM     20  H   UNL     1       2.103   8.428  18.627  0.00  0.00    +0.000 HD
ENDBRANCH   2   5
BRANCH   3  21
ATOM     21  N   UNL     1       4.601   3.602  15.911  0.00  0.00    +0.000 N 
ATOM     22  H   UNL     1       4.083   2.891  15.397  0.00  0.00    +0.000 HD
BRANCH  21  23
ATOM     23  C   UNL     1       5.900   3.926  15.581  0.00  0.00    +0.000 C 
ATOM     24  S   UNL     1       6.458   4.168  14.022  0.00  0.00    +0.000 S 
BRANCH  23  25
ATOM     25  N   UNL     1       6.775   3.986  16.637  0.00  0.00    +0.000 N 
ATOM     26  H   UNL     1       7.250   3.122  16.873  0.00  0.00    +0.000 HD
BRANCH  25  27
ATOM     27  C   UNL     1       7.203   5.163  17.277  0.00  0.00    +0.000 A 
ATOM     28  C   UNL     1       7.056   6.382  16.618  0.00  0.00    +0.000 A 
ATOM     29  C   UNL     1       7.556   7.546  17.206  0.00  0.00    +0.000 A 
ATOM     30  C   UNL     1       8.149   7.489  18.465  0.00  0.00    +0.000 A 
ATOM     31  F   UNL     1       8.641   8.606  19.016  0.00  0.00    +0.000 F 
ATOM     32  C   UNL     1       8.237   6.293  19.158  0.00  0.00    +0.000 A 
ATOM     33  C   UNL     1       7.758   5.131  18.566  0.00  0.00    +0.000 A 
ENDBRANCH  25  27
ENDBRANCH  23  25
ENDBRANCH  21  23
ENDBRANCH   3  21
TORSDOF 5
ENDMDL
