MODEL 1
REMARK VINA RESULT:      -7.1      0.000      0.000
REMARK  Name = 
REMARK  4 active torsions:
REMARK  status: ('A' for Active; 'I' for Inactive)
REMARK    1  A    between atoms: C_1  and  C_2
REMARK    2  A    between atoms: C_2  and  O_3
REMARK    3  A    between atoms: O_3  and  C_4
REMARK    4  A    between atoms: N_14  and  C_15
REMARK                            x       y       z     vdW  Elec       q    Type
REMARK                         _______ _______ _______ _____ _____    ______ ____
ROOT
ATOM      1  C   UNL     1       1.322   8.912  20.253  0.00  0.00    +0.000 C 
ATOM      2  O   UNL     1       0.960  10.022  19.893  0.00  0.00    +0.000 OA
ATOM      3  N   UNL     1       1.833   7.959  19.406  0.00  0.00    +0.000 N 
ATOM      4  C   UNL     1       1.946   8.238  17.968  0.00  0.00    +0.000 C 
ATOM      5  C   UNL     1       3.370   7.947  17.445  0.00  0.00    +0.000 C 
ATOM      6  N   UNL     1       3.696   6.570  17.823  0.00  0.00    +0.000 N 
ATOM      7  C   UNL     1       4.459   5.790  17.007  0.00  0.00    +0.000 A 
ATOM      8  N   UNL     1       5.395   6.138  16.150  0.00  0.00    +0.000 NA
ATOM      9  N   UNL     1       5.982   4.970  15.726  0.00  0.00    +0.000 NA
ATOM     10  N   UNL     1       5.403   3.910  16.274  0.00  0.00    +0.000 NA
ATOM     11  N   UNL     1       4.348   4.394  16.965  0.00  0.00    +0.000 N 
ATOM     12  C   UNL     1       3.731   6.356  19.284  0.00  0.00    +0.000 C 
ATOM     13  C   UNL     1       2.340   6.663  19.871  0.00  0.00    +0.000 C 
ENDROOT
BRANCH  11  14
ATOM     14  C   UNL     1       3.347   3.567  17.532  0.00  0.00    +0.000 A 
ATOM     15  C   UNL     1       3.704   2.415  18.234  0.00  0.00    +0.000 A 
ATOM     16  C   UNL     1       2.724   1.725  18.955  0.00  0.00    +0.000 A 
ATOM     17  C   UNL     1       1.397   2.158  18.948  0.00  0.00    +0.000 A 
ATOM     18  C   UNL     1       1.028   3.257  18.181  0.00  0.00    +0.000 A 
ATOM     19  C   UNL     1       1.998   3.947  17.458  0.00  0.00    +0.000 A 
ENDBRANCH  11  14
BRANCH   1  20
ATOM     20  O   UNL     1       1.362   8.506  21.550  0.00  0.00    +0.000 OA
BRANCH  20  22
ATOM     21  C   UNL     1      -0.214   9.411  23.091  0.00  0.00    +0.000 C 
ATOM     22  C   UNL     1       1.182   9.552  22.507  0.00  0.00    +0.000 C 
ENDBRANCH  20  22
ENDBRANCH   1  20
TORSDOF 3
ENDMDL
MODEL 2
REMARK VINA RESULT:      -7.1      2.137      3.899
REMARK  Name = 
REMARK  4 active torsions:
REMARK  status: ('A' for Active; 'I' for Inactive)
REMARK    1  A    between atoms: C_1  and  C_2
REMARK    2  A    between atoms: C_2  and  O_3
REMARK    3  A    between atoms: O_3  and  C_4
REMARK    4  A    between atoms: N_14  and  C_15
REMARK                            x       y       z     vdW  Elec       q    Type
REMARK                         _______ _______ _______ _____ _____    ______ ____
ROOT
ATOM      1  C   UNL     1       1.259   8.934  19.951  0.00  0.00    +0.000 C 
ATOM      2  O   UNL     1       0.700   9.226  20.997  0.00  0.00    +0.000 OA
ATOM      3  N   UNL     1       1.944   7.761  19.748  0.00  0.00    +0.000 N 
ATOM      4  C   UNL     1       2.061   6.780  20.835  0.00  0.00    +0.000 C 
ATOM      5  C   UNL     1       1.625   5.371  20.375  0.00  0.00    +0.000 C 
ATOM      6  N   UNL     1       2.407   5.046  19.179  0.00  0.00    +0.000 N 
ATOM      7  C   UNL     1       2.807   3.766  18.940  0.00  0.00    +0.000 A 
ATOM      8  N   UNL     1       2.244   2.632  19.296  0.00  0.00    +0.000 NA
ATOM      9  N   UNL     1       2.936   1.637  18.648  0.00  0.00    +0.000 NA
ATOM     10  N   UNL     1       3.936   2.132  17.930  0.00  0.00    +0.000 NA
ATOM     11  N   UNL     1       3.966   3.452  18.219  0.00  0.00    +0.000 N 
ATOM     12  C   UNL     1       2.151   5.958  18.047  0.00  0.00    +0.000 C 
ATOM     13  C   UNL     1       2.537   7.392  18.457  0.00  0.00    +0.000 C 
ENDROOT
BRANCH  11  14
ATOM     14  C   UNL     1       5.019   4.310  17.815  0.00  0.00    +0.000 A 
ATOM     15  C   UNL     1       5.141   4.688  16.477  0.00  0.00    +0.000 A 
ATOM     16  C   UNL     1       6.055   5.689  16.132  0.00  0.00    +0.000 A 
ATOM     17  C   UNL     1       6.863   6.282  17.105  0.00  0.00    +0.000 A 
ATOM     18  C   UNL     1       6.799   5.844  18.423  0.00  0.00    +0.000 A 
ATOM     19  C   UNL     1       5.893   4.847  18.773  0.00  0.00    +0.000 A 
ENDBRANCH  11  14
BRANCH   1  20
ATOM     20  O   UNL     1       1.194   9.682  18.817  0.00  0.00    +0.000 OA
BRANCH  20  22
ATOM     21  C   UNL     1      -0.978  10.158  17.963  0.00  0.00    +0.000 C 
ATOM     22  C   UNL     1       0.168  10.675  18.816  0.00  0.00    +0.000 C 
ENDBRANCH  20  22
ENDBRANCH   1  20
TORSDOF 3
ENDMDL
MODEL 3
REMARK VINA RESULT:      -7.1      2.817      5.002
REMARK  Name = 
REMARK  4 active torsions:
REMARK  status: ('A' for Active; 'I' for Inactive)
REMARK    1  A    between atoms: C_1  and  C_2
REMARK    2  A    between atoms: C_2  and  O_3
REMARK    3  A    between atoms: O_3  and  C_4
REMARK    4  A    between atoms: N_14  and  C_15
REMARK                            x       y       z     vdW  Elec       q    Type
REMARK                         _______ _______ _______ _____ _____    ______ ____
ROOT
ATOM      1  C   UNL     1       2.599   3.568  20.736  0.00  0.00    +0.000 C 
ATOM      2  O   UNL     1       2.101   2.489  21.016  0.00  0.00    +0.000 OA
ATOM      3  N   UNL     1       3.537   3.747  19.748  0.00  0.00    +0.000 N 
ATOM      4  C   UNL     1       4.019   2.594  18.976  0.00  0.00    +0.000 C 
ATOM      5  C   UNL     1       3.915   2.849  17.455  0.00  0.00    +0.000 C 
ATOM      6  N   UNL     1       4.620   4.102  17.178  0.00  0.00    +0.000 N 
ATOM      7  C   UNL     1       5.308   4.266  16.013  0.00  0.00    +0.000 A 
ATOM      8  N   UNL     1       5.098   3.726  14.832  0.00  0.00    +0.000 NA
ATOM      9  N   UNL     1       5.949   4.362  13.960  0.00  0.00    +0.000 NA
ATOM     10  N   UNL     1       6.704   5.256  14.587  0.00  0.00    +0.000 NA
ATOM     11  N   UNL     1       6.424   5.106  15.899  0.00  0.00    +0.000 N 
ATOM     12  C   UNL     1       4.017   5.274  17.844  0.00  0.00    +0.000 C 
ATOM     13  C   UNL     1       4.062   5.064  19.371  0.00  0.00    +0.000 C 
ENDROOT
BRANCH  11  14
ATOM     14  C   UNL     1       7.170   5.733  16.928  0.00  0.00    +0.000 A 
ATOM     15  C   UNL     1       7.387   7.112  16.895  0.00  0.00    +0.000 A 
ATOM     16  C   UNL     1       7.946   7.740  18.013  0.00  0.00    +0.000 A 
ATOM     17  C   UNL     1       8.316   6.998  19.137  0.00  0.00    +0.000 A 
ATOM     18  C   UNL     1       8.176   5.615  19.134  0.00  0.00    +0.000 A 
ATOM     19  C   UNL     1       7.622   4.982  18.024  0.00  0.00    +0.000 A 
ENDBRANCH  11  14
BRANCH   1  20
ATOM     20  O   UNL     1       2.222   4.751  21.291  0.00  0.00    +0.000 OA
BRANCH  20  22
ATOM     21  C   UNL     1       1.396   6.938  20.834  0.00  0.00    +0.000 C 
ATOM     22  C   UNL     1       1.211   5.453  20.566  0.00  0.00    +0.000 C 
ENDBRANCH  20  22
ENDBRANCH   1  20
TORSDOF 3
ENDMDL
MODEL 4
REMARK VINA RESULT:      -7.1      2.199      3.904
REMARK  Name = 
REMARK  4 active torsions:
REMARK  status: ('A' for Active; 'I' for Inactive)
REMARK    1  A    between atoms: C_1  and  C_2
REMARK    2  A    between atoms: C_2  and  O_3
REMARK    3  A    between atoms: O_3  and  C_4
REMARK    4  A    between atoms: N_14  and  C_15
REMARK                            x       y       z     vdW  Elec       q    Type
REMARK                         _______ _______ _______ _____ _____    ______ ____
ROOT
ATOM      1  C   UNL     1       1.063   9.179  19.955  0.00  0.00    +0.000 C 
ATOM      2  O   UNL     1       0.429   9.465  20.960  0.00  0.00    +0.000 OA
ATOM      3  N   UNL     1       1.791   8.023  19.810  0.00  0.00    +0.000 N 
ATOM      4  C   UNL     1       1.862   7.056  20.914  0.00  0.00    +0.000 C 
ATOM      5  C   UNL     1       1.495   5.631  20.442  0.00  0.00    +0.000 C 
ATOM      6  N   UNL     1       2.362   5.317  19.303  0.00  0.00    +0.000 N 
ATOM      7  C   UNL     1       2.811   4.046  19.105  0.00  0.00    +0.000 A 
ATOM      8  N   UNL     1       2.256   2.900  19.436  0.00  0.00    +0.000 NA
ATOM      9  N   UNL     1       3.016   1.919  18.845  0.00  0.00    +0.000 NA
ATOM     10  N   UNL     1       4.047   2.435  18.189  0.00  0.00    +0.000 NA
ATOM     11  N   UNL     1       4.023   3.757  18.464  0.00  0.00    +0.000 N 
ATOM     12  C   UNL     1       2.156   6.211  18.146  0.00  0.00    +0.000 C 
ATOM     13  C   UNL     1       2.476   7.659  18.565  0.00  0.00    +0.000 C 
ENDROOT
BRANCH  11  14
ATOM     14  C   UNL     1       5.076   4.640  18.120  0.00  0.00    +0.000 A 
ATOM     15  C   UNL     1       5.922   5.141  19.111  0.00  0.00    +0.000 A 
ATOM     16  C   UNL     1       7.071   5.844  18.734  0.00  0.00    +0.000 A 
ATOM     17  C   UNL     1       7.356   6.075  17.387  0.00  0.00    +0.000 A 
ATOM     18  C   UNL     1       6.469   5.648  16.406  0.00  0.00    +0.000 A 
ATOM     19  C   UNL     1       5.321   4.949  16.774  0.00  0.00    +0.000 A 
ENDBRANCH  11  14
BRANCH   1  20
ATOM     20  O   UNL     1       1.052   9.914  18.811  0.00  0.00    +0.000 OA
BRANCH  20  22
ATOM     21  C   UNL     1      -1.128  10.098  17.868  0.00  0.00    +0.000 C 
ATOM     22  C   UNL     1      -0.058  10.804  18.686  0.00  0.00    +0.000 C 
ENDBRANCH  20  22
ENDBRANCH   1  20
TORSDOF 3
ENDMDL
MODEL 5
REMARK VINA RESULT:      -6.9      2.889      5.071
REMARK  Name = 
REMARK  4 active torsions:
REMARK  status: ('A' for Active; 'I' for Inactive)
REMARK    1  A    between atoms: C_1  and  C_2
REMARK    2  A    between atoms: C_2  and  O_3
REMARK    3  A    between atoms: O_3  and  C_4
REMARK    4  A    between atoms: N_14  and  C_15
REMARK                            x       y       z     vdW  Elec       q    Type
REMARK                         _______ _______ _______ _____ _____    ______ ____
ROOT
ATOM      1  C   UNL     1       1.934   3.388  19.440  0.00  0.00    +0.000 C 
ATOM      2  O   UNL     1       1.461   2.278  19.628  0.00  0.00    +0.000 OA
ATOM      3  N   UNL     1       3.088   3.622  18.732  0.00  0.00    +0.000 N 
ATOM      4  C   UNL     1       3.846   2.495  18.171  0.00  0.00    +0.000 C 
ATOM      5  C   UNL     1       4.137   2.702  16.668  0.00  0.00    +0.000 C 
ATOM      6  N   UNL     1       4.794   4.004  16.531  0.00  0.00    +0.000 N 
ATOM      7  C   UNL     1       5.757   4.197  15.586  0.00  0.00    +0.000 A 
ATOM      8  N   UNL     1       5.915   3.612  14.418  0.00  0.00    +0.000 NA
ATOM      9  N   UNL     1       6.919   4.296  13.777  0.00  0.00    +0.000 NA
ATOM     10  N   UNL     1       7.408   5.266  14.539  0.00  0.00    +0.000 NA
ATOM     11  N   UNL     1       6.796   5.126  15.735  0.00  0.00    +0.000 N 
ATOM     12  C   UNL     1       3.947   5.136  16.956  0.00  0.00    +0.000 C 
ATOM     13  C   UNL     1       3.594   4.969  18.447  0.00  0.00    +0.000 C 
ENDROOT
BRANCH  11  14
ATOM     14  C   UNL     1       7.187   5.839  16.895  0.00  0.00    +0.000 A 
ATOM     15  C   UNL     1       7.517   5.151  18.063  0.00  0.00    +0.000 A 
ATOM     16  C   UNL     1       8.092   5.853  19.129  0.00  0.00    +0.000 A 
ATOM     17  C   UNL     1       8.302   7.230  19.043  0.00  0.00    +0.000 A 
ATOM     18  C   UNL     1       7.895   7.927  17.911  0.00  0.00    +0.000 A 
ATOM     19  C   UNL     1       7.320   7.235  16.848  0.00  0.00    +0.000 A 
ENDBRANCH  11  14
BRANCH   1  20
ATOM     20  O   UNL     1       1.333   4.548  19.818  0.00  0.00    +0.000 OA
BRANCH  20  22
ATOM     21  C   UNL     1       1.621   6.631  20.938  0.00  0.00    +0.000 C 
ATOM     22  C   UNL     1       1.862   5.132  21.010  0.00  0.00    +0.000 C 
ENDBRANCH  20  22
ENDBRANCH   1  20
TORSDOF 3
ENDMDL
MODEL 6
REMARK VINA RESULT:      -6.7      0.510      1.149
REMARK  Name = 
REMARK  4 active torsions:
REMARK  status: ('A' for Active; 'I' for Inactive)
REMARK    1  A    between atoms: C_1  and  C_2
REMARK    2  A    between atoms: C_2  and  O_3
REMARK    3  A    between atoms: O_3  and  C_4
REMARK    4  A    between atoms: N_14  and  C_15
REMARK                            x       y       z     vdW  Elec       q    Type
REMARK                         _______ _______ _______ _____ _____    ______ ____
ROOT
ATOM      1  C   UNL     1       1.074   9.330  20.135  0.00  0.00    +0.000 C 
ATOM      2  O   UNL     1       0.689  10.400  19.689  0.00  0.00    +0.000 OA
ATOM      3  N   UNL     1       1.623   8.332  19.368  0.00  0.00    +0.000 N 
ATOM      4  C   UNL     1       1.750   8.507  17.915  0.00  0.00    +0.000 C 
ATOM      5  C   UNL     1       3.190   8.217  17.435  0.00  0.00    +0.000 C 
ATOM      6  N   UNL     1       3.546   6.881  17.918  0.00  0.00    +0.000 N 
ATOM      7  C   UNL     1       4.341   6.064  17.171  0.00  0.00    +0.000 A 
ATOM      8  N   UNL     1       5.281   6.373  16.304  0.00  0.00    +0.000 NA
ATOM      9  N   UNL     1       5.905   5.194  15.975  0.00  0.00    +0.000 NA
ATOM     10  N   UNL     1       5.345   4.162  16.593  0.00  0.00    +0.000 NA
ATOM     11  N   UNL     1       4.268   4.666  17.231  0.00  0.00    +0.000 N 
ATOM     12  C   UNL     1       3.564   6.776  19.390  0.00  0.00    +0.000 C 
ATOM     13  C   UNL     1       2.156   7.087  19.935  0.00  0.00    +0.000 C 
ENDROOT
BRANCH  11  14
ATOM     14  C   UNL     1       3.280   3.856  17.844  0.00  0.00    +0.000 A 
ATOM     15  C   UNL     1       1.926   4.152  17.673  0.00  0.00    +0.000 A 
ATOM     16  C   UNL     1       0.967   3.234  18.113  0.00  0.00    +0.000 A 
ATOM     17  C   UNL     1       1.351   2.050  18.746  0.00  0.00    +0.000 A 
ATOM     18  C   UNL     1       2.696   1.797  18.989  0.00  0.00    +0.000 A 
ATOM     19  C   UNL     1       3.657   2.708  18.557  0.00  0.00    +0.000 A 
ENDBRANCH  11  14
BRANCH   1  20
ATOM     20  O   UNL     1       1.104   9.022  21.459  0.00  0.00    +0.000 OA
BRANCH  20  22
ATOM     21  C   UNL     1      -0.276   9.798  23.239  0.00  0.00    +0.000 C 
ATOM     22  C   UNL     1      -0.180   8.845  22.059  0.00  0.00    +0.000 C 
ENDBRANCH  20  22
ENDBRANCH   1  20
TORSDOF 3
ENDMDL
MODEL 7
REMARK VINA RESULT:      -6.7      3.665      6.028
REMARK  Name = 
REMARK  4 active torsions:
REMARK  status: ('A' for Active; 'I' for Inactive)
REMARK    1  A    between atoms: C_1  and  C_2
REMARK    2  A    between atoms: C_2  and  O_3
REMARK    3  A    between atoms: O_3  and  C_4
REMARK    4  A    between atoms: N_14  and  C_15
REMARK                            x       y       z     vdW  Elec       q    Type
REMARK                         _______ _______ _______ _____ _____    ______ ____
ROOT
ATOM      1  C   UNL     1       7.182   5.418  16.494  0.00  0.00    +0.000 C 
ATOM      2  O   UNL     1       7.612   4.811  15.525  0.00  0.00    +0.000 OA
ATOM      3  N   UNL     1       5.937   5.213  17.037  0.00  0.00    +0.000 N 
ATOM      4  C   UNL     1       5.024   4.233  16.434  0.00  0.00    +0.000 C 
ATOM      5  C   UNL     1       4.484   3.240  17.487  0.00  0.00    +0.000 C 
ATOM      6  N   UNL     1       3.893   4.035  18.566  0.00  0.00    +0.000 N 
ATOM      7  C   UNL     1       2.791   3.588  19.232  0.00  0.00    +0.000 A 
ATOM      8  N   UNL     1       2.393   2.355  19.460  0.00  0.00    +0.000 NA
ATOM      9  N   UNL     1       1.334   2.447  20.332  0.00  0.00    +0.000 NA
ATOM     10  N   UNL     1       1.048   3.711  20.614  0.00  0.00    +0.000 NA
ATOM     11  N   UNL     1       1.853   4.448  19.819  0.00  0.00    +0.000 N 
ATOM     12  C   UNL     1       4.869   4.897  19.261  0.00  0.00    +0.000 C 
ATOM     13  C   UNL     1       5.470   5.894  18.251  0.00  0.00    +0.000 C 
ENDROOT
BRANCH  11  14
ATOM     14  C   UNL     1       1.719   5.850  19.664  0.00  0.00    +0.000 A 
ATOM     15  C   UNL     1       1.481   6.658  20.777  0.00  0.00    +0.000 A 
ATOM     16  C   UNL     1       1.553   8.048  20.638  0.00  0.00    +0.000 A 
ATOM     17  C   UNL     1       1.824   8.627  19.396  0.00  0.00    +0.000 A 
ATOM     18  C   UNL     1       1.978   7.822  18.273  0.00  0.00    +0.000 A 
ATOM     19  C   UNL     1       1.905   6.438  18.404  0.00  0.00    +0.000 A 
ENDBRANCH  11  14
BRANCH   1  20
ATOM     20  O   UNL     1       7.910   6.304  17.225  0.00  0.00    +0.000 OA
BRANCH  20  22
ATOM     21  C   UNL     1       8.281   8.494  18.086  0.00  0.00    +0.000 C 
ATOM     22  C   UNL     1       7.537   7.672  17.047  0.00  0.00    +0.000 C 
ENDBRANCH  20  22
ENDBRANCH   1  20
TORSDOF 3
ENDMDL
MODEL 8
REMARK VINA RESULT:      -6.6      2.422      4.373
REMARK  Name = 
REMARK  4 active torsions:
REMARK  status: ('A' for Active; 'I' for Inactive)
REMARK    1  A    between atoms: C_1  and  C_2
REMARK    2  A    between atoms: C_2  and  O_3
REMARK    3  A    between atoms: O_3  and  C_4
REMARK    4  A    between atoms: N_14  and  C_15
REMARK                            x       y       z     vdW  Elec       q    Type
REMARK                         _______ _______ _______ _____ _____    ______ ____
ROOT
ATOM      1  C   UNL     1       1.807   5.906  20.244  0.00  0.00    +0.000 C 
ATOM      2  O   UNL     1       1.030   5.086  20.709  0.00  0.00    +0.000 OA
ATOM      3  N   UNL     1       2.879   5.581  19.449  0.00  0.00    +0.000 N 
ATOM      4  C   UNL     1       3.162   4.175  19.134  0.00  0.00    +0.000 C 
ATOM      5  C   UNL     1       3.318   3.957  17.612  0.00  0.00    +0.000 C 
ATOM      6  N   UNL     1       4.336   4.899  17.143  0.00  0.00    +0.000 N 
ATOM      7  C   UNL     1       5.187   4.555  16.135  0.00  0.00    +0.000 A 
ATOM      8  N   UNL     1       5.005   3.724  15.132  0.00  0.00    +0.000 NA
ATOM      9  N   UNL     1       6.089   3.878  14.302  0.00  0.00    +0.000 NA
ATOM     10  N   UNL     1       6.952   4.759  14.792  0.00  0.00    +0.000 NA
ATOM     11  N   UNL     1       6.478   5.084  16.014  0.00  0.00    +0.000 N 
ATOM     12  C   UNL     1       3.955   6.313  17.329  0.00  0.00    +0.000 C 
ATOM     13  C   UNL     1       3.753   6.587  18.832  0.00  0.00    +0.000 C 
ENDROOT
BRANCH  11  14
ATOM     14  C   UNL     1       7.216   5.845  16.955  0.00  0.00    +0.000 A 
ATOM     15  C   UNL     1       7.452   7.202  16.729  0.00  0.00    +0.000 A 
ATOM     16  C   UNL     1       8.001   7.978  17.754  0.00  0.00    +0.000 A 
ATOM     17  C   UNL     1       8.344   7.402  18.979  0.00  0.00    +0.000 A 
ATOM     18  C   UNL     1       8.186   6.035  19.172  0.00  0.00    +0.000 A 
ATOM     19  C   UNL     1       7.642   5.255  18.155  0.00  0.00    +0.000 A 
ENDBRANCH  11  14
BRANCH   1  20
ATOM     20  O   UNL     1       1.661   7.252  20.367  0.00  0.00    +0.000 OA
BRANCH  20  22
ATOM     21  C   UNL     1       0.111   8.869  21.178  0.00  0.00    +0.000 C 
ATOM     22  C   UNL     1       0.971   7.671  21.546  0.00  0.00    +0.000 C 
ENDBRANCH  20  22
ENDBRANCH   1  20
TORSDOF 3
ENDMDL
MODEL 9
REMARK VINA RESULT:      -6.6      3.626      6.096
REMARK  Name = 
REMARK  4 active torsions:
REMARK  status: ('A' for Active; 'I' for Inactive)
REMARK    1  A    between atoms: C_1  and  C_2
REMARK    2  A    between atoms: C_2  and  O_3
REMARK    3  A    between atoms: O_3  and  C_4
REMARK    4  A    between atoms: N_14  and  C_15
REMARK                            x       y       z     vdW  Elec       q    Type
REMARK                         _______ _______ _______ _____ _____    ______ ____
ROOT
ATOM      1  C   UNL     1       7.109   5.370  16.386  0.00  0.00    +0.000 C 
ATOM      2  O   UNL     1       7.444   4.783  15.368  0.00  0.00    +0.000 OA
ATOM      3  N   UNL     1       5.866   5.259  16.961  0.00  0.00    +0.000 N 
ATOM      4  C   UNL     1       4.839   4.416  16.335  0.00  0.00    +0.000 C 
ATOM      5  C   UNL     1       4.232   3.419  17.348  0.00  0.00    +0.000 C 
ATOM      6  N   UNL     1       3.759   4.201  18.493  0.00  0.00    +0.000 N 
ATOM      7  C   UNL     1       2.638   3.828  19.171  0.00  0.00    +0.000 A 
ATOM      8  N   UNL     1       2.122   2.630  19.342  0.00  0.00    +0.000 NA
ATOM      9  N   UNL     1       1.105   2.774  20.255  0.00  0.00    +0.000 NA
ATOM     10  N   UNL     1       0.961   4.041  20.622  0.00  0.00    +0.000 NA
ATOM     11  N   UNL     1       1.813   4.741  19.841  0.00  0.00    +0.000 N 
ATOM     12  C   UNL     1       4.840   4.916  19.201  0.00  0.00    +0.000 C 
ATOM     13  C   UNL     1       5.510   5.907  18.229  0.00  0.00    +0.000 C 
ENDROOT
BRANCH  11  14
ATOM     14  C   UNL     1       1.820   6.156  19.774  0.00  0.00    +0.000 A 
ATOM     15  C   UNL     1       2.065   6.799  18.559  0.00  0.00    +0.000 A 
ATOM     16  C   UNL     1       1.868   8.181  18.468  0.00  0.00    +0.000 A 
ATOM     17  C   UNL     1       1.466   8.919  19.583  0.00  0.00    +0.000 A 
ATOM     18  C   UNL     1       1.304   8.289  20.811  0.00  0.00    +0.000 A 
ATOM     19  C   UNL     1       1.500   6.914  20.911  0.00  0.00    +0.000 A 
ENDBRANCH  11  14
BRANCH   1  20
ATOM     20  O   UNL     1       7.946   6.131  17.139  0.00  0.00    +0.000 OA
BRANCH  20  22
ATOM     21  C   UNL     1       8.325   8.175  18.303  0.00  0.00    +0.000 C 
ATOM     22  C   UNL     1       7.694   7.536  17.077  0.00  0.00    +0.000 C 
ENDBRANCH  20  22
ENDBRANCH   1  20
TORSDOF 3
ENDMDL
