MODEL 1
REMARK VINA RESULT:      -7.0      0.000      0.000
REMARK  Name = 
REMARK  12 active torsions:
REMARK  status: ('A' for Active; 'I' for Inactive)
REMARK    1  A    between atoms: C_1  and  N_2
REMARK    2  A    between atoms: N_2  and  C_3
REMARK    3  A    between atoms: C_3  and  C_4
REMARK    4  A    between atoms: C_4  and  N_5
REMARK    5  A    between atoms: N_5  and  C_6
REMARK    6  A    between atoms: C_9  and  N_10
REMARK    7  A    between atoms: N_10  and  C_11
REMARK    8  A    between atoms: C_11  and  C_12
REMARK    9  A    between atoms: C_12  and  N_13
REMARK   10  A    between atoms: N_13  and  C_14
REMARK   11  A    between atoms: C_20  and  O_21
REMARK   12  A    between atoms: C_24  and  O_25
REMARK                            x       y       z     vdW  Elec       q    Type
REMARK                         _______ _______ _______ _____ _____    ______ ____
ROOT
ATOM      1  C   UNL     1       4.163   6.037  17.588  0.00  0.00    +0.000 A 
ATOM      2  C   UNL     1       4.621   4.813  18.081  0.00  0.00    +0.000 A 
ATOM      3  C   UNL     1       4.167   4.292  19.284  0.00  0.00    +0.000 A 
ATOM      4  C   UNL     1       3.241   4.976  20.069  0.00  0.00    +0.000 A 
ATOM      5  C   UNL     1       2.749   6.219  19.601  0.00  0.00    +0.000 A 
ATOM      6  C   UNL     1       3.215   6.746  18.377  0.00  0.00    +0.000 A 
ATOM      7  C   UNL     1       2.687   8.056  17.924  0.00  0.00    +0.000 C 
ATOM      8  O   UNL     1       2.858   8.454  16.772  0.00  0.00    +0.000 OA
ATOM      9  C   UNL     1       1.933   8.920  18.853  0.00  0.00    +0.000 A 
ATOM     10  C   UNL     1       1.654  10.256  18.505  0.00  0.00    +0.000 A 
ATOM     11  C   UNL     1       0.932  11.086  19.355  0.00  0.00    +0.000 A 
ATOM     12  C   UNL     1       0.471  10.588  20.569  0.00  0.00    +0.000 A 
ATOM     13  C   UNL     1       0.744   9.263  20.926  0.00  0.00    +0.000 A 
ATOM     14  C   UNL     1       1.476   8.413  20.072  0.00  0.00    +0.000 A 
ATOM     15  C   UNL     1       1.751   6.990  20.401  0.00  0.00    +0.000 C 
ATOM     16  O   UNL     1       1.154   6.428  21.313  0.00  0.00    +0.000 OA
ENDROOT
BRANCH   1  17
ATOM     17  N   UNL     1       4.744   6.598  16.436  0.00  0.00    +0.000 N 
ATOM     18  H   UNL     1       4.096   7.226  15.951  0.00  0.00    +0.000 HD
BRANCH  17  19
ATOM     19  C   UNL     1       5.604   5.779  15.582  0.00  0.00    +0.000 C 
BRANCH  19  20
ATOM     20  C   UNL     1       7.001   5.565  16.185  0.00  0.00    +0.000 C 
BRANCH  20  22
ATOM     21  C   UNL     1       7.774   6.870  18.064  0.00  0.00    +0.000 C 
ATOM     22  N   UNL     1       7.566   6.852  16.624  0.00  0.00    +0.000 NA
ATOM     23  H   UNL     1       8.461   7.004  16.157  0.00  0.00    +0.000 HD
ENDBRANCH  20  22
ENDBRANCH  19  20
ENDBRANCH  17  19
ENDBRANCH   1  17
BRANCH   4  24
ATOM     24  N   UNL     1       2.840   4.411  21.278  0.00  0.00    +0.000 N 
ATOM     25  H   UNL     1       3.121   4.937  22.112  0.00  0.00    +0.000 HD
BRANCH  24  26
ATOM     26  C   UNL     1       2.605   2.977  21.408  0.00  0.00    +0.000 C 
BRANCH  26  27
ATOM     27  C   UNL     1       1.104   2.633  21.311  0.00  0.00    +0.000 C 
BRANCH  27  28
ATOM     28  N   UNL     1       0.417   3.078  20.091  0.00  0.00    +0.000 NA
ATOM     29  C   UNL     1       0.905   2.393  18.901  0.00  0.00    +0.000 C 
ATOM     30  H   UNL     1       0.562   4.082  19.977  0.00  0.00    +0.000 HD
ENDBRANCH  27  28
ENDBRANCH  26  27
ENDBRANCH  24  26
ENDBRANCH   4  24
BRANCH  10  31
ATOM     31  O   UNL     1       2.061  10.826  17.327  0.00  0.00    +0.000 OA
ATOM     32  H   UNL     1       2.114  11.798  17.465  0.00  0.00    +0.000 HD
ENDBRANCH  10  31
BRANCH  13  33
ATOM     33  O   UNL     1       0.297   8.829  22.144  0.00  0.00    +0.000 OA
ATOM     34  H   UNL     1       0.888   8.141  22.501  0.00  0.00    +0.000 HD
ENDBRANCH  13  33
TORSDOF 10
ENDMDL
MODEL 2
REMARK VINA RESULT:      -6.9      0.981      1.263
REMARK  Name = 
REMARK  12 active torsions:
REMARK  status: ('A' for Active; 'I' for Inactive)
REMARK    1  A    between atoms: C_1  and  N_2
REMARK    2  A    between atoms: N_2  and  C_3
REMARK    3  A    between atoms: C_3  and  C_4
REMARK    4  A    between atoms: C_4  and  N_5
REMARK    5  A    between atoms: N_5  and  C_6
REMARK    6  A    between atoms: C_9  and  N_10
REMARK    7  A    between atoms: N_10  and  C_11
REMARK    8  A    between atoms: C_11  and  C_12
REMARK    9  A    between atoms: C_12  and  N_13
REMARK   10  A    between atoms: N_13  and  C_14
REMARK   11  A    between atoms: C_20  and  O_21
REMARK   12  A    between atoms: C_24  and  O_25
REMARK                            x       y       z     vdW  Elec       q    Type
REMARK                         _______ _______ _______ _____ _____    ______ ____
ROOT
ATOM      1  C   UNL     1       4.649   5.822  17.445  0.00  0.00    +0.000 A 
ATOM      2  C   UNL     1       5.155   4.620  17.947  0.00  0.00    +0.000 A 
ATOM      3  C   UNL     1       4.672   4.055  19.119  0.00  0.00    +0.000 A 
ATOM      4  C   UNL     1       3.667   4.671  19.863  0.00  0.00    +0.000 A 
ATOM      5  C   UNL     1       3.126   5.890  19.385  0.00  0.00    +0.000 A 
ATOM      6  C   UNL     1       3.621   6.461  18.193  0.00  0.00    +0.000 A 
ATOM      7  C   UNL     1       3.039   7.744  17.728  0.00  0.00    +0.000 C 
ATOM      8  O   UNL     1       3.243   8.168  16.591  0.00  0.00    +0.000 OA
ATOM      9  C   UNL     1       2.186   8.548  18.627  0.00  0.00    +0.000 A 
ATOM     10  C   UNL     1       1.846   9.868  18.280  0.00  0.00    +0.000 A 
ATOM     11  C   UNL     1       1.033  10.642  19.102  0.00  0.00    +0.000 A 
ATOM     12  C   UNL     1       0.541  10.100  20.284  0.00  0.00    +0.000 A 
ATOM     13  C   UNL     1       0.876   8.788  20.640  0.00  0.00    +0.000 A 
ATOM     14  C   UNL     1       1.700   7.996  19.814  0.00  0.00    +0.000 A 
ATOM     15  C   UNL     1       2.044   6.587  20.140  0.00  0.00    +0.000 C 
ATOM     16  O   UNL     1       1.436   5.977  21.014  0.00  0.00    +0.000 OA
ENDROOT
BRANCH   1  17
ATOM     17  N   UNL     1       5.252   6.433  16.332  0.00  0.00    +0.000 N 
ATOM     18  H   UNL     1       5.018   7.429  16.271  0.00  0.00    +0.000 HD
BRANCH  17  19
ATOM     19  C   UNL     1       5.331   5.714  15.060  0.00  0.00    +0.000 C 
BRANCH  19  20
ATOM     20  C   UNL     1       6.549   4.779  14.987  0.00  0.00    +0.000 C 
BRANCH  20  22
ATOM     21  C   UNL     1       7.784   5.208  12.956  0.00  0.00    +0.000 C 
ATOM     22  N   UNL     1       7.692   5.483  14.382  0.00  0.00    +0.000 NA
ATOM     23  H   UNL     1       7.579   6.489  14.520  0.00  0.00    +0.000 HD
ENDBRANCH  20  22
ENDBRANCH  19  20
ENDBRANCH  17  19
ENDBRANCH   1  17
BRANCH   4  24
ATOM     24  N   UNL     1       3.241   4.066  21.043  0.00  0.00    +0.000 N 
ATOM     25  H   UNL     1       3.668   4.440  21.897  0.00  0.00    +0.000 HD
BRANCH  24  26
ATOM     26  C   UNL     1       2.744   2.694  21.059  0.00  0.00    +0.000 C 
BRANCH  26  27
ATOM     27  C   UNL     1       1.213   2.642  21.245  0.00  0.00    +0.000 C 
BRANCH  27  28
ATOM     28  N   UNL     1       0.409   3.098  20.103  0.00  0.00    +0.000 NA
ATOM     29  C   UNL     1       0.858   2.520  18.844  0.00  0.00    +0.000 C 
ATOM     30  H   UNL     1       0.471   4.115  20.040  0.00  0.00    +0.000 HD
ENDBRANCH  27  28
ENDBRANCH  26  27
ENDBRANCH  24  26
ENDBRANCH   4  24
BRANCH  10  31
ATOM     31  O   UNL     1       2.277  10.479  17.132  0.00  0.00    +0.000 OA
ATOM     32  H   UNL     1       2.527   9.776  16.491  0.00  0.00    +0.000 HD
ENDBRANCH  10  31
BRANCH  13  33
ATOM     33  O   UNL     1       0.394   8.310  21.827  0.00  0.00    +0.000 OA
ATOM     34  H   UNL     1       0.882   8.699  22.577  0.00  0.00    +0.000 HD
ENDBRANCH  13  33
TORSDOF 10
ENDMDL
MODEL 3
REMARK VINA RESULT:      -6.6      0.905      1.263
REMARK  Name = 
REMARK  12 active torsions:
REMARK  status: ('A' for Active; 'I' for Inactive)
REMARK    1  A    between atoms: C_1  and  N_2
REMARK    2  A    between atoms: N_2  and  C_3
REMARK    3  A    between atoms: C_3  and  C_4
REMARK    4  A    between atoms: C_4  and  N_5
REMARK    5  A    between atoms: N_5  and  C_6
REMARK    6  A    between atoms: C_9  and  N_10
REMARK    7  A    between atoms: N_10  and  C_11
REMARK    8  A    between atoms: C_11  and  C_12
REMARK    9  A    between atoms: C_12  and  N_13
REMARK   10  A    between atoms: N_13  and  C_14
REMARK   11  A    between atoms: C_20  and  O_21
REMARK   12  A    between atoms: C_24  and  O_25
REMARK                            x       y       z     vdW  Elec       q    Type
REMARK                         _______ _______ _______ _____ _____    ______ ____
ROOT
ATOM      1  C   UNL     1       4.266   6.078  17.882  0.00  0.00    +0.000 A 
ATOM      2  C   UNL     1       4.681   4.861  18.430  0.00  0.00    +0.000 A 
ATOM      3  C   UNL     1       4.093   4.333  19.571  0.00  0.00    +0.000 A 
ATOM      4  C   UNL     1       3.068   5.002  20.236  0.00  0.00    +0.000 A 
ATOM      5  C   UNL     1       2.615   6.237  19.709  0.00  0.00    +0.000 A 
ATOM      6  C   UNL     1       3.218   6.771  18.550  0.00  0.00    +0.000 A 
ATOM      7  C   UNL     1       2.726   8.072  18.033  0.00  0.00    +0.000 C 
ATOM      8  O   UNL     1       3.028   8.472  16.908  0.00  0.00    +0.000 OA
ATOM      9  C   UNL     1       1.850   8.923  18.861  0.00  0.00    +0.000 A 
ATOM     10  C   UNL     1       1.594  10.253  18.478  0.00  0.00    +0.000 A 
ATOM     11  C   UNL     1       0.760  11.072  19.233  0.00  0.00    +0.000 A 
ATOM     12  C   UNL     1       0.164  10.567  20.383  0.00  0.00    +0.000 A 
ATOM     13  C   UNL     1       0.414   9.246  20.774  0.00  0.00    +0.000 A 
ATOM     14  C   UNL     1       1.258   8.409  20.017  0.00  0.00    +0.000 A 
ATOM     15  C   UNL     1       1.515   6.990  20.380  0.00  0.00    +0.000 C 
ATOM     16  O   UNL     1       0.822   6.419  21.215  0.00  0.00    +0.000 OA
ENDROOT
BRANCH   1  17
ATOM     17  N   UNL     1       4.972   6.647  16.808  0.00  0.00    +0.000 N 
ATOM     18  H   UNL     1       4.546   6.414  15.906  0.00  0.00    +0.000 HD
BRANCH  17  19
ATOM     19  C   UNL     1       6.434   6.685  16.836  0.00  0.00    +0.000 C 
BRANCH  19  20
ATOM     20  C   UNL     1       7.068   5.652  15.891  0.00  0.00    +0.000 C 
BRANCH  20  22
ATOM     21  C   UNL     1       6.219   3.960  14.391  0.00  0.00    +0.000 C 
ATOM     22  N   UNL     1       6.155   5.363  14.772  0.00  0.00    +0.000 NA
ATOM     23  H   UNL     1       5.199   5.588  15.050  0.00  0.00    +0.000 HD
ENDBRANCH  20  22
ENDBRANCH  19  20
ENDBRANCH  17  19
ENDBRANCH   1  17
BRANCH   4  24
ATOM     24  N   UNL     1       2.533   4.431  21.390  0.00  0.00    +0.000 N 
ATOM     25  H   UNL     1       2.959   4.753  22.265  0.00  0.00    +0.000 HD
BRANCH  24  26
ATOM     26  C   UNL     1       1.902   3.116  21.366  0.00  0.00    +0.000 C 
BRANCH  26  27
ATOM     27  C   UNL     1       1.073   2.903  20.082  0.00  0.00    +0.000 C 
BRANCH  27  28
ATOM     28  N   UNL     1       1.505   1.801  19.211  0.00  0.00    +0.000 NA
ATOM     29  C   UNL     1       2.001   2.274  17.926  0.00  0.00    +0.000 C 
ATOM     30  H   UNL     1       0.714   1.176  19.051  0.00  0.00    +0.000 HD
ENDBRANCH  27  28
ENDBRANCH  26  27
ENDBRANCH  24  26
ENDBRANCH   4  24
BRANCH  10  31
ATOM     31  O   UNL     1       2.131  10.830  17.357  0.00  0.00    +0.000 OA
ATOM     32  H   UNL     1       3.099  10.923  17.500  0.00  0.00    +0.000 HD
ENDBRANCH  10  31
BRANCH  13  33
ATOM     33  O   UNL     1      -0.170   8.805  21.930  0.00  0.00    +0.000 OA
ATOM     34  H   UNL     1      -1.136   8.732  21.819  0.00  0.00    +0.000 HD
ENDBRANCH  13  33
TORSDOF 10
ENDMDL
MODEL 4
REMARK VINA RESULT:      -6.5      2.736      5.691
REMARK  Name = 
REMARK  12 active torsions:
REMARK  status: ('A' for Active; 'I' for Inactive)
REMARK    1  A    between atoms: C_1  and  N_2
REMARK    2  A    between atoms: N_2  and  C_3
REMARK    3  A    between atoms: C_3  and  C_4
REMARK    4  A    between atoms: C_4  and  N_5
REMARK    5  A    between atoms: N_5  and  C_6
REMARK    6  A    between atoms: C_9  and  N_10
REMARK    7  A    between atoms: N_10  and  C_11
REMARK    8  A    between atoms: C_11  and  C_12
REMARK    9  A    between atoms: C_12  and  N_13
REMARK   10  A    between atoms: N_13  and  C_14
REMARK   11  A    between atoms: C_20  and  O_21
REMARK   12  A    between atoms: C_24  and  O_25
REMARK                            x       y       z     vdW  Elec       q    Type
REMARK                         _______ _______ _______ _____ _____    ______ ____
ROOT
ATOM      1  C   UNL     1       5.703   5.985  17.194  0.00  0.00    +0.000 A 
ATOM      2  C   UNL     1       5.400   7.133  16.456  0.00  0.00    +0.000 A 
ATOM      3  C   UNL     1       4.215   7.831  16.643  0.00  0.00    +0.000 A 
ATOM      4  C   UNL     1       3.261   7.410  17.567  0.00  0.00    +0.000 A 
ATOM      5  C   UNL     1       3.533   6.253  18.337  0.00  0.00    +0.000 A 
ATOM      6  C   UNL     1       4.738   5.545  18.143  0.00  0.00    +0.000 A 
ATOM      7  C   UNL     1       4.985   4.331  18.959  0.00  0.00    +0.000 C 
ATOM      8  O   UNL     1       6.099   3.812  19.020  0.00  0.00    +0.000 OA
ATOM      9  C   UNL     1       3.888   3.713  19.731  0.00  0.00    +0.000 A 
ATOM     10  C   UNL     1       4.057   2.434  20.295  0.00  0.00    +0.000 A 
ATOM     11  C   UNL     1       3.045   1.836  21.038  0.00  0.00    +0.000 A 
ATOM     12  C   UNL     1       1.847   2.514  21.234  0.00  0.00    +0.000 A 
ATOM     13  C   UNL     1       1.668   3.785  20.676  0.00  0.00    +0.000 A 
ATOM     14  C   UNL     1       2.687   4.400  19.919  0.00  0.00    +0.000 A 
ATOM     15  C   UNL     1       2.547   5.764  19.345  0.00  0.00    +0.000 C 
ATOM     16  O   UNL     1       1.638   6.506  19.702  0.00  0.00    +0.000 OA
ENDROOT
BRANCH   1  17
ATOM     17  N   UNL     1       6.846   5.227  16.885  0.00  0.00    +0.000 N 
ATOM     18  H   UNL     1       7.664   5.537  17.419  0.00  0.00    +0.000 HD
BRANCH  17  19
ATOM     19  C   UNL     1       7.099   4.822  15.502  0.00  0.00    +0.000 C 
BRANCH  19  20
ATOM     20  C   UNL     1       6.033   3.852  14.968  0.00  0.00    +0.000 C 
BRANCH  20  22
ATOM     21  C   UNL     1       5.366   3.580  12.663  0.00  0.00    +0.000 C 
ATOM     22  N   UNL     1       6.423   3.354  13.638  0.00  0.00    +0.000 NA
ATOM     23  H   UNL     1       7.267   3.839  13.331  0.00  0.00    +0.000 HD
ENDBRANCH  20  22
ENDBRANCH  19  20
ENDBRANCH  17  19
ENDBRANCH   1  17
BRANCH   4  24
ATOM     24  N   UNL     1       2.081   8.142  17.692  0.00  0.00    +0.000 N 
ATOM     25  H   UNL     1       1.271   7.735  17.213  0.00  0.00    +0.000 HD
BRANCH  24  26
ATOM     26  C   UNL     1       2.100   9.582  17.927  0.00  0.00    +0.000 C 
BRANCH  26  27
ATOM     27  C   UNL     1       0.808  10.066  18.617  0.00  0.00    +0.000 C 
BRANCH  27  28
ATOM     28  N   UNL     1      -0.362  10.242  17.745  0.00  0.00    +0.000 NA
ATOM     29  C   UNL     1      -1.540  10.678  18.481  0.00  0.00    +0.000 C 
ATOM     30  H   UNL     1      -0.569   9.354  17.285  0.00  0.00    +0.000 HD
ENDBRANCH  27  28
ENDBRANCH  26  27
ENDBRANCH  24  26
ENDBRANCH   4  24
BRANCH  10  31
ATOM     31  O   UNL     1       5.205   1.699  20.160  0.00  0.00    +0.000 OA
ATOM     32  H   UNL     1       5.286   1.117  20.948  0.00  0.00    +0.000 HD
ENDBRANCH  10  31
BRANCH  13  33
ATOM     33  O   UNL     1       0.461   4.399  20.870  0.00  0.00    +0.000 OA
ATOM     34  H   UNL     1      -0.189   3.770  21.233  0.00  0.00    +0.000 HD
ENDBRANCH  13  33
TORSDOF 10
ENDMDL
MODEL 5
REMARK VINA RESULT:      -6.3      7.800     10.728
REMARK  Name = 
REMARK  12 active torsions:
REMARK  status: ('A' for Active; 'I' for Inactive)
REMARK    1  A    between atoms: C_1  and  N_2
REMARK    2  A    between atoms: N_2  and  C_3
REMARK    3  A    between atoms: C_3  and  C_4
REMARK    4  A    between atoms: C_4  and  N_5
REMARK    5  A    between atoms: N_5  and  C_6
REMARK    6  A    between atoms: C_9  and  N_10
REMARK    7  A    between atoms: N_10  and  C_11
REMARK    8  A    between atoms: C_11  and  C_12
REMARK    9  A    between atoms: C_12  and  N_13
REMARK   10  A    between atoms: N_13  and  C_14
REMARK   11  A    between atoms: C_20  and  O_21
REMARK   12  A    between atoms: C_24  and  O_25
REMARK                            x       y       z     vdW  Elec       q    Type
REMARK                         _______ _______ _______ _____ _____    ______ ____
ROOT
ATOM      1  C   UNL     1       9.846  11.083  18.766  0.00  0.00    +0.000 A 
ATOM      2  C   UNL     1      10.395  11.453  17.536  0.00  0.00    +0.000 A 
ATOM      3  C   UNL     1      10.982  12.695  17.339  0.00  0.00    +0.000 A 
ATOM      4  C   UNL     1      11.036  13.643  18.360  0.00  0.00    +0.000 A 
ATOM      5  C   UNL     1      10.493  13.305  19.623  0.00  0.00    +0.000 A 
ATOM      6  C   UNL     1       9.895  12.041  19.818  0.00  0.00    +0.000 A 
ATOM      7  C   UNL     1       9.326  11.725  21.151  0.00  0.00    +0.000 C 
ATOM      8  O   UNL     1       9.017  10.575  21.462  0.00  0.00    +0.000 OA
ATOM      9  C   UNL     1       9.121  12.794  22.149  0.00  0.00    +0.000 A 
ATOM     10  C   UNL     1       8.357  12.542  23.304  0.00  0.00    +0.000 A 
ATOM     11  C   UNL     1       8.160  13.527  24.266  0.00  0.00    +0.000 A 
ATOM     12  C   UNL     1       8.733  14.781  24.088  0.00  0.00    +0.000 A 
ATOM     13  C   UNL     1       9.493  15.043  22.942  0.00  0.00    +0.000 A 
ATOM     14  C   UNL     1       9.697  14.052  21.960  0.00  0.00    +0.000 A 
ATOM     15  C   UNL     1      10.530  14.282  20.751  0.00  0.00    +0.000 C 
ATOM     16  O   UNL     1      11.268  15.259  20.672  0.00  0.00    +0.000 OA
ENDROOT
BRANCH   1  17
ATOM     17  N   UNL     1       9.140   9.874  18.891  0.00  0.00    +0.000 N 
ATOM     18  H   UNL     1       9.754   9.103  19.175  0.00  0.00    +0.000 HD
BRANCH  17  19
ATOM     19  C   UNL     1       8.094   9.538  17.926  0.00  0.00    +0.000 C 
BRANCH  19  20
ATOM     20  C   UNL     1       7.909   8.020  17.761  0.00  0.00    +0.000 C 
BRANCH  20  22
ATOM     21  C   UNL     1       7.920   5.950  19.005  0.00  0.00    +0.000 C 
ATOM     22  N   UNL     1       8.417   7.317  18.951  0.00  0.00    +0.000 NA
ATOM     23  H   UNL     1       9.437   7.298  18.922  0.00  0.00    +0.000 HD
ENDBRANCH  20  22
ENDBRANCH  19  20
ENDBRANCH  17  19
ENDBRANCH   1  17
BRANCH   4  24
ATOM     24  N   UNL     1      11.618  14.881  18.094  0.00  0.00    +0.000 N 
ATOM     25  H   UNL     1      12.023  15.350  18.911  0.00  0.00    +0.000 HD
BRANCH  24  26
ATOM     26  C   UNL     1      11.185  15.700  16.966  0.00  0.00    +0.000 C 
BRANCH  26  27
ATOM     27  C   UNL     1      10.761  17.113  17.416  0.00  0.00    +0.000 C 
BRANCH  27  28
ATOM     28  N   UNL     1       9.994  17.189  18.667  0.00  0.00    +0.000 NA
ATOM     29  C   UNL     1       8.575  17.418  18.433  0.00  0.00    +0.000 C 
ATOM     30  H   UNL     1      10.363  17.953  19.236  0.00  0.00    +0.000 HD
ENDBRANCH  27  28
ENDBRANCH  26  27
ENDBRANCH  24  26
ENDBRANCH   4  24
BRANCH  10  31
ATOM     31  O   UNL     1       7.763  11.335  23.564  0.00  0.00    +0.000 OA
ATOM     32  H   UNL     1       6.886  11.511  23.972  0.00  0.00    +0.000 HD
ENDBRANCH  10  31
BRANCH  13  33
ATOM     33  O   UNL     1      10.010  16.301  22.798  0.00  0.00    +0.000 OA
ATOM     34  H   UNL     1      10.207  16.693  23.668  0.00  0.00    +0.000 HD
ENDBRANCH  13  33
TORSDOF 10
ENDMDL
MODEL 6
REMARK VINA RESULT:      -6.1      2.612      5.631
REMARK  Name = 
REMARK  12 active torsions:
REMARK  status: ('A' for Active; 'I' for Inactive)
REMARK    1  A    between atoms: C_1  and  N_2
REMARK    2  A    between atoms: N_2  and  C_3
REMARK    3  A    between atoms: C_3  and  C_4
REMARK    4  A    between atoms: C_4  and  N_5
REMARK    5  A    between atoms: N_5  and  C_6
REMARK    6  A    between atoms: C_9  and  N_10
REMARK    7  A    between atoms: N_10  and  C_11
REMARK    8  A    between atoms: C_11  and  C_12
REMARK    9  A    between atoms: C_12  and  N_13
REMARK   10  A    between atoms: N_13  and  C_14
REMARK   11  A    between atoms: C_20  and  O_21
REMARK   12  A    between atoms: C_24  and  O_25
REMARK                            x       y       z     vdW  Elec       q    Type
REMARK                         _______ _______ _______ _____ _____    ______ ____
ROOT
ATOM      1  C   UNL     1       2.194   7.836  19.310  0.00  0.00    +0.000 A 
ATOM      2  C   UNL     1       1.436   7.527  20.442  0.00  0.00    +0.000 A 
ATOM      3  C   UNL     1       1.501   6.280  21.049  0.00  0.00    +0.000 A 
ATOM      4  C   UNL     1       2.316   5.268  20.546  0.00  0.00    +0.000 A 
ATOM      5  C   UNL     1       3.104   5.544  19.401  0.00  0.00    +0.000 A 
ATOM      6  C   UNL     1       3.034   6.813  18.787  0.00  0.00    +0.000 A 
ATOM      7  C   UNL     1       3.864   7.063  17.583  0.00  0.00    +0.000 C 
ATOM      8  O   UNL     1       4.039   8.200  17.147  0.00  0.00    +0.000 OA
ATOM      9  C   UNL     1       4.511   5.941  16.875  0.00  0.00    +0.000 A 
ATOM     10  C   UNL     1       5.082   6.145  15.604  0.00  0.00    +0.000 A 
ATOM     11  C   UNL     1       5.710   5.108  14.923  0.00  0.00    +0.000 A 
ATOM     12  C   UNL     1       5.783   3.849  15.508  0.00  0.00    +0.000 A 
ATOM     13  C   UNL     1       5.217   3.635  16.770  0.00  0.00    +0.000 A 
ATOM     14  C   UNL     1       4.576   4.678  17.469  0.00  0.00    +0.000 A 
ATOM     15  C   UNL     1       3.999   4.497  18.826  0.00  0.00    +0.000 C 
ATOM     16  O   UNL     1       4.262   3.503  19.494  0.00  0.00    +0.000 OA
ENDROOT
BRANCH   1  17
ATOM     17  N   UNL     1       2.003   9.059  18.643  0.00  0.00    +0.000 N 
ATOM     18  H   UNL     1       2.425   9.841  19.153  0.00  0.00    +0.000 HD
BRANCH  17  19
ATOM     19  C   UNL     1       0.727   9.337  17.984  0.00  0.00    +0.000 C 
BRANCH  19  20
ATOM     20  C   UNL     1      -0.022  10.516  18.626  0.00  0.00    +0.000 C 
BRANCH  20  22
ATOM     21  C   UNL     1      -1.858   9.978  17.152  0.00  0.00    +0.000 C 
ATOM     22  N   UNL     1      -1.029  11.045  17.691  0.00  0.00    +0.000 NA
ATOM     23  H   UNL     1      -1.626  11.713  18.181  0.00  0.00    +0.000 HD
ENDBRANCH  20  22
ENDBRANCH  19  20
ENDBRANCH  17  19
ENDBRANCH   1  17
BRANCH   4  24
ATOM     24  N   UNL     1       2.321   4.031  21.187  0.00  0.00    +0.000 N 
ATOM     25  H   UNL     1       3.251   3.623  21.325  0.00  0.00    +0.000 HD
BRANCH  24  26
ATOM     26  C   UNL     1       1.171   3.135  21.121  0.00  0.00    +0.000 C 
BRANCH  26  27
ATOM     27  C   UNL     1       0.827   2.751  19.667  0.00  0.00    +0.000 C 
BRANCH  27  28
ATOM     28  N   UNL     1       1.678   1.723  19.052  0.00  0.00    +0.000 NA
ATOM     29  C   UNL     1       1.975   2.012  17.656  0.00  0.00    +0.000 C 
ATOM     30  H   UNL     1       1.201   0.822  19.110  0.00  0.00    +0.000 HD
ENDBRANCH  27  28
ENDBRANCH  26  27
ENDBRANCH  24  26
ENDBRANCH   4  24
BRANCH  10  31
ATOM     31  O   UNL     1       5.064   7.352  14.957  0.00  0.00    +0.000 OA
ATOM     32  H   UNL     1       4.125   7.595  14.797  0.00  0.00    +0.000 HD
ENDBRANCH  10  31
BRANCH  13  33
ATOM     33  O   UNL     1       5.286   2.371  17.290  0.00  0.00    +0.000 OA
ATOM     34  H   UNL     1       5.279   1.706  16.577  0.00  0.00    +0.000 HD
ENDBRANCH  13  33
TORSDOF 10
ENDMDL
MODEL 7
REMARK VINA RESULT:      -6.1      2.937      5.766
REMARK  Name = 
REMARK  12 active torsions:
REMARK  status: ('A' for Active; 'I' for Inactive)
REMARK    1  A    between atoms: C_1  and  N_2
REMARK    2  A    between atoms: N_2  and  C_3
REMARK    3  A    between atoms: C_3  and  C_4
REMARK    4  A    between atoms: C_4  and  N_5
REMARK    5  A    between atoms: N_5  and  C_6
REMARK    6  A    between atoms: C_9  and  N_10
REMARK    7  A    between atoms: N_10  and  C_11
REMARK    8  A    between atoms: C_11  and  C_12
REMARK    9  A    between atoms: C_12  and  N_13
REMARK   10  A    between atoms: N_13  and  C_14
REMARK   11  A    between atoms: C_20  and  O_21
REMARK   12  A    between atoms: C_24  and  O_25
REMARK                            x       y       z     vdW  Elec       q    Type
REMARK                         _______ _______ _______ _____ _____    ______ ____
ROOT
ATOM      1  C   UNL     1       5.131   5.322  16.068  0.00  0.00    +0.000 A 
ATOM      2  C   UNL     1       5.229   6.655  15.660  0.00  0.00    +0.000 A 
ATOM      3  C   UNL     1       4.564   7.675  16.326  0.00  0.00    +0.000 A 
ATOM      4  C   UNL     1       3.750   7.415  17.427  0.00  0.00    +0.000 A 
ATOM      5  C   UNL     1       3.629   6.077  17.874  0.00  0.00    +0.000 A 
ATOM      6  C   UNL     1       4.306   5.042  17.193  0.00  0.00    +0.000 A 
ATOM      7  C   UNL     1       4.146   3.651  17.681  0.00  0.00    +0.000 C 
ATOM      8  O   UNL     1       4.887   2.745  17.298  0.00  0.00    +0.000 OA
ATOM      9  C   UNL     1       3.087   3.316  18.654  0.00  0.00    +0.000 A 
ATOM     10  C   UNL     1       2.776   1.970  18.921  0.00  0.00    +0.000 A 
ATOM     11  C   UNL     1       1.793   1.628  19.844  0.00  0.00    +0.000 A 
ATOM     12  C   UNL     1       1.109   2.632  20.520  0.00  0.00    +0.000 A 
ATOM     13  C   UNL     1       1.409   3.975  20.259  0.00  0.00    +0.000 A 
ATOM     14  C   UNL     1       2.403   4.332  19.325  0.00  0.00    +0.000 A 
ATOM     15  C   UNL     1       2.775   5.745  19.052  0.00  0.00    +0.000 C 
ATOM     16  O   UNL     1       2.405   6.648  19.796  0.00  0.00    +0.000 OA
ENDROOT
BRANCH   1  17
ATOM     17  N   UNL     1       5.707   4.301  15.292  0.00  0.00    +0.000 N 
ATOM     18  H   UNL     1       5.617   3.385  15.742  0.00  0.00    +0.000 HD
BRANCH  17  19
ATOM     19  C   UNL     1       6.962   4.546  14.581  0.00  0.00    +0.000 C 
BRANCH  19  20
ATOM     20  C   UNL     1       6.874   4.186  13.089  0.00  0.00    +0.000 C 
BRANCH  20  22
ATOM     21  C   UNL     1       5.062   3.241  11.802  0.00  0.00    +0.000 C 
ATOM     22  N   UNL     1       5.991   3.023  12.901  0.00  0.00    +0.000 NA
ATOM     23  H   UNL     1       6.559   2.199  12.696  0.00  0.00    +0.000 HD
ENDBRANCH  20  22
ENDBRANCH  19  20
ENDBRANCH  17  19
ENDBRANCH   1  17
BRANCH   4  24
ATOM     24  N   UNL     1       3.092   8.479  18.039  0.00  0.00    +0.000 N 
ATOM     25  H   UNL     1       3.317   8.611  19.031  0.00  0.00    +0.000 HD
BRANCH  24  26
ATOM     26  C   UNL     1       1.805   8.962  17.549  0.00  0.00    +0.000 C 
BRANCH  26  27
ATOM     27  C   UNL     1       1.043   9.757  18.630  0.00  0.00    +0.000 C 
BRANCH  27  28
ATOM     28  N   UNL     1       0.195  10.855  18.145  0.00  0.00    +0.000 NA
ATOM     29  C   UNL     1      -1.222  10.524  18.197  0.00  0.00    +0.000 C 
ATOM     30  H   UNL     1       0.449  11.067  17.179  0.00  0.00    +0.000 HD
ENDBRANCH  27  28
ENDBRANCH  26  27
ENDBRANCH  24  26
ENDBRANCH   4  24
BRANCH  10  31
ATOM     31  O   UNL     1       3.404   0.917  18.310  0.00  0.00    +0.000 OA
ATOM     32  H   UNL     1       4.370   1.007  18.470  0.00  0.00    +0.000 HD
ENDBRANCH  10  31
BRANCH  13  33
ATOM     33  O   UNL     1       0.688   4.927  20.926  0.00  0.00    +0.000 OA
ATOM     34  H   UNL     1      -0.013   4.513  21.462  0.00  0.00    +0.000 HD
ENDBRANCH  13  33
TORSDOF 10
ENDMDL
MODEL 8
REMARK VINA RESULT:      -6.1      2.456      5.414
REMARK  Name = 
REMARK  12 active torsions:
REMARK  status: ('A' for Active; 'I' for Inactive)
REMARK    1  A    between atoms: C_1  and  N_2
REMARK    2  A    between atoms: N_2  and  C_3
REMARK    3  A    between atoms: C_3  and  C_4
REMARK    4  A    between atoms: C_4  and  N_5
REMARK    5  A    between atoms: N_5  and  C_6
REMARK    6  A    between atoms: C_9  and  N_10
REMARK    7  A    between atoms: N_10  and  C_11
REMARK    8  A    between atoms: C_11  and  C_12
REMARK    9  A    between atoms: C_12  and  N_13
REMARK   10  A    between atoms: N_13  and  C_14
REMARK   11  A    between atoms: C_20  and  O_21
REMARK   12  A    between atoms: C_24  and  O_25
REMARK                            x       y       z     vdW  Elec       q    Type
REMARK                         _______ _______ _______ _____ _____    ______ ____
ROOT
ATOM      1  C   UNL     1       2.143   8.139  19.090  0.00  0.00    +0.000 A 
ATOM      2  C   UNL     1       1.362   7.937  20.231  0.00  0.00    +0.000 A 
ATOM      3  C   UNL     1       1.386   6.740  20.934  0.00  0.00    +0.000 A 
ATOM      4  C   UNL     1       2.181   5.672  20.522  0.00  0.00    +0.000 A 
ATOM      5  C   UNL     1       2.991   5.838  19.372  0.00  0.00    +0.000 A 
ATOM      6  C   UNL     1       2.962   7.057  18.660  0.00  0.00    +0.000 A 
ATOM      7  C   UNL     1       3.814   7.192  17.453  0.00  0.00    +0.000 C 
ATOM      8  O   UNL     1       4.025   8.287  16.934  0.00  0.00    +0.000 OA
ATOM      9  C   UNL     1       4.441   6.002  16.844  0.00  0.00    +0.000 A 
ATOM     10  C   UNL     1       5.034   6.093  15.571  0.00  0.00    +0.000 A 
ATOM     11  C   UNL     1       5.644   4.991  14.981  0.00  0.00    +0.000 A 
ATOM     12  C   UNL     1       5.676   3.779  15.663  0.00  0.00    +0.000 A 
ATOM     13  C   UNL     1       5.088   3.678  16.929  0.00  0.00    +0.000 A 
ATOM     14  C   UNL     1       4.465   4.788  17.535  0.00  0.00    +0.000 A 
ATOM     15  C   UNL     1       3.866   4.728  18.894  0.00  0.00    +0.000 C 
ATOM     16  O   UNL     1       4.094   3.782  19.641  0.00  0.00    +0.000 OA
ENDROOT
BRANCH   1  17
ATOM     17  N   UNL     1       1.993   9.310  18.328  0.00  0.00    +0.000 N 
ATOM     18  H   UNL     1       2.870   9.836  18.261  0.00  0.00    +0.000 HD
BRANCH  17  19
ATOM     19  C   UNL     1       0.773  10.109  18.453  0.00  0.00    +0.000 C 
BRANCH  19  20
ATOM     20  C   UNL     1       1.042  11.504  19.041  0.00  0.00    +0.000 C 
BRANCH  20  22
ATOM     21  C   UNL     1       2.661  13.146  18.325  0.00  0.00    +0.000 C 
ATOM     22  N   UNL     1       1.441  12.435  17.973  0.00  0.00    +0.000 NA
ATOM     23  H   UNL     1       1.598  11.912  17.111  0.00  0.00    +0.000 HD
ENDBRANCH  20  22
ENDBRANCH  19  20
ENDBRANCH  17  19
ENDBRANCH   1  17
BRANCH   4  24
ATOM     24  N   UNL     1       2.145   4.489  21.257  0.00  0.00    +0.000 N 
ATOM     25  H   UNL     1       3.053   4.180  21.618  0.00  0.00    +0.000 HD
BRANCH  24  26
ATOM     26  C   UNL     1       1.107   3.487  21.037  0.00  0.00    +0.000 C 
BRANCH  26  27
ATOM     27  C   UNL     1       1.708   2.099  20.731  0.00  0.00    +0.000 C 
BRANCH  27  28
ATOM     28  N   UNL     1       1.831   1.750  19.309  0.00  0.00    +0.000 NA
ATOM     29  C   UNL     1       0.918   2.514  18.470  0.00  0.00    +0.000 C 
ATOM     30  H   UNL     1       1.630   0.755  19.195  0.00  0.00    +0.000 HD
ENDBRANCH  27  28
ENDBRANCH  26  27
ENDBRANCH  24  26
ENDBRANCH   4  24
BRANCH  10  31
ATOM     31  O   UNL     1       5.056   7.246  14.832  0.00  0.00    +0.000 OA
ATOM     32  H   UNL     1       5.478   7.043  13.967  0.00  0.00    +0.000 HD
ENDBRANCH  10  31
BRANCH  13  33
ATOM     33  O   UNL     1       5.117   2.458  17.546  0.00  0.00    +0.000 OA
ATOM     34  H   UNL     1       5.485   1.780  16.950  0.00  0.00    +0.000 HD
ENDBRANCH  13  33
TORSDOF 10
ENDMDL
MODEL 9
REMARK VINA RESULT:      -6.0      5.445      8.226
REMARK  Name = 
REMARK  12 active torsions:
REMARK  status: ('A' for Active; 'I' for Inactive)
REMARK    1  A    between atoms: C_1  and  N_2
REMARK    2  A    between atoms: N_2  and  C_3
REMARK    3  A    between atoms: C_3  and  C_4
REMARK    4  A    between atoms: C_4  and  N_5
REMARK    5  A    between atoms: N_5  and  C_6
REMARK    6  A    between atoms: C_9  and  N_10
REMARK    7  A    between atoms: N_10  and  C_11
REMARK    8  A    between atoms: C_11  and  C_12
REMARK    9  A    between atoms: C_12  and  N_13
REMARK   10  A    between atoms: N_13  and  C_14
REMARK   11  A    between atoms: C_20  and  O_21
REMARK   12  A    between atoms: C_24  and  O_25
REMARK                            x       y       z     vdW  Elec       q    Type
REMARK                         _______ _______ _______ _____ _____    ______ ____
ROOT
ATOM      1  C   UNL     1      -0.231  10.577  19.076  0.00  0.00    +0.000 A 
ATOM      2  C   UNL     1      -0.356   9.860  17.883  0.00  0.00    +0.000 A 
ATOM      3  C   UNL     1      -1.529   9.874  17.141  0.00  0.00    +0.000 A 
ATOM      4  C   UNL     1      -2.647  10.592  17.561  0.00  0.00    +0.000 A 
ATOM      5  C   UNL     1      -2.558  11.335  18.764  0.00  0.00    +0.000 A 
ATOM      6  C   UNL     1      -1.364  11.317  19.516  0.00  0.00    +0.000 A 
ATOM      7  C   UNL     1      -1.310  12.096  20.777  0.00  0.00    +0.000 C 
ATOM      8  O   UNL     1      -0.244  12.324  21.348  0.00  0.00    +0.000 OA
ATOM      9  C   UNL     1      -2.548  12.629  21.380  0.00  0.00    +0.000 A 
ATOM     10  C   UNL     1      -2.528  13.144  22.690  0.00  0.00    +0.000 A 
ATOM     11  C   UNL     1      -3.677  13.665  23.276  0.00  0.00    +0.000 A 
ATOM     12  C   UNL     1      -4.865  13.684  22.554  0.00  0.00    +0.000 A 
ATOM     13  C   UNL     1      -4.896  13.173  21.252  0.00  0.00    +0.000 A 
ATOM     14  C   UNL     1      -3.738  12.641  20.649  0.00  0.00    +0.000 A 
ATOM     15  C   UNL     1      -3.724  12.126  19.255  0.00  0.00    +0.000 C 
ATOM     16  O   UNL     1      -4.655  12.358  18.490  0.00  0.00    +0.000 OA
ENDROOT
BRANCH   1  17
ATOM     17  N   UNL     1       0.921  10.432  19.870  0.00  0.00    +0.000 N 
ATOM     18  H   UNL     1       1.621  11.150  19.658  0.00  0.00    +0.000 HD
BRANCH  17  19
ATOM     19  C   UNL     1       1.440   9.096  20.164  0.00  0.00    +0.000 C 
BRANCH  19  20
ATOM     20  C   UNL     1       0.998   8.583  21.544  0.00  0.00    +0.000 C 
BRANCH  20  22
ATOM     21  C   UNL     1      -0.216   9.616  23.358  0.00  0.00    +0.000 C 
ATOM     22  N   UNL     1       0.964   9.694  22.509  0.00  0.00    +0.000 NA
ATOM     23  H   UNL     1       1.798   9.656  23.097  0.00  0.00    +0.000 HD
ENDBRANCH  20  22
ENDBRANCH  19  20
ENDBRANCH  17  19
ENDBRANCH   1  17
BRANCH   4  24
ATOM     24  N   UNL     1      -3.802  10.548  16.783  0.00  0.00    +0.000 N 
ATOM     25  H   UNL     1      -4.439   9.775  17.003  0.00  0.00    +0.000 HD
BRANCH  24  26
ATOM     26  C   UNL     1      -3.839  11.118  15.440  0.00  0.00    +0.000 C 
BRANCH  26  27
ATOM     27  C   UNL     1      -3.570  10.051  14.359  0.00  0.00    +0.000 C 
BRANCH  27  28
ATOM     28  N   UNL     1      -4.706   9.714  13.490  0.00  0.00    +0.000 NA
ATOM     29  C   UNL     1      -4.369   9.810  12.076  0.00  0.00    +0.000 C 
ATOM     30  H   UNL     1      -5.477  10.352  13.690  0.00  0.00    +0.000 HD
ENDBRANCH  27  28
ENDBRANCH  26  27
ENDBRANCH  24  26
ENDBRANCH   4  24
BRANCH  10  31
ATOM     31  O   UNL     1      -1.402  13.172  23.470  0.00  0.00    +0.000 OA
ATOM     32  H   UNL     1      -1.006  12.272  23.461  0.00  0.00    +0.000 HD
ENDBRANCH  10  31
BRANCH  13  33
ATOM     33  O   UNL     1      -6.095  13.185  20.594  0.00  0.00    +0.000 OA
ATOM     34  H   UNL     1      -6.612  12.386  20.806  0.00  0.00    +0.000 HD
ENDBRANCH  13  33
TORSDOF 10
ENDMDL
