MODEL 1
REMARK VINA RESULT:     -10.1      0.000      0.000
REMARK  Name = 
REMARK  8 active torsions:
REMARK  status: ('A' for Active; 'I' for Inactive)
REMARK    1  A    between atoms: C_1  and  C_2
REMARK    2  A    between atoms: C_4  and  C_5
REMARK    3  A    between atoms: C_5  and  O_6
REMARK    4  A    between atoms: O_6  and  C_7
REMARK    5  A    between atoms: C_18  and  O_19
REMARK    6  A    between atoms: O_19  and  C_20
REMARK    7  A    between atoms: C_20  and  C_21
REMARK    8  A    between atoms: N_35  and  C_36
REMARK                            x       y       z     vdW  Elec       q    Type
REMARK                         _______ _______ _______ _____ _____    ______ ____
ROOT
ATOM      1  C   UNL     1       2.538   5.011  19.424  0.00  0.00    +0.000 A 
ATOM      2  C   UNL     1       1.944   5.339  20.634  0.00  0.00    +0.000 A 
ATOM      3  C   UNL     1       1.478   6.642  20.921  0.00  0.00    +0.000 A 
ATOM      4  C   UNL     1       1.623   7.692  20.001  0.00  0.00    +0.000 A 
ATOM      5  C   UNL     1       2.196   7.325  18.765  0.00  0.00    +0.000 A 
ATOM      6  C   UNL     1       2.668   6.011  18.480  0.00  0.00    +0.000 A 
ATOM      7  C   UNL     1       2.418   8.328  17.679  0.00  0.00    +0.000 C 
ATOM      8  C   UNL     1       1.926   9.722  17.973  0.00  0.00    +0.000 C 
ATOM      9  N   UNL     1       1.251  10.006  19.215  0.00  0.00    +0.000 N 
ATOM     10  C   UNL     1       1.116   9.070  20.262  0.00  0.00    +0.000 A 
ATOM     11  C   UNL     1       0.556   9.431  21.413  0.00  0.00    +0.000 A 
ATOM     12  C   UNL     1       0.108  10.809  21.678  0.00  0.00    +0.000 A 
ATOM     13  C   UNL     1       0.261  11.683  20.683  0.00  0.00    +0.000 A 
ATOM     14  C   UNL     1       0.868  11.326  19.381  0.00  0.00    +0.000 A 
ATOM     15  O   UNL     1       1.021  12.191  18.519  0.00  0.00    +0.000 OA
ENDROOT
BRANCH   1  16
ATOM     16  O   UNL     1       3.067   3.793  19.112  0.00  0.00    +0.000 OA
BRANCH  16  17
ATOM     17  C   UNL     1       4.407   3.557  19.554  0.00  0.00    +0.000 C 
BRANCH  17  21
ATOM     18  C   UNL     1       7.963   6.961  18.183  0.00  0.00    +0.000 C 
ATOM     19  C   UNL     1       6.951   5.886  18.249  0.00  0.00    +0.000 A 
ATOM     20  C   UNL     1       6.196   5.429  19.306  0.00  0.00    +0.000 A 
ATOM     21  C   UNL     1       5.405   4.379  18.783  0.00  0.00    +0.000 A 
ATOM     22  N   UNL     1       5.647   4.203  17.473  0.00  0.00    +0.000 NA
ATOM     23  N   UNL     1       6.580   5.126  17.171  0.00  0.00    +0.000 N 
ATOM     24  C   UNL     1       7.057   5.245  15.813  0.00  0.00    +0.000 C 
ENDBRANCH  17  21
ENDBRANCH  16  17
ENDBRANCH   1  16
BRANCH  12  25
ATOM     25  O   UNL     1      -0.422  11.079  22.975  0.00  0.00    +0.000 OA
BRANCH  25  26
ATOM     26  C   UNL     1      -1.277  12.291  23.144  0.00  0.00    +0.000 C 
BRANCH  26  27
ATOM     27  C   UNL     1      -3.028  12.146  23.454  0.00  0.00    +0.000 C 
ATOM     28  C   UNL     1      -3.452  12.863  22.262  0.00  0.00    +0.000 C 
ATOM     29  O   UNL     1      -4.704  12.242  22.219  0.00  0.00    +0.000 OA
ATOM     30  C   UNL     1      -5.472  13.314  22.424  0.00  0.00    +0.000 A 
ATOM     31  N   UNL     1      -5.782  13.755  21.130  0.00  0.00    +0.000 NA
ATOM     32  C   UNL     1      -6.886  14.380  20.852  0.00  0.00    +0.000 A 
ATOM     33  C   UNL     1      -7.767  14.376  21.848  0.00  0.00    +0.000 A 
ATOM     34  C   UNL     1      -7.145  14.047  23.236  0.00  0.00    +0.000 A 
ATOM     35  C   UNL     1      -5.814  13.527  23.767  0.00  0.00    +0.000 A 
ATOM     36  O   UNL     1      -4.393  12.983  24.281  0.00  0.00    +0.000 OA
ENDBRANCH  26  27
ENDBRANCH  25  26
ENDBRANCH  12  25
TORSDOF 6
ENDMDL
MODEL 2
REMARK VINA RESULT:      -9.8      1.316      1.585
REMARK  Name = 
REMARK  8 active torsions:
REMARK  status: ('A' for Active; 'I' for Inactive)
REMARK    1  A    between atoms: C_1  and  C_2
REMARK    2  A    between atoms: C_4  and  C_5
REMARK    3  A    between atoms: C_5  and  O_6
REMARK    4  A    between atoms: O_6  and  C_7
REMARK    5  A    between atoms: C_18  and  O_19
REMARK    6  A    between atoms: O_19  and  C_20
REMARK    7  A    between atoms: C_20  and  C_21
REMARK    8  A    between atoms: N_35  and  C_36
REMARK                            x       y       z     vdW  Elec       q    Type
REMARK                         _______ _______ _______ _____ _____    ______ ____
ROOT
ATOM      1  C   UNL     1       2.480   4.987  19.365  0.00  0.00    +0.000 A 
ATOM      2  C   UNL     1       1.927   5.343  20.588  0.00  0.00    +0.000 A 
ATOM      3  C   UNL     1       1.509   6.660  20.876  0.00  0.00    +0.000 A 
ATOM      4  C   UNL     1       1.661   7.699  19.944  0.00  0.00    +0.000 A 
ATOM      5  C   UNL     1       2.189   7.306  18.696  0.00  0.00    +0.000 A 
ATOM      6  C   UNL     1       2.614   5.976  18.410  0.00  0.00    +0.000 A 
ATOM      7  C   UNL     1       2.413   8.294  17.597  0.00  0.00    +0.000 C 
ATOM      8  C   UNL     1       1.970   9.704  17.893  0.00  0.00    +0.000 C 
ATOM      9  N   UNL     1       1.338  10.018  19.149  0.00  0.00    +0.000 N 
ATOM     10  C   UNL     1       1.202   9.094  20.207  0.00  0.00    +0.000 A 
ATOM     11  C   UNL     1       0.685   9.480  21.370  0.00  0.00    +0.000 A 
ATOM     12  C   UNL     1       0.285  10.872  21.635  0.00  0.00    +0.000 A 
ATOM     13  C   UNL     1       0.438  11.734  20.630  0.00  0.00    +0.000 A 
ATOM     14  C   UNL     1       0.999  11.349  19.314  0.00  0.00    +0.000 A 
ATOM     15  O   UNL     1       1.155  12.203  18.442  0.00  0.00    +0.000 OA
ENDROOT
BRANCH   1  16
ATOM     16  O   UNL     1       2.963   3.752  19.049  0.00  0.00    +0.000 OA
BRANCH  16  17
ATOM     17  C   UNL     1       4.296   3.467  19.486  0.00  0.00    +0.000 C 
BRANCH  17  21
ATOM     18  C   UNL     1       7.908   6.857  18.229  0.00  0.00    +0.000 C 
ATOM     19  C   UNL     1       6.885   5.791  18.261  0.00  0.00    +0.000 A 
ATOM     20  C   UNL     1       6.106   5.326  19.296  0.00  0.00    +0.000 A 
ATOM     21  C   UNL     1       5.316   4.291  18.744  0.00  0.00    +0.000 A 
ATOM     22  N   UNL     1       5.582   4.130  17.437  0.00  0.00    +0.000 NA
ATOM     23  N   UNL     1       6.528   5.048  17.166  0.00  0.00    +0.000 N 
ATOM     24  C   UNL     1       7.033   5.181  15.818  0.00  0.00    +0.000 C 
ENDBRANCH  17  21
ENDBRANCH  16  17
ENDBRANCH   1  16
BRANCH  12  25
ATOM     25  O   UNL     1      -0.202  11.168  22.943  0.00  0.00    +0.000 OA
BRANCH  25  26
ATOM     26  C   UNL     1      -1.659  10.974  23.209  0.00  0.00    +0.000 C 
BRANCH  26  27
ATOM     27  C   UNL     1      -2.863  12.166  22.651  0.00  0.00    +0.000 C 
ATOM     28  C   UNL     1      -2.556  13.172  23.655  0.00  0.00    +0.000 C 
ATOM     29  O   UNL     1      -3.030  14.231  22.875  0.00  0.00    +0.000 OA
ATOM     30  C   UNL     1      -4.048  14.616  23.646  0.00  0.00    +0.000 A 
ATOM     31  N   UNL     1      -3.495  15.618  24.454  0.00  0.00    +0.000 NA
ATOM     32  C   UNL     1      -4.199  16.601  24.927  0.00  0.00    +0.000 A 
ATOM     33  C   UNL     1      -5.423  16.677  24.412  0.00  0.00    +0.000 A 
ATOM     34  C   UNL     1      -5.900  15.363  23.730  0.00  0.00    +0.000 A 
ATOM     35  C   UNL     1      -5.278  14.037  23.305  0.00  0.00    +0.000 A 
ATOM     36  O   UNL     1      -4.582  12.654  22.879  0.00  0.00    +0.000 OA
ENDBRANCH  26  27
ENDBRANCH  25  26
ENDBRANCH  12  25
TORSDOF 6
ENDMDL
MODEL 3
REMARK VINA RESULT:      -9.4      2.220      2.796
REMARK  Name = 
REMARK  8 active torsions:
REMARK  status: ('A' for Active; 'I' for Inactive)
REMARK    1  A    between atoms: C_1  and  C_2
REMARK    2  A    between atoms: C_4  and  C_5
REMARK    3  A    between atoms: C_5  and  O_6
REMARK    4  A    between atoms: O_6  and  C_7
REMARK    5  A    between atoms: C_18  and  O_19
REMARK    6  A    between atoms: O_19  and  C_20
REMARK    7  A    between atoms: C_20  and  C_21
REMARK    8  A    between atoms: N_35  and  C_36
REMARK                            x       y       z     vdW  Elec       q    Type
REMARK                         _______ _______ _______ _____ _____    ______ ____
ROOT
ATOM      1  C   UNL     1       2.573   4.869  19.303  0.00  0.00    +0.000 A 
ATOM      2  C   UNL     1       1.995   5.177  20.527  0.00  0.00    +0.000 A 
ATOM      3  C   UNL     1       1.543   6.476  20.847  0.00  0.00    +0.000 A 
ATOM      4  C   UNL     1       1.686   7.545  19.948  0.00  0.00    +0.000 A 
ATOM      5  C   UNL     1       2.242   7.200  18.698  0.00  0.00    +0.000 A 
ATOM      6  C   UNL     1       2.700   5.889  18.379  0.00  0.00    +0.000 A 
ATOM      7  C   UNL     1       2.460   8.224  17.631  0.00  0.00    +0.000 C 
ATOM      8  C   UNL     1       1.982   9.615  17.961  0.00  0.00    +0.000 C 
ATOM      9  N   UNL     1       1.324   9.879  19.216  0.00  0.00    +0.000 N 
ATOM     10  C   UNL     1       1.194   8.922  20.244  0.00  0.00    +0.000 A 
ATOM     11  C   UNL     1       0.651   9.261  21.410  0.00  0.00    +0.000 A 
ATOM     12  C   UNL     1       0.216  10.637  21.709  0.00  0.00    +0.000 A 
ATOM     13  C   UNL     1       0.365  11.531  20.732  0.00  0.00    +0.000 A 
ATOM     14  C   UNL     1       0.955  11.197  19.414  0.00  0.00    +0.000 A 
ATOM     15  O   UNL     1       1.104  12.079  18.570  0.00  0.00    +0.000 OA
ENDROOT
BRANCH   1  16
ATOM     16  O   UNL     1       3.088   3.654  18.959  0.00  0.00    +0.000 OA
BRANCH  16  17
ATOM     17  C   UNL     1       4.436   3.404  19.368  0.00  0.00    +0.000 C 
BRANCH  17  21
ATOM     18  C   UNL     1       7.863   6.984  18.119  0.00  0.00    +0.000 C 
ATOM     19  C   UNL     1       6.903   5.861  18.150  0.00  0.00    +0.000 A 
ATOM     20  C   UNL     1       6.138   5.362  19.181  0.00  0.00    +0.000 A 
ATOM     21  C   UNL     1       5.417   4.278  18.630  0.00  0.00    +0.000 A 
ATOM     22  N   UNL     1       5.708   4.120  17.329  0.00  0.00    +0.000 NA
ATOM     23  N   UNL     1       6.603   5.088  17.059  0.00  0.00    +0.000 N 
ATOM     24  C   UNL     1       7.117   5.236  15.717  0.00  0.00    +0.000 C 
ENDBRANCH  17  21
ENDBRANCH  16  17
ENDBRANCH   1  16
BRANCH  12  25
ATOM     25  O   UNL     1      -0.296  10.883  23.017  0.00  0.00    +0.000 OA
BRANCH  25  26
ATOM     26  C   UNL     1      -1.467  11.801  23.150  0.00  0.00    +0.000 C 
BRANCH  26  27
ATOM     27  C   UNL     1      -1.240  13.554  23.388  0.00  0.00    +0.000 C 
ATOM     28  C   UNL     1      -1.887  13.958  22.150  0.00  0.00    +0.000 C 
ATOM     29  O   UNL     1      -2.218  15.230  22.627  0.00  0.00    +0.000 OA
ATOM     30  C   UNL     1      -1.477  15.963  21.793  0.00  0.00    +0.000 A 
ATOM     31  N   UNL     1      -2.355  16.262  20.742  0.00  0.00    +0.000 NA
ATOM     32  C   UNL     1      -2.252  17.346  20.035  0.00  0.00    +0.000 A 
ATOM     33  C   UNL     1      -1.381  18.223  20.526  0.00  0.00    +0.000 A 
ATOM     34  C   UNL     1      -0.371  17.608  21.537  0.00  0.00    +0.000 A 
ATOM     35  C   UNL     1      -0.209  16.292  22.290  0.00  0.00    +0.000 A 
ATOM     36  O   UNL     1      -0.075  14.889  23.059  0.00  0.00    +0.000 OA
ENDBRANCH  26  27
ENDBRANCH  25  26
ENDBRANCH  12  25
TORSDOF 6
ENDMDL
MODEL 4
REMARK VINA RESULT:      -9.4      1.700      2.594
REMARK  Name = 
REMARK  8 active torsions:
REMARK  status: ('A' for Active; 'I' for Inactive)
REMARK    1  A    between atoms: C_1  and  C_2
REMARK    2  A    between atoms: C_4  and  C_5
REMARK    3  A    between atoms: C_5  and  O_6
REMARK    4  A    between atoms: O_6  and  C_7
REMARK    5  A    between atoms: C_18  and  O_19
REMARK    6  A    between atoms: O_19  and  C_20
REMARK    7  A    between atoms: C_20  and  C_21
REMARK    8  A    between atoms: N_35  and  C_36
REMARK                            x       y       z     vdW  Elec       q    Type
REMARK                         _______ _______ _______ _____ _____    ______ ____
ROOT
ATOM      1  C   UNL     1       4.231   4.962  18.361  0.00  0.00    +0.000 A 
ATOM      2  C   UNL     1       3.556   4.875  19.571  0.00  0.00    +0.000 A 
ATOM      3  C   UNL     1       2.695   5.895  20.034  0.00  0.00    +0.000 A 
ATOM      4  C   UNL     1       2.499   7.078  19.303  0.00  0.00    +0.000 A 
ATOM      5  C   UNL     1       3.165   7.127  18.061  0.00  0.00    +0.000 A 
ATOM      6  C   UNL     1       4.037   6.098  17.598  0.00  0.00    +0.000 A 
ATOM      7  C   UNL     1       3.059   8.318  17.164  0.00  0.00    +0.000 C 
ATOM      8  C   UNL     1       2.143   9.413  17.648  0.00  0.00    +0.000 C 
ATOM      9  N   UNL     1       1.407   9.254  18.877  0.00  0.00    +0.000 N 
ATOM     10  C   UNL     1       1.575   8.159  19.751  0.00  0.00    +0.000 A 
ATOM     11  C   UNL     1       0.924   8.123  20.910  0.00  0.00    +0.000 A 
ATOM     12  C   UNL     1       0.055   9.222  21.364  0.00  0.00    +0.000 A 
ATOM     13  C   UNL     1      -0.076  10.256  20.533  0.00  0.00    +0.000 A 
ATOM     14  C   UNL     1       0.620  10.336  19.228  0.00  0.00    +0.000 A 
ATOM     15  O   UNL     1       0.490  11.338  18.527  0.00  0.00    +0.000 OA
ENDROOT
BRANCH   1  16
ATOM     16  O   UNL     1       5.124   4.046  17.890  0.00  0.00    +0.000 OA
BRANCH  16  17
ATOM     17  C   UNL     1       6.394   4.561  17.476  0.00  0.00    +0.000 C 
BRANCH  17  21
ATOM     18  C   UNL     1       5.941   3.430  12.513  0.00  0.00    +0.000 C 
ATOM     19  C   UNL     1       6.314   3.973  13.836  0.00  0.00    +0.000 A 
ATOM     20  C   UNL     1       5.837   3.678  15.093  0.00  0.00    +0.000 A 
ATOM     21  C   UNL     1       6.557   4.512  15.980  0.00  0.00    +0.000 A 
ATOM     22  N   UNL     1       7.440   5.273  15.311  0.00  0.00    +0.000 NA
ATOM     23  N   UNL     1       7.280   4.928  14.020  0.00  0.00    +0.000 N 
ATOM     24  C   UNL     1       8.110   5.537  13.006  0.00  0.00    +0.000 C 
ENDBRANCH  17  21
ENDBRANCH  16  17
ENDBRANCH   1  16
BRANCH  12  25
ATOM     25  O   UNL     1      -0.540   9.086  22.654  0.00  0.00    +0.000 OA
BRANCH  25  26
ATOM     26  C   UNL     1      -0.724  10.319  23.475  0.00  0.00    +0.000 C 
BRANCH  26  27
ATOM     27  C   UNL     1      -1.550  11.754  22.809  0.00  0.00    +0.000 C 
ATOM     28  C   UNL     1      -2.766  11.604  23.592  0.00  0.00    +0.000 C 
ATOM     29  O   UNL     1      -3.095  12.961  23.515  0.00  0.00    +0.000 OA
ATOM     30  C   UNL     1      -4.228  12.860  22.819  0.00  0.00    +0.000 A 
ATOM     31  N   UNL     1      -5.222  12.800  23.806  0.00  0.00    +0.000 NA
ATOM     32  C   UNL     1      -6.428  13.238  23.609  0.00  0.00    +0.000 A 
ATOM     33  C   UNL     1      -6.569  13.923  22.477  0.00  0.00    +0.000 A 
ATOM     34  C   UNL     1      -5.431  13.673  21.446  0.00  0.00    +0.000 A 
ATOM     35  C   UNL     1      -4.065  12.996  21.434  0.00  0.00    +0.000 A 
ATOM     36  O   UNL     1      -2.635  12.266  21.466  0.00  0.00    +0.000 OA
ENDBRANCH  26  27
ENDBRANCH  25  26
ENDBRANCH  12  25
TORSDOF 6
ENDMDL
MODEL 5
REMARK VINA RESULT:      -9.3      3.256      5.914
REMARK  Name = 
REMARK  8 active torsions:
REMARK  status: ('A' for Active; 'I' for Inactive)
REMARK    1  A    between atoms: C_1  and  C_2
REMARK    2  A    between atoms: C_4  and  C_5
REMARK    3  A    between atoms: C_5  and  O_6
REMARK    4  A    between atoms: O_6  and  C_7
REMARK    5  A    between atoms: C_18  and  O_19
REMARK    6  A    between atoms: O_19  and  C_20
REMARK    7  A    between atoms: C_20  and  C_21
REMARK    8  A    between atoms: N_35  and  C_36
REMARK                            x       y       z     vdW  Elec       q    Type
REMARK                         _______ _______ _______ _____ _____    ______ ____
ROOT
ATOM      1  C   UNL     1       6.384   4.636  15.876  0.00  0.00    +0.000 A 
ATOM      2  C   UNL     1       6.187   5.914  16.380  0.00  0.00    +0.000 A 
ATOM      3  C   UNL     1       5.188   6.206  17.335  0.00  0.00    +0.000 A 
ATOM      4  C   UNL     1       4.311   5.217  17.806  0.00  0.00    +0.000 A 
ATOM      5  C   UNL     1       4.555   3.920  17.308  0.00  0.00    +0.000 A 
ATOM      6  C   UNL     1       5.561   3.628  16.341  0.00  0.00    +0.000 A 
ATOM      7  C   UNL     1       3.708   2.756  17.712  0.00  0.00    +0.000 C 
ATOM      8  C   UNL     1       2.638   3.057  18.730  0.00  0.00    +0.000 C 
ATOM      9  N   UNL     1       2.511   4.383  19.281  0.00  0.00    +0.000 N 
ATOM     10  C   UNL     1       3.265   5.488  18.835  0.00  0.00    +0.000 A 
ATOM     11  C   UNL     1       3.033   6.701  19.329  0.00  0.00    +0.000 A 
ATOM     12  C   UNL     1       1.962   6.964  20.306  0.00  0.00    +0.000 A 
ATOM     13  C   UNL     1       1.247   5.911  20.701  0.00  0.00    +0.000 A 
ATOM     14  C   UNL     1       1.477   4.541  20.186  0.00  0.00    +0.000 A 
ATOM     15  O   UNL     1       0.753   3.619  20.559  0.00  0.00    +0.000 OA
ENDROOT
BRANCH   1  16
ATOM     16  O   UNL     1       7.284   4.301  14.907  0.00  0.00    +0.000 OA
BRANCH  16  17
ATOM     17  C   UNL     1       7.052   4.864  13.612  0.00  0.00    +0.000 C 
BRANCH  17  21
ATOM     18  C   UNL     1       3.398   2.698  10.772  0.00  0.00    +0.000 C 
ATOM     19  C   UNL     1       4.631   3.042  11.510  0.00  0.00    +0.000 A 
ATOM     20  C   UNL     1       4.937   4.140  12.283  0.00  0.00    +0.000 A 
ATOM     21  C   UNL     1       6.263   3.934  12.730  0.00  0.00    +0.000 A 
ATOM     22  N   UNL     1       6.748   2.768  12.270  0.00  0.00    +0.000 NA
ATOM     23  N   UNL     1       5.746   2.245  11.540  0.00  0.00    +0.000 N 
ATOM     24  C   UNL     1       5.912   0.954  10.914  0.00  0.00    +0.000 C 
ENDBRANCH  17  21
ENDBRANCH  16  17
ENDBRANCH   1  16
BRANCH  12  25
ATOM     25  O   UNL     1       1.778   8.319  20.714  0.00  0.00    +0.000 OA
BRANCH  25  26
ATOM     26  C   UNL     1       0.937   9.202  19.852  0.00  0.00    +0.000 C 
BRANCH  26  27
ATOM     27  C   UNL     1      -0.326  10.246  20.558  0.00  0.00    +0.000 C 
ATOM     28  C   UNL     1       0.504  11.435  20.666  0.00  0.00    +0.000 C 
ATOM     29  O   UNL     1      -0.583  12.313  20.635  0.00  0.00    +0.000 OA
ATOM     30  C   UNL     1      -0.464  12.832  21.858  0.00  0.00    +0.000 A 
ATOM     31  N   UNL     1       0.314  13.981  21.659  0.00  0.00    +0.000 NA
ATOM     32  C   UNL     1       0.214  15.031  22.417  0.00  0.00    +0.000 A 
ATOM     33  C   UNL     1      -0.820  14.989  23.253  0.00  0.00    +0.000 A 
ATOM     34  C   UNL     1      -1.396  13.560  23.469  0.00  0.00    +0.000 A 
ATOM     35  C   UNL     1      -1.232  12.184  22.835  0.00  0.00    +0.000 A 
ATOM     36  O   UNL     1      -1.024  10.752  22.140  0.00  0.00    +0.000 OA
ENDBRANCH  26  27
ENDBRANCH  25  26
ENDBRANCH  12  25
TORSDOF 6
ENDMDL
MODEL 6
REMARK VINA RESULT:      -9.3      2.485      3.993
REMARK  Name = 
REMARK  8 active torsions:
REMARK  status: ('A' for Active; 'I' for Inactive)
REMARK    1  A    between atoms: C_1  and  C_2
REMARK    2  A    between atoms: C_4  and  C_5
REMARK    3  A    between atoms: C_5  and  O_6
REMARK    4  A    between atoms: O_6  and  C_7
REMARK    5  A    between atoms: C_18  and  O_19
REMARK    6  A    between atoms: O_19  and  C_20
REMARK    7  A    between atoms: C_20  and  C_21
REMARK    8  A    between atoms: N_35  and  C_36
REMARK                            x       y       z     vdW  Elec       q    Type
REMARK                         _______ _______ _______ _____ _____    ______ ____
ROOT
ATOM      1  C   UNL     1       3.954   5.658  17.851  0.00  0.00    +0.000 A 
ATOM      2  C   UNL     1       3.816   6.868  17.187  0.00  0.00    +0.000 A 
ATOM      3  C   UNL     1       3.013   7.919  17.684  0.00  0.00    +0.000 A 
ATOM      4  C   UNL     1       2.277   7.781  18.872  0.00  0.00    +0.000 A 
ATOM      5  C   UNL     1       2.462   6.557  19.547  0.00  0.00    +0.000 A 
ATOM      6  C   UNL     1       3.270   5.497  19.041  0.00  0.00    +0.000 A 
ATOM      7  C   UNL     1       1.749   6.254  20.826  0.00  0.00    +0.000 C 
ATOM      8  C   UNL     1       0.889   7.368  21.366  0.00  0.00    +0.000 C 
ATOM      9  N   UNL     1       0.827   8.635  20.683  0.00  0.00    +0.000 N 
ATOM     10  C   UNL     1       1.444   8.881  19.438  0.00  0.00    +0.000 A 
ATOM     11  C   UNL     1       1.272  10.049  18.825  0.00  0.00    +0.000 A 
ATOM     12  C   UNL     1       0.404  11.107  19.369  0.00  0.00    +0.000 A 
ATOM     13  C   UNL     1      -0.185  10.849  20.536  0.00  0.00    +0.000 A 
ATOM     14  C   UNL     1      -0.015   9.568  21.260  0.00  0.00    +0.000 A 
ATOM     15  O   UNL     1      -0.621   9.376  22.314  0.00  0.00    +0.000 OA
ENDROOT
BRANCH   1  16
ATOM     16  O   UNL     1       4.658   4.583  17.392  0.00  0.00    +0.000 OA
BRANCH  16  17
ATOM     17  C   UNL     1       6.045   4.809  17.124  0.00  0.00    +0.000 C 
BRANCH  17  21
ATOM     18  C   UNL     1       6.117   3.340  12.229  0.00  0.00    +0.000 C 
ATOM     19  C   UNL     1       6.348   3.976  13.543  0.00  0.00    +0.000 A 
ATOM     20  C   UNL     1       5.743   3.761  14.762  0.00  0.00    +0.000 A 
ATOM     21  C   UNL     1       6.363   4.662  15.659  0.00  0.00    +0.000 A 
ATOM     22  N   UNL     1       7.307   5.386  15.035  0.00  0.00    +0.000 NA
ATOM     23  N   UNL     1       7.283   4.953  13.761  0.00  0.00    +0.000 N 
ATOM     24  C   UNL     1       8.211   5.502  12.799  0.00  0.00    +0.000 C 
ENDBRANCH  17  21
ENDBRANCH  16  17
ENDBRANCH   1  16
BRANCH  12  25
ATOM     25  O   UNL     1       0.258  12.291  18.585  0.00  0.00    +0.000 OA
BRANCH  25  26
ATOM     26  C   UNL     1       0.471  13.607  19.256  0.00  0.00    +0.000 C 
BRANCH  26  27
ATOM     27  C   UNL     1      -0.857  14.425  20.122  0.00  0.00    +0.000 C 
ATOM     28  C   UNL     1      -0.204  14.439  21.421  0.00  0.00    +0.000 C 
ATOM     29  O   UNL     1      -0.934  15.539  21.882  0.00  0.00    +0.000 OA
ATOM     30  C   UNL     1      -1.598  14.944  22.875  0.00  0.00    +0.000 A 
ATOM     31  N   UNL     1      -0.788  15.165  23.997  0.00  0.00    +0.000 NA
ATOM     32  C   UNL     1      -1.272  15.256  25.199  0.00  0.00    +0.000 A 
ATOM     33  C   UNL     1      -2.599  15.325  25.236  0.00  0.00    +0.000 A 
ATOM     34  C   UNL     1      -3.291  14.836  23.931  0.00  0.00    +0.000 A 
ATOM     35  C   UNL     1      -2.866  14.469  22.514  0.00  0.00    +0.000 A 
ATOM     36  O   UNL     1      -2.372  14.087  21.035  0.00  0.00    +0.000 OA
ENDBRANCH  26  27
ENDBRANCH  25  26
ENDBRANCH  12  25
TORSDOF 6
ENDMDL
MODEL 7
REMARK VINA RESULT:      -9.1      1.575      2.181
REMARK  Name = 
REMARK  8 active torsions:
REMARK  status: ('A' for Active; 'I' for Inactive)
REMARK    1  A    between atoms: C_1  and  C_2
REMARK    2  A    between atoms: C_4  and  C_5
REMARK    3  A    between atoms: C_5  and  O_6
REMARK    4  A    between atoms: O_6  and  C_7
REMARK    5  A    between atoms: C_18  and  O_19
REMARK    6  A    between atoms: O_19  and  C_20
REMARK    7  A    between atoms: C_20  and  C_21
REMARK    8  A    between atoms: N_35  and  C_36
REMARK                            x       y       z     vdW  Elec       q    Type
REMARK                         _______ _______ _______ _____ _____    ______ ____
ROOT
ATOM      1  C   UNL     1       2.320   5.700  19.538  0.00  0.00    +0.000 A 
ATOM      2  C   UNL     1       1.747   6.083  20.742  0.00  0.00    +0.000 A 
ATOM      3  C   UNL     1       1.329   7.409  20.994  0.00  0.00    +0.000 A 
ATOM      4  C   UNL     1       1.502   8.427  20.044  0.00  0.00    +0.000 A 
ATOM      5  C   UNL     1       2.052   8.006  18.815  0.00  0.00    +0.000 A 
ATOM      6  C   UNL     1       2.477   6.668  18.565  0.00  0.00    +0.000 A 
ATOM      7  C   UNL     1       2.301   8.969  17.699  0.00  0.00    +0.000 C 
ATOM      8  C   UNL     1       1.859  10.387  17.958  0.00  0.00    +0.000 C 
ATOM      9  N   UNL     1       1.204  10.730  19.195  0.00  0.00    +0.000 N 
ATOM     10  C   UNL     1       1.045   9.829  20.269  0.00  0.00    +0.000 A 
ATOM     11  C   UNL     1       0.508  10.241  21.414  0.00  0.00    +0.000 A 
ATOM     12  C   UNL     1       0.109  11.640  21.642  0.00  0.00    +0.000 A 
ATOM     13  C   UNL     1       0.285  12.480  20.622  0.00  0.00    +0.000 A 
ATOM     14  C   UNL     1       0.869  12.066  19.326  0.00  0.00    +0.000 A 
ATOM     15  O   UNL     1       1.044  12.900  18.440  0.00  0.00    +0.000 OA
ENDROOT
BRANCH   1  16
ATOM     16  O   UNL     1       2.804   4.456  19.256  0.00  0.00    +0.000 OA
BRANCH  16  17
ATOM     17  C   UNL     1       2.895   4.116  17.869  0.00  0.00    +0.000 C 
BRANCH  17  21
ATOM     18  C   UNL     1       6.983   4.629  14.846  0.00  0.00    +0.000 C 
ATOM     19  C   UNL     1       6.034   4.500  15.972  0.00  0.00    +0.000 A 
ATOM     20  C   UNL     1       4.666   4.341  15.978  0.00  0.00    +0.000 A 
ATOM     21  C   UNL     1       4.295   4.284  17.342  0.00  0.00    +0.000 A 
ATOM     22  N   UNL     1       5.373   4.388  18.136  0.00  0.00    +0.000 NA
ATOM     23  N   UNL     1       6.411   4.513  17.289  0.00  0.00    +0.000 N 
ATOM     24  C   UNL     1       7.755   4.616  17.811  0.00  0.00    +0.000 C 
ENDBRANCH  17  21
ENDBRANCH  16  17
ENDBRANCH   1  16
BRANCH  12  25
ATOM     25  O   UNL     1      -0.401  11.965  22.935  0.00  0.00    +0.000 OA
BRANCH  25  26
ATOM     26  C   UNL     1      -1.803  12.468  23.029  0.00  0.00    +0.000 C 
BRANCH  26  27
ATOM     27  C   UNL     1      -2.696  12.985  21.573  0.00  0.00    +0.000 C 
ATOM     28  C   UNL     1      -3.992  12.491  22.009  0.00  0.00    +0.000 C 
ATOM     29  O   UNL     1      -4.708  13.385  21.206  0.00  0.00    +0.000 OA
ATOM     30  C   UNL     1      -5.301  12.506  20.396  0.00  0.00    +0.000 A 
ATOM     31  N   UNL     1      -6.535  12.262  21.014  0.00  0.00    +0.000 NA
ATOM     32  C   UNL     1      -7.598  11.935  20.344  0.00  0.00    +0.000 A 
ATOM     33  C   UNL     1      -7.456  12.055  19.027  0.00  0.00    +0.000 A 
ATOM     34  C   UNL     1      -5.974  12.110  18.557  0.00  0.00    +0.000 A 
ATOM     35  C   UNL     1      -4.603  12.261  19.206  0.00  0.00    +0.000 A 
ATOM     36  O   UNL     1      -3.180  12.417  19.933  0.00  0.00    +0.000 OA
ENDBRANCH  26  27
ENDBRANCH  25  26
ENDBRANCH  12  25
TORSDOF 6
ENDMDL
MODEL 8
REMARK VINA RESULT:      -9.1      3.397      6.843
REMARK  Name = 
REMARK  8 active torsions:
REMARK  status: ('A' for Active; 'I' for Inactive)
REMARK    1  A    between atoms: C_1  and  C_2
REMARK    2  A    between atoms: C_4  and  C_5
REMARK    3  A    between atoms: C_5  and  O_6
REMARK    4  A    between atoms: O_6  and  C_7
REMARK    5  A    between atoms: C_18  and  O_19
REMARK    6  A    between atoms: O_19  and  C_20
REMARK    7  A    between atoms: C_20  and  C_21
REMARK    8  A    between atoms: N_35  and  C_36
REMARK                            x       y       z     vdW  Elec       q    Type
REMARK                         _______ _______ _______ _____ _____    ______ ____
ROOT
ATOM      1  C   UNL     1       2.571   7.872  18.305  0.00  0.00    +0.000 A 
ATOM      2  C   UNL     1       2.273   9.084  17.697  0.00  0.00    +0.000 A 
ATOM      3  C   UNL     1       1.524  10.092  18.344  0.00  0.00    +0.000 A 
ATOM      4  C   UNL     1       1.007   9.908  19.636  0.00  0.00    +0.000 A 
ATOM      5  C   UNL     1       1.354   8.685  20.246  0.00  0.00    +0.000 A 
ATOM      6  C   UNL     1       2.107   7.668  19.590  0.00  0.00    +0.000 A 
ATOM      7  C   UNL     1       0.881   8.336  21.621  0.00  0.00    +0.000 C 
ATOM      8  C   UNL     1       0.080   9.404  22.320  0.00  0.00    +0.000 C 
ATOM      9  N   UNL     1      -0.148  10.676  21.682  0.00  0.00    +0.000 N 
ATOM     10  C   UNL     1       0.237  10.964  20.356  0.00  0.00    +0.000 A 
ATOM     11  C   UNL     1      -0.084  12.130  19.803  0.00  0.00    +0.000 A 
ATOM     12  C   UNL     1      -0.890  13.143  20.507  0.00  0.00    +0.000 A 
ATOM     13  C   UNL     1      -1.260  12.845  21.752  0.00  0.00    +0.000 A 
ATOM     14  C   UNL     1      -0.918  11.565  22.412  0.00  0.00    +0.000 A 
ATOM     15  O   UNL     1      -1.328  11.334  23.549  0.00  0.00    +0.000 OA
ENDROOT
BRANCH   1  16
ATOM     16  O   UNL     1       3.230   6.835  17.713  0.00  0.00    +0.000 OA
BRANCH  16  17
ATOM     17  C   UNL     1       3.927   5.949  18.594  0.00  0.00    +0.000 C 
BRANCH  17  21
ATOM     18  C   UNL     1       0.540   2.129  18.834  0.00  0.00    +0.000 C 
ATOM     19  C   UNL     1       1.560   3.166  19.099  0.00  0.00    +0.000 A 
ATOM     20  C   UNL     1       2.133   4.095  18.260  0.00  0.00    +0.000 A 
ATOM     21  C   UNL     1       3.050   4.817  19.059  0.00  0.00    +0.000 A 
ATOM     22  N   UNL     1       3.037   4.369  20.326  0.00  0.00    +0.000 NA
ATOM     23  N   UNL     1       2.128   3.377  20.328  0.00  0.00    +0.000 N 
ATOM     24  C   UNL     1       1.829   2.681  21.558  0.00  0.00    +0.000 C 
ENDBRANCH  17  21
ENDBRANCH  16  17
ENDBRANCH   1  16
BRANCH  12  25
ATOM     25  O   UNL     1      -1.215  14.328  19.782  0.00  0.00    +0.000 OA
BRANCH  25  26
ATOM     26  C   UNL     1      -0.195  14.875  18.838  0.00  0.00    +0.000 C 
BRANCH  26  27
ATOM     27  C   UNL     1       1.319  15.603  19.439  0.00  0.00    +0.000 C 
ATOM     28  C   UNL     1       2.186  14.987  18.448  0.00  0.00    +0.000 C 
ATOM     29  O   UNL     1       3.166  15.979  18.551  0.00  0.00    +0.000 OA
ATOM     30  C   UNL     1       4.163  15.233  19.030  0.00  0.00    +0.000 A 
ATOM     31  N   UNL     1       4.862  14.833  17.883  0.00  0.00    +0.000 NA
ATOM     32  C   UNL     1       6.137  14.586  17.893  0.00  0.00    +0.000 A 
ATOM     33  C   UNL     1       6.741  14.943  19.024  0.00  0.00    +0.000 A 
ATOM     34  C   UNL     1       5.766  15.141  20.220  0.00  0.00    +0.000 A 
ATOM     35  C   UNL     1       4.259  15.232  20.429  0.00  0.00    +0.000 A 
ATOM     36  O   UNL     1       2.665  15.315  20.601  0.00  0.00    +0.000 OA
ENDBRANCH  26  27
ENDBRANCH  25  26
ENDBRANCH  12  25
TORSDOF 6
ENDMDL
MODEL 9
REMARK VINA RESULT:      -9.1      1.856     11.834
REMARK  Name = 
REMARK  8 active torsions:
REMARK  status: ('A' for Active; 'I' for Inactive)
REMARK    1  A    between atoms: C_1  and  C_2
REMARK    2  A    between atoms: C_4  and  C_5
REMARK    3  A    between atoms: C_5  and  O_6
REMARK    4  A    between atoms: O_6  and  C_7
REMARK    5  A    between atoms: C_18  and  O_19
REMARK    6  A    between atoms: O_19  and  C_20
REMARK    7  A    between atoms: C_20  and  C_21
REMARK    8  A    between atoms: N_35  and  C_36
REMARK                            x       y       z     vdW  Elec       q    Type
REMARK                         _______ _______ _______ _____ _____    ______ ____
ROOT
ATOM      1  C   UNL     1      -1.177  11.854  22.798  0.00  0.00    +0.000 A 
ATOM      2  C   UNL     1      -1.038  10.564  23.290  0.00  0.00    +0.000 A 
ATOM      3  C   UNL     1      -0.369   9.547  22.573  0.00  0.00    +0.000 A 
ATOM      4  C   UNL     1       0.166   9.780  21.296  0.00  0.00    +0.000 A 
ATOM      5  C   UNL     1       0.045  11.107  20.833  0.00  0.00    +0.000 A 
ATOM      6  C   UNL     1      -0.634  12.130  21.558  0.00  0.00    +0.000 A 
ATOM      7  C   UNL     1       0.563  11.517  19.493  0.00  0.00    +0.000 C 
ATOM      8  C   UNL     1       1.278  10.440  18.718  0.00  0.00    +0.000 C 
ATOM      9  N   UNL     1       1.463   9.132  19.294  0.00  0.00    +0.000 N 
ATOM     10  C   UNL     1       0.902   8.736  20.527  0.00  0.00    +0.000 A 
ATOM     11  C   UNL     1       1.043   7.484  20.955  0.00  0.00    +0.000 A 
ATOM     12  C   UNL     1       1.726   6.449  20.160  0.00  0.00    +0.000 A 
ATOM     13  C   UNL     1       2.233   6.838  18.990  0.00  0.00    +0.000 A 
ATOM     14  C   UNL     1       2.110   8.222  18.477  0.00  0.00    +0.000 A 
ATOM     15  O   UNL     1       2.563   8.505  17.369  0.00  0.00    +0.000 OA
ENDROOT
BRANCH   1  16
ATOM     16  O   UNL     1      -1.866  12.860  23.409  0.00  0.00    +0.000 OA
BRANCH  16  17
ATOM     17  C   UNL     1      -3.289  12.714  23.449  0.00  0.00    +0.000 C 
BRANCH  17  21
ATOM     18  C   UNL     1      -4.775  17.301  25.143  0.00  0.00    +0.000 C 
ATOM     19  C   UNL     1      -4.587  16.029  24.415  0.00  0.00    +0.000 A 
ATOM     20  C   UNL     1      -3.724  14.981  24.648  0.00  0.00    +0.000 A 
ATOM     21  C   UNL     1      -3.984  14.039  23.626  0.00  0.00    +0.000 A 
ATOM     22  N   UNL     1      -4.962  14.471  22.813  0.00  0.00    +0.000 NA
ATOM     23  N   UNL     1      -5.314  15.671  23.310  0.00  0.00    +0.000 N 
ATOM     24  C   UNL     1      -6.383  16.419  22.689  0.00  0.00    +0.000 C 
ENDBRANCH  17  21
ENDBRANCH  16  17
ENDBRANCH   1  16
BRANCH  12  25
ATOM     25  O   UNL     1       1.758   5.131  20.706  0.00  0.00    +0.000 OA
BRANCH  25  26
ATOM     26  C   UNL     1       3.084   4.454  20.826  0.00  0.00    +0.000 C 
BRANCH  26  27
ATOM     27  C   UNL     1       3.834   3.644  19.425  0.00  0.00    +0.000 C 
ATOM     28  C   UNL     1       4.811   4.687  19.154  0.00  0.00    +0.000 C 
ATOM     29  O   UNL     1       5.701   3.819  18.513  0.00  0.00    +0.000 OA
ATOM     30  C   UNL     1       5.663   4.351  17.290  0.00  0.00    +0.000 A 
ATOM     31  N   UNL     1       6.733   5.255  17.287  0.00  0.00    +0.000 NA
ATOM     32  C   UNL     1       7.384   5.561  16.205  0.00  0.00    +0.000 A 
ATOM     33  C   UNL     1       7.078   4.793  15.163  0.00  0.00    +0.000 A 
ATOM     34  C   UNL     1       5.732   4.030  15.319  0.00  0.00    +0.000 A 
ATOM     35  C   UNL     1       4.728   3.754  16.433  0.00  0.00    +0.000 A 
ATOM     36  O   UNL     1       3.696   3.494  17.635  0.00  0.00    +0.000 OA
ENDBRANCH  26  27
ENDBRANCH  25  26
ENDBRANCH  12  25
TORSDOF 6
ENDMDL
