MODEL 1
REMARK VINA RESULT:      -7.6      0.000      0.000
REMARK  Name = 
REMARK  6 active torsions:
REMARK  status: ('A' for Active; 'I' for Inactive)
REMARK    1  A    between atoms: C_2  and  C_10
REMARK    2  A    between atoms: N_3  and  C_4
REMARK    3  A    between atoms: C_4  and  C_5
REMARK    4  A    between atoms: N_12  and  C_13
REMARK    5  A    between atoms: N_22  and  C_23
REMARK    6  A    between atoms: C_23  and  C_24
REMARK                            x       y       z     vdW  Elec       q    Type
REMARK                         _______ _______ _______ _____ _____    ______ ____
ROOT
ATOM      1  C   UNL     1      -1.767  10.840  18.873  0.00  0.00    +0.000 A 
ATOM      2  N   UNL     1      -0.895   9.875  18.783  0.00  0.00    +0.000 NA
ATOM      3  N   UNL     1       0.216   9.955  19.592  0.00  0.00    +0.000 N 
ATOM      4  C   UNL     1       0.386  10.861  20.644  0.00  0.00    +0.000 A 
ATOM      5  O   UNL     1       1.389  10.855  21.369  0.00  0.00    +0.000 OA
ATOM      6  N   UNL     1      -0.622  11.798  20.811  0.00  0.00    +0.000 N 
ATOM      7  C   UNL     1      -1.554  12.001  19.821  0.00  0.00    +0.000 A 
ATOM      8  O   UNL     1      -2.153  13.048  19.607  0.00  0.00    +0.000 OA
ENDROOT
BRANCH   3   9
ATOM      9  C   UNL     1       1.201   8.969  19.325  0.00  0.00    +0.000 A 
ATOM     10  C   UNL     1       1.421   7.936  20.242  0.00  0.00    +0.000 A 
ATOM     11  C   UNL     1       2.370   6.948  19.971  0.00  0.00    +0.000 A 
ATOM     12  C   UNL     1       3.084   6.991  18.778  0.00  0.00    +0.000 A 
ATOM     13  F   UNL     1       3.972   6.027  18.507  0.00  0.00    +0.000 F 
ATOM     14  C   UNL     1       2.880   8.013  17.857  0.00  0.00    +0.000 A 
ATOM     15  C   UNL     1       1.944   9.011  18.135  0.00  0.00    +0.000 A 
ENDBRANCH   3   9
BRANCH   1  17
ATOM     16  O   UNL     1      -3.550   9.652  17.878  0.00  0.00    +0.000 OA
ATOM     17  C   UNL     1      -3.022  10.751  18.027  0.00  0.00    +0.000 C 
ATOM     18  N   UNL     1      -3.493  11.901  17.430  0.00  0.00    +0.000 N 
ATOM     19  H   UNL     1      -3.097  12.811  17.640  0.00  0.00    +0.000 HD
BRANCH  18  20
ATOM     20  C   UNL     1      -4.673  11.795  16.599  0.00  0.00    +0.000 C 
BRANCH  20  21
ATOM     21  C   UNL     1      -5.899  12.317  17.248  0.00  0.00    +0.000 A 
ATOM     22  C   UNL     1      -6.668  11.832  18.287  0.00  0.00    +0.000 A 
ATOM     23  C   UNL     1      -7.644  12.822  18.558  0.00  0.00    +0.000 A 
ATOM     24  C   UNL     1      -7.418  13.836  17.660  0.00  0.00    +0.000 A 
ATOM     25  O   UNL     1      -6.363  13.540  16.856  0.00  0.00    +0.000 OA
ENDBRANCH  20  21
ENDBRANCH  18  20
ENDBRANCH   1  17
BRANCH   6  26
ATOM     26  C   UNL     1      -0.387  12.856  21.785  0.00  0.00    +0.000 C 
BRANCH  26  27
ATOM     27  C   UNL     1      -1.454  13.016  22.855  0.00  0.00    +0.000 A 
ATOM     28  C   UNL     1      -1.609  14.235  23.536  0.00  0.00    +0.000 A 
ATOM     29  C   UNL     1      -2.710  14.455  24.369  0.00  0.00    +0.000 A 
ATOM     30  C   UNL     1      -3.672  13.461  24.529  0.00  0.00    +0.000 A 
ATOM     31  C   UNL     1      -3.506  12.230  23.894  0.00  0.00    +0.000 A 
ATOM     32  C   UNL     1      -2.396  12.002  23.077  0.00  0.00    +0.000 A 
ENDBRANCH  26  27
ENDBRANCH   6  26
TORSDOF 6
ENDMDL
MODEL 2
REMARK VINA RESULT:      -7.6      0.597      1.054
REMARK  Name = 
REMARK  6 active torsions:
REMARK  status: ('A' for Active; 'I' for Inactive)
REMARK    1  A    between atoms: C_2  and  C_10
REMARK    2  A    between atoms: N_3  and  C_4
REMARK    3  A    between atoms: C_4  and  C_5
REMARK    4  A    between atoms: N_12  and  C_13
REMARK    5  A    between atoms: N_22  and  C_23
REMARK    6  A    between atoms: C_23  and  C_24
REMARK                            x       y       z     vdW  Elec       q    Type
REMARK                         _______ _______ _______ _____ _____    ______ ____
ROOT
ATOM      1  C   UNL     1      -1.478  11.310  18.634  0.00  0.00    +0.000 A 
ATOM      2  N   UNL     1      -0.730  10.242  18.604  0.00  0.00    +0.000 NA
ATOM      3  N   UNL     1       0.250  10.136  19.566  0.00  0.00    +0.000 N 
ATOM      4  C   UNL     1       0.376  10.962  20.687  0.00  0.00    +0.000 A 
ATOM      5  O   UNL     1       1.251  10.788  21.544  0.00  0.00    +0.000 OA
ATOM      6  N   UNL     1      -0.521  12.016  20.772  0.00  0.00    +0.000 N 
ATOM      7  C   UNL     1      -1.264  12.387  19.677  0.00  0.00    +0.000 A 
ATOM      8  O   UNL     1      -1.689  13.513  19.449  0.00  0.00    +0.000 OA
ENDROOT
BRANCH   3   9
ATOM      9  C   UNL     1       1.133   9.040  19.376  0.00  0.00    +0.000 A 
ATOM     10  C   UNL     1       1.872   8.938  18.193  0.00  0.00    +0.000 A 
ATOM     11  C   UNL     1       2.762   7.877  18.012  0.00  0.00    +0.000 A 
ATOM     12  C   UNL     1       2.918   6.932  19.021  0.00  0.00    +0.000 A 
ATOM     13  F   UNL     1       3.793   5.932  18.859  0.00  0.00    +0.000 F 
ATOM     14  C   UNL     1       2.187   7.018  20.202  0.00  0.00    +0.000 A 
ATOM     15  C   UNL     1       1.284   8.068  20.376  0.00  0.00    +0.000 A 
ENDBRANCH   3   9
BRANCH   1  17
ATOM     16  O   UNL     1      -2.329  11.239  16.432  0.00  0.00    +0.000 OA
ATOM     17  C   UNL     1      -2.595  11.428  17.616  0.00  0.00    +0.000 C 
ATOM     18  N   UNL     1      -3.852  11.781  18.060  0.00  0.00    +0.000 N 
ATOM     19  H   UNL     1      -4.071  11.841  19.048  0.00  0.00    +0.000 HD
BRANCH  18  20
ATOM     20  C   UNL     1      -4.901  11.922  17.072  0.00  0.00    +0.000 C 
BRANCH  20  21
ATOM     21  C   UNL     1      -6.114  12.596  17.593  0.00  0.00    +0.000 A 
ATOM     22  C   UNL     1      -6.954  12.293  18.647  0.00  0.00    +0.000 A 
ATOM     23  C   UNL     1      -7.871  13.367  18.748  0.00  0.00    +0.000 A 
ATOM     24  C   UNL     1      -7.542  14.245  17.744  0.00  0.00    +0.000 A 
ATOM     25  O   UNL     1      -6.478  13.786  17.033  0.00  0.00    +0.000 OA
ENDBRANCH  20  21
ENDBRANCH  18  20
ENDBRANCH   1  17
BRANCH   6  26
ATOM     26  C   UNL     1      -0.302  12.987  21.836  0.00  0.00    +0.000 C 
BRANCH  26  27
ATOM     27  C   UNL     1      -1.406  13.087  22.875  0.00  0.00    +0.000 A 
ATOM     28  C   UNL     1      -1.598  14.271  23.605  0.00  0.00    +0.000 A 
ATOM     29  C   UNL     1      -2.729  14.442  24.410  0.00  0.00    +0.000 A 
ATOM     30  C   UNL     1      -3.683  13.430  24.492  0.00  0.00    +0.000 A 
ATOM     31  C   UNL     1      -3.482  12.232  23.808  0.00  0.00    +0.000 A 
ATOM     32  C   UNL     1      -2.342  12.053  23.020  0.00  0.00    +0.000 A 
ENDBRANCH  26  27
ENDBRANCH   6  26
TORSDOF 6
ENDMDL
MODEL 3
REMARK VINA RESULT:      -7.5      0.744      1.223
REMARK  Name = 
REMARK  6 active torsions:
REMARK  status: ('A' for Active; 'I' for Inactive)
REMARK    1  A    between atoms: C_2  and  C_10
REMARK    2  A    between atoms: N_3  and  C_4
REMARK    3  A    between atoms: C_4  and  C_5
REMARK    4  A    between atoms: N_12  and  C_13
REMARK    5  A    between atoms: N_22  and  C_23
REMARK    6  A    between atoms: C_23  and  C_24
REMARK                            x       y       z     vdW  Elec       q    Type
REMARK                         _______ _______ _______ _____ _____    ______ ____
ROOT
ATOM      1  C   UNL     1      -1.485  11.211  18.744  0.00  0.00    +0.000 A 
ATOM      2  N   UNL     1      -0.715  10.160  18.687  0.00  0.00    +0.000 NA
ATOM      3  N   UNL     1       0.249  10.034  19.661  0.00  0.00    +0.000 N 
ATOM      4  C   UNL     1       0.339  10.818  20.816  0.00  0.00    +0.000 A 
ATOM      5  O   UNL     1       1.203  10.627  21.681  0.00  0.00    +0.000 OA
ATOM      6  N   UNL     1      -0.579  11.851  20.926  0.00  0.00    +0.000 N 
ATOM      7  C   UNL     1      -1.310  12.250  19.832  0.00  0.00    +0.000 A 
ATOM      8  O   UNL     1      -1.753  13.377  19.640  0.00  0.00    +0.000 OA
ENDROOT
BRANCH   3   9
ATOM      9  C   UNL     1       1.156   8.964  19.445  0.00  0.00    +0.000 A 
ATOM     10  C   UNL     1       1.310   7.973  20.420  0.00  0.00    +0.000 A 
ATOM     11  C   UNL     1       2.181   6.903  20.201  0.00  0.00    +0.000 A 
ATOM     12  C   UNL     1       2.882   6.824  19.002  0.00  0.00    +0.000 A 
ATOM     13  F   UNL     1       3.694   5.782  18.781  0.00  0.00    +0.000 F 
ATOM     14  C   UNL     1       2.743   7.803  18.024  0.00  0.00    +0.000 A 
ATOM     15  C   UNL     1       1.886   8.882  18.249  0.00  0.00    +0.000 A 
ENDBRANCH   3   9
BRANCH   1  17
ATOM     16  O   UNL     1      -2.297  11.200  16.527  0.00  0.00    +0.000 OA
ATOM     17  C   UNL     1      -2.586  11.349  17.712  0.00  0.00    +0.000 C 
ATOM     18  N   UNL     1      -3.854  11.672  18.144  0.00  0.00    +0.000 N 
ATOM     19  H   UNL     1      -4.090  11.699  19.130  0.00  0.00    +0.000 HD
BRANCH  18  20
ATOM     20  C   UNL     1      -4.888  11.832  17.144  0.00  0.00    +0.000 C 
BRANCH  20  21
ATOM     21  C   UNL     1      -6.039  12.641  17.610  0.00  0.00    +0.000 A 
ATOM     22  C   UNL     1      -6.960  13.410  16.928  0.00  0.00    +0.000 A 
ATOM     23  C   UNL     1      -7.908  13.844  17.886  0.00  0.00    +0.000 A 
ATOM     24  C   UNL     1      -7.496  13.326  19.090  0.00  0.00    +0.000 A 
ATOM     25  O   UNL     1      -6.360  12.596  18.937  0.00  0.00    +0.000 OA
ENDBRANCH  20  21
ENDBRANCH  18  20
ENDBRANCH   1  17
BRANCH   6  26
ATOM     26  C   UNL     1      -0.398  12.784  22.031  0.00  0.00    +0.000 C 
BRANCH  26  27
ATOM     27  C   UNL     1      -1.635  13.065  22.866  0.00  0.00    +0.000 A 
ATOM     28  C   UNL     1      -2.579  12.053  23.112  0.00  0.00    +0.000 A 
ATOM     29  C   UNL     1      -3.607  12.243  24.040  0.00  0.00    +0.000 A 
ATOM     30  C   UNL     1      -3.704  13.446  24.735  0.00  0.00    +0.000 A 
ATOM     31  C   UNL     1      -2.801  14.475  24.466  0.00  0.00    +0.000 A 
ATOM     32  C   UNL     1      -1.785  14.293  23.525  0.00  0.00    +0.000 A 
ENDBRANCH  26  27
ENDBRANCH   6  26
TORSDOF 6
ENDMDL
MODEL 4
REMARK VINA RESULT:      -7.2      4.293      8.814
REMARK  Name = 
REMARK  6 active torsions:
REMARK  status: ('A' for Active; 'I' for Inactive)
REMARK    1  A    between atoms: C_2  and  C_10
REMARK    2  A    between atoms: N_3  and  C_4
REMARK    3  A    between atoms: C_4  and  C_5
REMARK    4  A    between atoms: N_12  and  C_13
REMARK    5  A    between atoms: N_22  and  C_23
REMARK    6  A    between atoms: C_23  and  C_24
REMARK                            x       y       z     vdW  Elec       q    Type
REMARK                         _______ _______ _______ _____ _____    ______ ____
ROOT
ATOM      1  C   UNL     1       1.747  12.850  20.030  0.00  0.00    +0.000 A 
ATOM      2  N   UNL     1       0.672  12.921  20.765  0.00  0.00    +0.000 NA
ATOM      3  N   UNL     1      -0.320  11.999  20.518  0.00  0.00    +0.000 N 
ATOM      4  C   UNL     1      -0.190  10.871  19.701  0.00  0.00    +0.000 A 
ATOM      5  O   UNL     1      -1.103  10.050  19.554  0.00  0.00    +0.000 OA
ATOM      6  N   UNL     1       1.017  10.739  19.030  0.00  0.00    +0.000 N 
ATOM      7  C   UNL     1       1.885  11.801  18.946  0.00  0.00    +0.000 A 
ATOM      8  O   UNL     1       2.688  11.998  18.042  0.00  0.00    +0.000 OA
ENDROOT
BRANCH   3   9
ATOM      9  C   UNL     1      -1.523  12.236  21.232  0.00  0.00    +0.000 A 
ATOM     10  C   UNL     1      -2.625  12.793  20.575  0.00  0.00    +0.000 A 
ATOM     11  C   UNL     1      -3.821  13.004  21.265  0.00  0.00    +0.000 A 
ATOM     12  C   UNL     1      -3.912  12.643  22.606  0.00  0.00    +0.000 A 
ATOM     13  F   UNL     1      -5.068  12.818  23.258  0.00  0.00    +0.000 F 
ATOM     14  C   UNL     1      -2.825  12.090  23.275  0.00  0.00    +0.000 A 
ATOM     15  C   UNL     1      -1.623  11.896  22.590  0.00  0.00    +0.000 A 
ENDBRANCH   3   9
BRANCH   1  17
ATOM     16  O   UNL     1       3.387  13.814  21.429  0.00  0.00    +0.000 OA
ATOM     17  C   UNL     1       2.873  13.824  20.313  0.00  0.00    +0.000 C 
ATOM     18  N   UNL     1       3.244  14.705  19.319  0.00  0.00    +0.000 N 
ATOM     19  H   UNL     1       2.871  14.634  18.379  0.00  0.00    +0.000 HD
BRANCH  18  20
ATOM     20  C   UNL     1       4.299  15.650  19.615  0.00  0.00    +0.000 C 
BRANCH  20  21
ATOM     21  C   UNL     1       5.625  15.234  19.100  0.00  0.00    +0.000 A 
ATOM     22  C   UNL     1       6.873  15.204  19.690  0.00  0.00    +0.000 A 
ATOM     23  C   UNL     1       7.742  14.589  18.756  0.00  0.00    +0.000 A 
ATOM     24  C   UNL     1       6.973  14.298  17.655  0.00  0.00    +0.000 A 
ATOM     25  O   UNL     1       5.686  14.689  17.850  0.00  0.00    +0.000 OA
ENDBRANCH  20  21
ENDBRANCH  18  20
ENDBRANCH   1  17
BRANCH   6  26
ATOM     26  C   UNL     1       1.112   9.670  18.044  0.00  0.00    +0.000 C 
BRANCH  26  27
ATOM     27  C   UNL     1       2.000   8.499  18.427  0.00  0.00    +0.000 A 
ATOM     28  C   UNL     1       1.793   7.806  19.631  0.00  0.00    +0.000 A 
ATOM     29  C   UNL     1       2.467   6.609  19.894  0.00  0.00    +0.000 A 
ATOM     30  C   UNL     1       3.354   6.089  18.955  0.00  0.00    +0.000 A 
ATOM     31  C   UNL     1       3.603   6.790  17.775  0.00  0.00    +0.000 A 
ATOM     32  C   UNL     1       2.945   7.996  17.521  0.00  0.00    +0.000 A 
ENDBRANCH  26  27
ENDBRANCH   6  26
TORSDOF 6
ENDMDL
MODEL 5
REMARK VINA RESULT:      -7.1      3.360      8.194
REMARK  Name = 
REMARK  6 active torsions:
REMARK  status: ('A' for Active; 'I' for Inactive)
REMARK    1  A    between atoms: C_2  and  C_10
REMARK    2  A    between atoms: N_3  and  C_4
REMARK    3  A    between atoms: C_4  and  C_5
REMARK    4  A    between atoms: N_12  and  C_13
REMARK    5  A    between atoms: N_22  and  C_23
REMARK    6  A    between atoms: C_23  and  C_24
REMARK                            x       y       z     vdW  Elec       q    Type
REMARK                         _______ _______ _______ _____ _____    ______ ____
ROOT
ATOM      1  C   UNL     1       0.160  10.519  21.271  0.00  0.00    +0.000 A 
ATOM      2  N   UNL     1      -0.466  11.181  22.204  0.00  0.00    +0.000 NA
ATOM      3  N   UNL     1      -1.251  12.238  21.805  0.00  0.00    +0.000 N 
ATOM      4  C   UNL     1      -1.601  12.532  20.483  0.00  0.00    +0.000 A 
ATOM      5  O   UNL     1      -2.350  13.472  20.189  0.00  0.00    +0.000 OA
ATOM      6  N   UNL     1      -1.031  11.728  19.508  0.00  0.00    +0.000 N 
ATOM      7  C   UNL     1       0.032  10.912  19.814  0.00  0.00    +0.000 A 
ATOM      8  O   UNL     1       0.905  10.551  19.033  0.00  0.00    +0.000 OA
ENDROOT
BRANCH   3   9
ATOM      9  C   UNL     1      -1.766  13.015  22.876  0.00  0.00    +0.000 A 
ATOM     10  C   UNL     1      -2.998  12.684  23.448  0.00  0.00    +0.000 A 
ATOM     11  C   UNL     1      -3.497  13.428  24.520  0.00  0.00    +0.000 A 
ATOM     12  C   UNL     1      -2.753  14.492  25.021  0.00  0.00    +0.000 A 
ATOM     13  F   UNL     1      -3.218  15.186  26.067  0.00  0.00    +0.000 F 
ATOM     14  C   UNL     1      -1.527  14.836  24.462  0.00  0.00    +0.000 A 
ATOM     15  C   UNL     1      -1.036  14.103  23.379  0.00  0.00    +0.000 A 
ENDBRANCH   3   9
BRANCH   1  17
ATOM     16  O   UNL     1       1.617   9.376  22.737  0.00  0.00    +0.000 OA
ATOM     17  C   UNL     1       0.993   9.321  21.680  0.00  0.00    +0.000 C 
ATOM     18  N   UNL     1       1.045   8.237  20.829  0.00  0.00    +0.000 N 
ATOM     19  H   UNL     1       0.451   8.174  20.009  0.00  0.00    +0.000 HD
BRANCH  18  20
ATOM     20  C   UNL     1       1.870   7.113  21.217  0.00  0.00    +0.000 C 
BRANCH  20  21
ATOM     21  C   UNL     1       1.810   5.980  20.264  0.00  0.00    +0.000 A 
ATOM     22  C   UNL     1       2.417   5.773  19.041  0.00  0.00    +0.000 A 
ATOM     23  C   UNL     1       2.089   4.451  18.651  0.00  0.00    +0.000 A 
ATOM     24  C   UNL     1       1.294   3.945  19.650  0.00  0.00    +0.000 A 
ATOM     25  O   UNL     1       1.113   4.866  20.634  0.00  0.00    +0.000 OA
ENDBRANCH  20  21
ENDBRANCH  18  20
ENDBRANCH   1  17
BRANCH   6  26
ATOM     26  C   UNL     1      -1.242  12.120  18.121  0.00  0.00    +0.000 C 
BRANCH  26  27
ATOM     27  C   UNL     1      -2.291  11.324  17.363  0.00  0.00    +0.000 A 
ATOM     28  C   UNL     1      -3.641  11.710  17.392  0.00  0.00    +0.000 A 
ATOM     29  C   UNL     1      -4.576  11.111  16.542  0.00  0.00    +0.000 A 
ATOM     30  C   UNL     1      -4.171  10.121  15.650  0.00  0.00    +0.000 A 
ATOM     31  C   UNL     1      -2.842   9.698  15.643  0.00  0.00    +0.000 A 
ATOM     32  C   UNL     1      -1.912  10.282  16.506  0.00  0.00    +0.000 A 
ENDBRANCH  26  27
ENDBRANCH   6  26
TORSDOF 6
ENDMDL
MODEL 6
REMARK VINA RESULT:      -7.0      4.129      7.789
REMARK  Name = 
REMARK  6 active torsions:
REMARK  status: ('A' for Active; 'I' for Inactive)
REMARK    1  A    between atoms: C_2  and  C_10
REMARK    2  A    between atoms: N_3  and  C_4
REMARK    3  A    between atoms: C_4  and  C_5
REMARK    4  A    between atoms: N_12  and  C_13
REMARK    5  A    between atoms: N_22  and  C_23
REMARK    6  A    between atoms: C_23  and  C_24
REMARK                            x       y       z     vdW  Elec       q    Type
REMARK                         _______ _______ _______ _____ _____    ______ ____
ROOT
ATOM      1  C   UNL     1       0.016  11.803  19.396  0.00  0.00    +0.000 A 
ATOM      2  N   UNL     1      -1.087  11.813  20.092  0.00  0.00    +0.000 NA
ATOM      3  N   UNL     1      -1.354  12.945  20.828  0.00  0.00    +0.000 N 
ATOM      4  C   UNL     1      -0.661  14.156  20.731  0.00  0.00    +0.000 A 
ATOM      5  O   UNL     1      -0.978  15.156  21.387  0.00  0.00    +0.000 OA
ATOM      6  N   UNL     1       0.432  14.166  19.878  0.00  0.00    +0.000 N 
ATOM      7  C   UNL     1       0.962  12.986  19.412  0.00  0.00    +0.000 A 
ATOM      8  O   UNL     1       2.130  12.804  19.091  0.00  0.00    +0.000 OA
ENDROOT
BRANCH   3   9
ATOM      9  C   UNL     1      -2.476  12.825  21.689  0.00  0.00    +0.000 A 
ATOM     10  C   UNL     1      -2.293  12.457  23.026  0.00  0.00    +0.000 A 
ATOM     11  C   UNL     1      -3.390  12.364  23.885  0.00  0.00    +0.000 A 
ATOM     12  C   UNL     1      -4.664  12.653  23.405  0.00  0.00    +0.000 A 
ATOM     13  F   UNL     1      -5.711  12.592  24.237  0.00  0.00    +0.000 F 
ATOM     14  C   UNL     1      -4.864  13.017  22.078  0.00  0.00    +0.000 A 
ATOM     15  C   UNL     1      -3.769  13.093  21.214  0.00  0.00    +0.000 A 
ENDBRANCH   3   9
BRANCH   1  17
ATOM     16  O   UNL     1      -0.612  10.087  17.899  0.00  0.00    +0.000 OA
ATOM     17  C   UNL     1       0.310  10.588  18.539  0.00  0.00    +0.000 C 
ATOM     18  N   UNL     1       1.590  10.076  18.545  0.00  0.00    +0.000 N 
ATOM     19  H   UNL     1       2.355  10.557  19.005  0.00  0.00    +0.000 HD
BRANCH  18  20
ATOM     20  C   UNL     1       1.848   8.896  17.747  0.00  0.00    +0.000 C 
BRANCH  20  21
ATOM     21  C   UNL     1       2.265   7.722  18.549  0.00  0.00    +0.000 A 
ATOM     22  C   UNL     1       2.065   7.395  19.875  0.00  0.00    +0.000 A 
ATOM     23  C   UNL     1       2.581   6.088  20.048  0.00  0.00    +0.000 A 
ATOM     24  C   UNL     1       3.075   5.709  18.824  0.00  0.00    +0.000 A 
ATOM     25  O   UNL     1       2.893   6.694  17.906  0.00  0.00    +0.000 OA
ENDBRANCH  20  21
ENDBRANCH  18  20
ENDBRANCH   1  17
BRANCH   6  26
ATOM     26  C   UNL     1       1.270  15.358  19.891  0.00  0.00    +0.000 C 
BRANCH  26  27
ATOM     27  C   UNL     1       1.141  16.267  18.680  0.00  0.00    +0.000 A 
ATOM     28  C   UNL     1      -0.094  16.847  18.348  0.00  0.00    +0.000 A 
ATOM     29  C   UNL     1      -0.180  17.838  17.366  0.00  0.00    +0.000 A 
ATOM     30  C   UNL     1       0.969  18.264  16.705  0.00  0.00    +0.000 A 
ATOM     31  C   UNL     1       2.195  17.664  16.993  0.00  0.00    +0.000 A 
ATOM     32  C   UNL     1       2.278  16.659  17.960  0.00  0.00    +0.000 A 
ENDBRANCH  26  27
ENDBRANCH   6  26
TORSDOF 6
ENDMDL
MODEL 7
REMARK VINA RESULT:      -7.0      9.113     12.245
REMARK  Name = 
REMARK  6 active torsions:
REMARK  status: ('A' for Active; 'I' for Inactive)
REMARK    1  A    between atoms: C_2  and  C_10
REMARK    2  A    between atoms: N_3  and  C_4
REMARK    3  A    between atoms: C_4  and  C_5
REMARK    4  A    between atoms: N_12  and  C_13
REMARK    5  A    between atoms: N_22  and  C_23
REMARK    6  A    between atoms: C_23  and  C_24
REMARK                            x       y       z     vdW  Elec       q    Type
REMARK                         _______ _______ _______ _____ _____    ______ ____
ROOT
ATOM      1  C   UNL     1       6.279   5.884  18.196  0.00  0.00    +0.000 A 
ATOM      2  N   UNL     1       5.554   5.214  19.047  0.00  0.00    +0.000 NA
ATOM      3  N   UNL     1       4.427   4.591  18.560  0.00  0.00    +0.000 N 
ATOM      4  C   UNL     1       4.109   4.440  17.207  0.00  0.00    +0.000 A 
ATOM      5  O   UNL     1       3.102   3.828  16.827  0.00  0.00    +0.000 OA
ATOM      6  N   UNL     1       4.970   5.046  16.305  0.00  0.00    +0.000 N 
ATOM      7  C   UNL     1       5.884   5.977  16.736  0.00  0.00    +0.000 A 
ATOM      8  O   UNL     1       6.333   6.901  16.068  0.00  0.00    +0.000 OA
ENDROOT
BRANCH   3   9
ATOM      9  C   UNL     1       3.597   4.025  19.563  0.00  0.00    +0.000 A 
ATOM     10  C   UNL     1       2.431   4.689  19.959  0.00  0.00    +0.000 A 
ATOM     11  C   UNL     1       1.597   4.123  20.926  0.00  0.00    +0.000 A 
ATOM     12  C   UNL     1       1.927   2.891  21.481  0.00  0.00    +0.000 A 
ATOM     13  F   UNL     1       1.111   2.336  22.386  0.00  0.00    +0.000 F 
ATOM     14  C   UNL     1       3.084   2.220  21.100  0.00  0.00    +0.000 A 
ATOM     15  C   UNL     1       3.928   2.793  20.147  0.00  0.00    +0.000 A 
ENDBRANCH   3   9
BRANCH   1  17
ATOM     16  O   UNL     1       8.284   5.894  19.444  0.00  0.00    +0.000 OA
ATOM     17  C   UNL     1       7.551   6.539  18.697  0.00  0.00    +0.000 C 
ATOM     18  N   UNL     1       7.809   7.840  18.325  0.00  0.00    +0.000 N 
ATOM     19  H   UNL     1       7.241   8.320  17.636  0.00  0.00    +0.000 HD
BRANCH  18  20
ATOM     20  C   UNL     1       9.011   8.463  18.838  0.00  0.00    +0.000 C 
BRANCH  20  21
ATOM     21  C   UNL     1       8.997   9.942  18.739  0.00  0.00    +0.000 A 
ATOM     22  C   UNL     1       9.686  10.917  19.432  0.00  0.00    +0.000 A 
ATOM     23  C   UNL     1       9.361  12.150  18.815  0.00  0.00    +0.000 A 
ATOM     24  C   UNL     1       8.487  11.849  17.799  0.00  0.00    +0.000 A 
ATOM     25  O   UNL     1       8.255  10.512  17.745  0.00  0.00    +0.000 OA
ENDBRANCH  20  21
ENDBRANCH  18  20
ENDBRANCH   1  17
BRANCH   6  26
ATOM     26  C   UNL     1       4.568   5.049  14.905  0.00  0.00    +0.000 C 
BRANCH  26  27
ATOM     27  C   UNL     1       5.543   4.398  13.938  0.00  0.00    +0.000 A 
ATOM     28  C   UNL     1       5.108   3.411  13.038  0.00  0.00    +0.000 A 
ATOM     29  C   UNL     1       5.944   2.956  12.014  0.00  0.00    +0.000 A 
ATOM     30  C   UNL     1       7.225   3.484  11.875  0.00  0.00    +0.000 A 
ATOM     31  C   UNL     1       7.685   4.432  12.790  0.00  0.00    +0.000 A 
ATOM     32  C   UNL     1       6.857   4.872  13.825  0.00  0.00    +0.000 A 
ENDBRANCH  26  27
ENDBRANCH   6  26
TORSDOF 6
ENDMDL
MODEL 8
REMARK VINA RESULT:      -6.9      3.671      7.035
REMARK  Name = 
REMARK  6 active torsions:
REMARK  status: ('A' for Active; 'I' for Inactive)
REMARK    1  A    between atoms: C_2  and  C_10
REMARK    2  A    between atoms: N_3  and  C_4
REMARK    3  A    between atoms: C_4  and  C_5
REMARK    4  A    between atoms: N_12  and  C_13
REMARK    5  A    between atoms: N_22  and  C_23
REMARK    6  A    between atoms: C_23  and  C_24
REMARK                            x       y       z     vdW  Elec       q    Type
REMARK                         _______ _______ _______ _____ _____    ______ ____
ROOT
ATOM      1  C   UNL     1       2.292   8.507  18.509  0.00  0.00    +0.000 A 
ATOM      2  N   UNL     1       3.175   8.022  17.681  0.00  0.00    +0.000 NA
ATOM      3  N   UNL     1       3.779   6.836  18.032  0.00  0.00    +0.000 N 
ATOM      4  C   UNL     1       3.381   6.005  19.085  0.00  0.00    +0.000 A 
ATOM      5  O   UNL     1       3.935   4.925  19.323  0.00  0.00    +0.000 OA
ATOM      6  N   UNL     1       2.345   6.477  19.876  0.00  0.00    +0.000 N 
ATOM      7  C   UNL     1       1.961   7.795  19.804  0.00  0.00    +0.000 A 
ATOM      8  O   UNL     1       1.454   8.442  20.713  0.00  0.00    +0.000 OA
ENDROOT
BRANCH   3   9
ATOM      9  C   UNL     1       4.845   6.452  17.176  0.00  0.00    +0.000 A 
ATOM     10  C   UNL     1       6.156   6.828  17.484  0.00  0.00    +0.000 A 
ATOM     11  C   UNL     1       7.212   6.431  16.660  0.00  0.00    +0.000 A 
ATOM     12  C   UNL     1       6.951   5.648  15.540  0.00  0.00    +0.000 A 
ATOM     13  F   UNL     1       7.967   5.243  14.768  0.00  0.00    +0.000 F 
ATOM     14  C   UNL     1       5.652   5.268  15.218  0.00  0.00    +0.000 A 
ATOM     15  C   UNL     1       4.594   5.680  16.031  0.00  0.00    +0.000 A 
ENDBRANCH   3   9
BRANCH   1  17
ATOM     16  O   UNL     1       2.166  10.591  17.405  0.00  0.00    +0.000 OA
ATOM     17  C   UNL     1       1.578   9.787  18.124  0.00  0.00    +0.000 C 
ATOM     18  N   UNL     1       0.315  10.011  18.629  0.00  0.00    +0.000 N 
ATOM     19  H   UNL     1      -0.188   9.295  19.144  0.00  0.00    +0.000 HD
BRANCH  18  20
ATOM     20  C   UNL     1      -0.342  11.252  18.279  0.00  0.00    +0.000 C 
BRANCH  20  21
ATOM     21  C   UNL     1      -1.697  11.061  17.709  0.00  0.00    +0.000 A 
ATOM     22  C   UNL     1      -2.188  10.161  16.785  0.00  0.00    +0.000 A 
ATOM     23  C   UNL     1      -3.587  10.371  16.726  0.00  0.00    +0.000 A 
ATOM     24  C   UNL     1      -3.856  11.394  17.603  0.00  0.00    +0.000 A 
ATOM     25  O   UNL     1      -2.715  11.824  18.204  0.00  0.00    +0.000 OA
ENDBRANCH  20  21
ENDBRANCH  18  20
ENDBRANCH   1  17
BRANCH   6  26
ATOM     26  C   UNL     1       2.028   5.715  21.076  0.00  0.00    +0.000 C 
BRANCH  26  27
ATOM     27  C   UNL     1       1.667   4.256  20.854  0.00  0.00    +0.000 A 
ATOM     28  C   UNL     1       0.863   3.874  19.768  0.00  0.00    +0.000 A 
ATOM     29  C   UNL     1       0.695   2.526  19.439  0.00  0.00    +0.000 A 
ATOM     30  C   UNL     1       1.331   1.541  20.192  0.00  0.00    +0.000 A 
ATOM     31  C   UNL     1       2.096   1.905  21.301  0.00  0.00    +0.000 A 
ATOM     32  C   UNL     1       2.248   3.251  21.641  0.00  0.00    +0.000 A 
ENDBRANCH  26  27
ENDBRANCH   6  26
TORSDOF 6
ENDMDL
MODEL 9
REMARK VINA RESULT:      -6.9      2.752      6.662
REMARK  Name = 
REMARK  6 active torsions:
REMARK  status: ('A' for Active; 'I' for Inactive)
REMARK    1  A    between atoms: C_2  and  C_10
REMARK    2  A    between atoms: N_3  and  C_4
REMARK    3  A    between atoms: C_4  and  C_5
REMARK    4  A    between atoms: N_12  and  C_13
REMARK    5  A    between atoms: N_22  and  C_23
REMARK    6  A    between atoms: C_23  and  C_24
REMARK                            x       y       z     vdW  Elec       q    Type
REMARK                         _______ _______ _______ _____ _____    ______ ____
ROOT
ATOM      1  C   UNL     1       0.279   9.681  20.511  0.00  0.00    +0.000 A 
ATOM      2  N   UNL     1      -0.434   9.760  19.422  0.00  0.00    +0.000 NA
ATOM      3  N   UNL     1      -1.189  10.898  19.247  0.00  0.00    +0.000 N 
ATOM      4  C   UNL     1      -1.098  12.056  20.026  0.00  0.00    +0.000 A 
ATOM      5  O   UNL     1      -1.772  13.067  19.792  0.00  0.00    +0.000 OA
ATOM      6  N   UNL     1      -0.229  12.000  21.105  0.00  0.00    +0.000 N 
ATOM      7  C   UNL     1       0.261  10.792  21.540  0.00  0.00    +0.000 A 
ATOM      8  O   UNL     1       0.602  10.530  22.687  0.00  0.00    +0.000 OA
ENDROOT
BRANCH   3   9
ATOM      9  C   UNL     1      -2.066  10.847  18.132  0.00  0.00    +0.000 A 
ATOM     10  C   UNL     1      -1.703  10.121  16.993  0.00  0.00    +0.000 A 
ATOM     11  C   UNL     1      -2.574  10.045  15.904  0.00  0.00    +0.000 A 
ATOM     12  C   UNL     1      -3.808  10.685  15.965  0.00  0.00    +0.000 A 
ATOM     13  F   UNL     1      -4.653  10.586  14.932  0.00  0.00    +0.000 F 
ATOM     14  C   UNL     1      -4.182  11.413  17.089  0.00  0.00    +0.000 A 
ATOM     15  C   UNL     1      -3.305  11.504  18.172  0.00  0.00    +0.000 A 
ENDBRANCH   3   9
BRANCH   1  17
ATOM     16  O   UNL     1       1.266   7.993  21.835  0.00  0.00    +0.000 OA
ATOM     17  C   UNL     1       1.157   8.460  20.704  0.00  0.00    +0.000 C 
ATOM     18  N   UNL     1       1.824   7.952  19.610  0.00  0.00    +0.000 N 
ATOM     19  H   UNL     1       1.647   8.295  18.671  0.00  0.00    +0.000 HD
BRANCH  18  20
ATOM     20  C   UNL     1       2.683   6.806  19.816  0.00  0.00    +0.000 C 
BRANCH  20  21
ATOM     21  C   UNL     1       2.067   5.525  19.398  0.00  0.00    +0.000 A 
ATOM     22  C   UNL     1       2.054   4.861  18.188  0.00  0.00    +0.000 A 
ATOM     23  C   UNL     1       1.418   3.617  18.420  0.00  0.00    +0.000 A 
ATOM     24  C   UNL     1       1.071   3.609  19.749  0.00  0.00    +0.000 A 
ATOM     25  O   UNL     1       1.457   4.764  20.354  0.00  0.00    +0.000 OA
ENDBRANCH  20  21
ENDBRANCH  18  20
ENDBRANCH   1  17
BRANCH   6  26
ATOM     26  C   UNL     1      -0.245  13.128  22.027  0.00  0.00    +0.000 C 
BRANCH  26  27
ATOM     27  C   UNL     1      -1.406  13.163  23.005  0.00  0.00    +0.000 A 
ATOM     28  C   UNL     1      -1.652  14.305  23.785  0.00  0.00    +0.000 A 
ATOM     29  C   UNL     1      -2.828  14.423  24.532  0.00  0.00    +0.000 A 
ATOM     30  C   UNL     1      -3.775  13.402  24.506  0.00  0.00    +0.000 A 
ATOM     31  C   UNL     1      -3.522  12.243  23.771  0.00  0.00    +0.000 A 
ATOM     32  C   UNL     1      -2.338  12.116  23.041  0.00  0.00    +0.000 A 
ENDBRANCH  26  27
ENDBRANCH   6  26
TORSDOF 6
ENDMDL
