MODEL 1
REMARK VINA RESULT:      -8.8      0.000      0.000
REMARK  Name = 
REMARK  12 active torsions:
REMARK  status: ('A' for Active; 'I' for Inactive)
REMARK    1  A    between atoms: C_1  and  C_2
REMARK    2  A    between atoms: C_2  and  C_3
REMARK    3  A    between atoms: C_2  and  C_4
REMARK    4  A    between atoms: C_2  and  N_13
REMARK    5  A    between atoms: C_4  and  C_5
REMARK    6  A    between atoms: C_5  and  C_6
REMARK    7  A    between atoms: C_10  and  O_11
REMARK    8  A    between atoms: N_13  and  C_14
REMARK    9  A    between atoms: C_14  and  C_15
REMARK   10  A    between atoms: C_15  and  O_16
REMARK   11  A    between atoms: C_15  and  C_17
REMARK   12  A    between atoms: C_19  and  O_20
REMARK                            x       y       z     vdW  Elec       q    Type
REMARK                         _______ _______ _______ _____ _____    ______ ____
ROOT
ATOM      1  C   UNL     1       3.867   2.960  17.503  0.00  0.00    +0.000 C 
ENDROOT
BRANCH   1   2
ATOM      2  C   UNL     1       5.088   3.868  17.564  0.00  0.00    +0.000 A 
ATOM      3  C   UNL     1       5.562   4.320  18.813  0.00  0.00    +0.000 A 
ATOM      4  C   UNL     1       6.715   5.108  18.903  0.00  0.00    +0.000 A 
ATOM      5  C   UNL     1       7.394   5.475  17.742  0.00  0.00    +0.000 A 
ATOM      6  C   UNL     1       6.927   5.055  16.490  0.00  0.00    +0.000 A 
ATOM      7  C   UNL     1       5.780   4.252  16.395  0.00  0.00    +0.000 A 
ATOM      8  O   UNL     1       5.340   3.855  15.175  0.00  0.00    +0.000 OA
ATOM      9  C   UNL     1       5.914   4.189  13.956  0.00  0.00    +0.000 C 
ATOM     10  C   UNL     1       7.150   5.050  14.090  0.00  0.00    +0.000 C 
ATOM     11  O   UNL     1       7.743   5.402  13.081  0.00  0.00    +0.000 OA
ATOM     12  N   UNL     1       7.605   5.438  15.306  0.00  0.00    +0.000 N 
ATOM     13  H   UNL     1       8.451   6.026  15.370  0.00  0.00    +0.000 HD
BRANCH   4  14
ATOM     14  O   UNL     1       7.180   5.510  20.104  0.00  0.00    +0.000 OA
ATOM     15  H   UNL     1       7.866   5.018  20.580  0.00  0.00    +0.000 HD
ENDBRANCH   4  14
ENDBRANCH   1   2
BRANCH   1  16
ATOM     16  O   UNL     1       2.772   3.648  16.949  0.00  0.00    +0.000 OA
ATOM     17  H   UNL     1       2.740   4.555  17.346  0.00  0.00    +0.000 HD
ENDBRANCH   1  16
BRANCH   1  18
ATOM     18  C   UNL     1       3.564   2.414  18.920  0.00  0.00    +0.000 C 
BRANCH  18  19
ATOM     19  N   UNL     1       3.121   3.471  19.844  0.00  0.00    +0.000 NA
ATOM     20  H   UNL     1       3.775   3.448  20.657  0.00  0.00    +0.000 HD
BRANCH  19  22
ATOM     21  C   UNL     1       1.642   2.612  21.716  0.00  0.00    +0.000 C 
ATOM     22  C   UNL     1       1.719   3.335  20.342  0.00  0.00    +0.000 C 
ATOM     23  C   UNL     1       0.862   2.521  19.344  0.00  0.00    +0.000 C 
BRANCH  22  24
ATOM     24  C   UNL     1       1.082   4.758  20.467  0.00  0.00    +0.000 C 
BRANCH  24  25
ATOM     25  C   UNL     1       2.081   5.891  20.810  0.00  0.00    +0.000 C 
BRANCH  25  26
ATOM     26  C   UNL     1       2.093   6.991  19.783  0.00  0.00    +0.000 A 
ATOM     27  C   UNL     1       2.770   6.826  18.562  0.00  0.00    +0.000 A 
ATOM     28  C   UNL     1       2.799   7.865  17.631  0.00  0.00    +0.000 A 
ATOM     29  C   UNL     1       2.162   9.077  17.907  0.00  0.00    +0.000 A 
ATOM     30  C   UNL     1       1.486   9.255  19.123  0.00  0.00    +0.000 A 
ATOM     31  C   UNL     1       1.453   8.214  20.055  0.00  0.00    +0.000 A 
BRANCH  30  32
ATOM     32  O   UNL     1       0.873  10.421  19.410  0.00  0.00    +0.000 OA
ATOM     33  H   UNL     1       0.285  10.519  20.171  0.00  0.00    +0.000 HD
ENDBRANCH  30  32
ENDBRANCH  25  26
ENDBRANCH  24  25
ENDBRANCH  22  24
ENDBRANCH  19  22
ENDBRANCH  18  19
ENDBRANCH   1  18
TORSDOF 10
ENDMDL
MODEL 2
REMARK VINA RESULT:      -8.4      0.929      1.319
REMARK  Name = 
REMARK  12 active torsions:
REMARK  status: ('A' for Active; 'I' for Inactive)
REMARK    1  A    between atoms: C_1  and  C_2
REMARK    2  A    between atoms: C_2  and  C_3
REMARK    3  A    between atoms: C_2  and  C_4
REMARK    4  A    between atoms: C_2  and  N_13
REMARK    5  A    between atoms: C_4  and  C_5
REMARK    6  A    between atoms: C_5  and  C_6
REMARK    7  A    between atoms: C_10  and  O_11
REMARK    8  A    between atoms: N_13  and  C_14
REMARK    9  A    between atoms: C_14  and  C_15
REMARK   10  A    between atoms: C_15  and  O_16
REMARK   11  A    between atoms: C_15  and  C_17
REMARK   12  A    between atoms: C_19  and  O_20
REMARK                            x       y       z     vdW  Elec       q    Type
REMARK                         _______ _______ _______ _____ _____    ______ ____
ROOT
ATOM      1  C   UNL     1       4.123   2.935  17.597  0.00  0.00    +0.000 C 
ENDROOT
BRANCH   1   2
ATOM      2  C   UNL     1       5.296   3.906  17.603  0.00  0.00    +0.000 A 
ATOM      3  C   UNL     1       5.781   4.409  18.829  0.00  0.00    +0.000 A 
ATOM      4  C   UNL     1       6.894   5.257  18.868  0.00  0.00    +0.000 A 
ATOM      5  C   UNL     1       7.520   5.632  17.680  0.00  0.00    +0.000 A 
ATOM      6  C   UNL     1       7.040   5.160  16.451  0.00  0.00    +0.000 A 
ATOM      7  C   UNL     1       5.935   4.298  16.407  0.00  0.00    +0.000 A 
ATOM      8  O   UNL     1       5.481   3.852  15.209  0.00  0.00    +0.000 OA
ATOM      9  C   UNL     1       6.003   4.186  13.967  0.00  0.00    +0.000 C 
ATOM     10  C   UNL     1       7.196   5.112  14.047  0.00  0.00    +0.000 C 
ATOM     11  O   UNL     1       7.741   5.471  13.013  0.00  0.00    +0.000 OA
ATOM     12  N   UNL     1       7.664   5.550  15.240  0.00  0.00    +0.000 N 
ATOM     13  H   UNL     1       8.480   6.181  15.267  0.00  0.00    +0.000 HD
BRANCH   4  14
ATOM     14  O   UNL     1       7.371   5.708  20.046  0.00  0.00    +0.000 OA
ATOM     15  H   UNL     1       6.786   6.015  20.755  0.00  0.00    +0.000 HD
ENDBRANCH   4  14
ENDBRANCH   1   2
BRANCH   1  16
ATOM     16  O   UNL     1       2.990   3.541  17.022  0.00  0.00    +0.000 OA
ATOM     17  H   UNL     1       2.419   3.892  17.752  0.00  0.00    +0.000 HD
ENDBRANCH   1  16
BRANCH   1  18
ATOM     18  C   UNL     1       3.858   2.442  19.041  0.00  0.00    +0.000 C 
BRANCH  18  19
ATOM     19  N   UNL     1       2.429   2.201  19.297  0.00  0.00    +0.000 NA
ATOM     20  H   UNL     1       1.940   2.317  18.383  0.00  0.00    +0.000 HD
BRANCH  19  22
ATOM     21  C   UNL     1       1.871   2.534  21.748  0.00  0.00    +0.000 C 
ATOM     22  C   UNL     1       1.800   3.106  20.305  0.00  0.00    +0.000 C 
ATOM     23  C   UNL     1       0.306   3.337  19.973  0.00  0.00    +0.000 C 
BRANCH  22  24
ATOM     24  C   UNL     1       2.517   4.496  20.260  0.00  0.00    +0.000 C 
BRANCH  24  25
ATOM     25  C   UNL     1       1.816   5.616  21.067  0.00  0.00    +0.000 C 
BRANCH  25  26
ATOM     26  C   UNL     1       1.757   6.923  20.323  0.00  0.00    +0.000 A 
ATOM     27  C   UNL     1       1.088   8.032  20.871  0.00  0.00    +0.000 A 
ATOM     28  C   UNL     1       1.015   9.229  20.158  0.00  0.00    +0.000 A 
ATOM     29  C   UNL     1       1.599   9.334  18.894  0.00  0.00    +0.000 A 
ATOM     30  C   UNL     1       2.268   8.234  18.336  0.00  0.00    +0.000 A 
ATOM     31  C   UNL     1       2.345   7.035  19.050  0.00  0.00    +0.000 A 
BRANCH  30  32
ATOM     32  O   UNL     1       2.830   8.314  17.113  0.00  0.00    +0.000 OA
ATOM     33  H   UNL     1       2.564   8.983  16.468  0.00  0.00    +0.000 HD
ENDBRANCH  30  32
ENDBRANCH  25  26
ENDBRANCH  24  25
ENDBRANCH  22  24
ENDBRANCH  19  22
ENDBRANCH  18  19
ENDBRANCH   1  18
TORSDOF 10
ENDMDL
MODEL 3
REMARK VINA RESULT:      -8.2      1.656      2.183
REMARK  Name = 
REMARK  12 active torsions:
REMARK  status: ('A' for Active; 'I' for Inactive)
REMARK    1  A    between atoms: C_1  and  C_2
REMARK    2  A    between atoms: C_2  and  C_3
REMARK    3  A    between atoms: C_2  and  C_4
REMARK    4  A    between atoms: C_2  and  N_13
REMARK    5  A    between atoms: C_4  and  C_5
REMARK    6  A    between atoms: C_5  and  C_6
REMARK    7  A    between atoms: C_10  and  O_11
REMARK    8  A    between atoms: N_13  and  C_14
REMARK    9  A    between atoms: C_14  and  C_15
REMARK   10  A    between atoms: C_15  and  O_16
REMARK   11  A    between atoms: C_15  and  C_17
REMARK   12  A    between atoms: C_19  and  O_20
REMARK                            x       y       z     vdW  Elec       q    Type
REMARK                         _______ _______ _______ _____ _____    ______ ____
ROOT
ATOM      1  C   UNL     1       4.040   3.214  18.331  0.00  0.00    +0.000 C 
ENDROOT
BRANCH   1   2
ATOM      2  C   UNL     1       5.290   4.074  18.201  0.00  0.00    +0.000 A 
ATOM      3  C   UNL     1       5.927   4.561  19.362  0.00  0.00    +0.000 A 
ATOM      4  C   UNL     1       7.109   5.305  19.274  0.00  0.00    +0.000 A 
ATOM      5  C   UNL     1       7.655   5.592  18.023  0.00  0.00    +0.000 A 
ATOM      6  C   UNL     1       7.026   5.135  16.858  0.00  0.00    +0.000 A 
ATOM      7  C   UNL     1       5.849   4.376  16.941  0.00  0.00    +0.000 A 
ATOM      8  O   UNL     1       5.250   3.943  15.803  0.00  0.00    +0.000 OA
ATOM      9  C   UNL     1       5.683   4.198  14.510  0.00  0.00    +0.000 C 
ATOM     10  C   UNL     1       6.956   5.013  14.452  0.00  0.00    +0.000 C 
ATOM     11  O   UNL     1       7.434   5.295  13.363  0.00  0.00    +0.000 OA
ATOM     12  N   UNL     1       7.568   5.436  15.584  0.00  0.00    +0.000 N 
ATOM     13  H   UNL     1       8.436   5.991  15.518  0.00  0.00    +0.000 HD
BRANCH   4  14
ATOM     14  O   UNL     1       7.731   5.741  20.389  0.00  0.00    +0.000 OA
ATOM     15  H   UNL     1       7.239   6.059  21.161  0.00  0.00    +0.000 HD
ENDBRANCH   4  14
ENDBRANCH   1   2
BRANCH   1  16
ATOM     16  O   UNL     1       4.113   2.109  17.464  0.00  0.00    +0.000 OA
ATOM     17  H   UNL     1       3.706   2.364  16.597  0.00  0.00    +0.000 HD
ENDBRANCH   1  16
BRANCH   1  18
ATOM     18  C   UNL     1       2.788   4.088  18.067  0.00  0.00    +0.000 C 
BRANCH  18  19
ATOM     19  N   UNL     1       2.656   5.184  19.041  0.00  0.00    +0.000 NA
ATOM     20  H   UNL     1       3.625   5.455  19.317  0.00  0.00    +0.000 HD
BRANCH  19  22
ATOM     21  C   UNL     1       2.732   4.129  21.345  0.00  0.00    +0.000 C 
ATOM     22  C   UNL     1       1.874   4.854  20.270  0.00  0.00    +0.000 C 
ATOM     23  C   UNL     1       0.684   3.926  19.927  0.00  0.00    +0.000 C 
BRANCH  22  24
ATOM     24  C   UNL     1       1.291   6.174  20.874  0.00  0.00    +0.000 C 
BRANCH  24  25
ATOM     25  C   UNL     1       1.836   7.477  20.238  0.00  0.00    +0.000 C 
BRANCH  25  26
ATOM     26  C   UNL     1       1.082   8.703  20.679  0.00  0.00    +0.000 A 
ATOM     27  C   UNL     1       0.903   9.788  19.803  0.00  0.00    +0.000 A 
ATOM     28  C   UNL     1       0.228  10.931  20.234  0.00  0.00    +0.000 A 
ATOM     29  C   UNL     1      -0.268  11.008  21.538  0.00  0.00    +0.000 A 
ATOM     30  C   UNL     1      -0.093   9.933  22.421  0.00  0.00    +0.000 A 
ATOM     31  C   UNL     1       0.580   8.786  21.990  0.00  0.00    +0.000 A 
BRANCH  30  32
ATOM     32  O   UNL     1      -0.557   9.993  23.685  0.00  0.00    +0.000 OA
ATOM     33  H   UNL     1      -1.194  10.664  23.967  0.00  0.00    +0.000 HD
ENDBRANCH  30  32
ENDBRANCH  25  26
ENDBRANCH  24  25
ENDBRANCH  22  24
ENDBRANCH  19  22
ENDBRANCH  18  19
ENDBRANCH   1  18
TORSDOF 10
ENDMDL
MODEL 4
REMARK VINA RESULT:      -8.2      2.994      7.520
REMARK  Name = 
REMARK  12 active torsions:
REMARK  status: ('A' for Active; 'I' for Inactive)
REMARK    1  A    between atoms: C_1  and  C_2
REMARK    2  A    between atoms: C_2  and  C_3
REMARK    3  A    between atoms: C_2  and  C_4
REMARK    4  A    between atoms: C_2  and  N_13
REMARK    5  A    between atoms: C_4  and  C_5
REMARK    6  A    between atoms: C_5  and  C_6
REMARK    7  A    between atoms: C_10  and  O_11
REMARK    8  A    between atoms: N_13  and  C_14
REMARK    9  A    between atoms: C_14  and  C_15
REMARK   10  A    between atoms: C_15  and  O_16
REMARK   11  A    between atoms: C_15  and  C_17
REMARK   12  A    between atoms: C_19  and  O_20
REMARK                            x       y       z     vdW  Elec       q    Type
REMARK                         _______ _______ _______ _____ _____    ______ ____
ROOT
ATOM      1  C   UNL     1       2.064   7.007  19.144  0.00  0.00    +0.000 C 
ENDROOT
BRANCH   1   2
ATOM      2  C   UNL     1       1.816   8.507  19.214  0.00  0.00    +0.000 A 
ATOM      3  C   UNL     1       2.299   9.345  18.187  0.00  0.00    +0.000 A 
ATOM      4  C   UNL     1       2.036  10.719  18.196  0.00  0.00    +0.000 A 
ATOM      5  C   UNL     1       1.308  11.277  19.246  0.00  0.00    +0.000 A 
ATOM      6  C   UNL     1       0.838  10.466  20.287  0.00  0.00    +0.000 A 
ATOM      7  C   UNL     1       1.086   9.085  20.275  0.00  0.00    +0.000 A 
ATOM      8  O   UNL     1       0.626   8.313  21.291  0.00  0.00    +0.000 OA
ATOM      9  C   UNL     1      -0.076   8.765  22.400  0.00  0.00    +0.000 C 
ATOM     10  C   UNL     1      -0.332  10.255  22.383  0.00  0.00    +0.000 C 
ATOM     11  O   UNL     1      -0.947  10.765  23.309  0.00  0.00    +0.000 OA
ATOM     12  N   UNL     1       0.111  11.030  21.364  0.00  0.00    +0.000 N 
ATOM     13  H   UNL     1      -0.077  12.045  21.376  0.00  0.00    +0.000 HD
BRANCH   4  14
ATOM     14  O   UNL     1       2.474  11.509  17.193  0.00  0.00    +0.000 OA
ATOM     15  H   UNL     1       2.213  12.439  17.120  0.00  0.00    +0.000 HD
ENDBRANCH   4  14
ENDBRANCH   1   2
BRANCH   1  16
ATOM     16  O   UNL     1       2.559   6.534  20.373  0.00  0.00    +0.000 OA
ATOM     17  H   UNL     1       3.498   6.249  20.243  0.00  0.00    +0.000 HD
ENDBRANCH   1  16
BRANCH   1  18
ATOM     18  C   UNL     1       3.022   6.700  17.966  0.00  0.00    +0.000 C 
BRANCH  18  19
ATOM     19  N   UNL     1       4.343   6.239  18.425  0.00  0.00    +0.000 NA
ATOM     20  H   UNL     1       4.896   7.096  18.645  0.00  0.00    +0.000 HD
BRANCH  19  22
ATOM     21  C   UNL     1       6.294   4.653  18.101  0.00  0.00    +0.000 C 
ATOM     22  C   UNL     1       5.103   5.406  17.446  0.00  0.00    +0.000 C 
ATOM     23  C   UNL     1       5.681   6.288  16.313  0.00  0.00    +0.000 C 
BRANCH  22  24
ATOM     24  C   UNL     1       4.129   4.371  16.792  0.00  0.00    +0.000 C 
BRANCH  24  25
ATOM     25  C   UNL     1       4.026   3.016  17.535  0.00  0.00    +0.000 C 
BRANCH  25  26
ATOM     26  C   UNL     1       2.959   3.010  18.596  0.00  0.00    +0.000 A 
ATOM     27  C   UNL     1       1.618   3.276  18.269  0.00  0.00    +0.000 A 
ATOM     28  C   UNL     1       0.643   3.297  19.267  0.00  0.00    +0.000 A 
ATOM     29  C   UNL     1       0.993   3.060  20.599  0.00  0.00    +0.000 A 
ATOM     30  C   UNL     1       2.328   2.796  20.938  0.00  0.00    +0.000 A 
ATOM     31  C   UNL     1       3.304   2.772  19.939  0.00  0.00    +0.000 A 
BRANCH  30  32
ATOM     32  O   UNL     1       2.685   2.574  22.219  0.00  0.00    +0.000 OA
ATOM     33  H   UNL     1       2.333   3.101  22.950  0.00  0.00    +0.000 HD
ENDBRANCH  30  32
ENDBRANCH  25  26
ENDBRANCH  24  25
ENDBRANCH  22  24
ENDBRANCH  19  22
ENDBRANCH  18  19
ENDBRANCH   1  18
TORSDOF 10
ENDMDL
MODEL 5
REMARK VINA RESULT:      -7.8      0.963      1.485
REMARK  Name = 
REMARK  12 active torsions:
REMARK  status: ('A' for Active; 'I' for Inactive)
REMARK    1  A    between atoms: C_1  and  C_2
REMARK    2  A    between atoms: C_2  and  C_3
REMARK    3  A    between atoms: C_2  and  C_4
REMARK    4  A    between atoms: C_2  and  N_13
REMARK    5  A    between atoms: C_4  and  C_5
REMARK    6  A    between atoms: C_5  and  C_6
REMARK    7  A    between atoms: C_10  and  O_11
REMARK    8  A    between atoms: N_13  and  C_14
REMARK    9  A    between atoms: C_14  and  C_15
REMARK   10  A    between atoms: C_15  and  O_16
REMARK   11  A    between atoms: C_15  and  C_17
REMARK   12  A    between atoms: C_19  and  O_20
REMARK                            x       y       z     vdW  Elec       q    Type
REMARK                         _______ _______ _______ _____ _____    ______ ____
ROOT
ATOM      1  C   UNL     1       4.661   2.819  18.120  0.00  0.00    +0.000 C 
ENDROOT
BRANCH   1   2
ATOM      2  C   UNL     1       5.686   3.934  17.963  0.00  0.00    +0.000 A 
ATOM      3  C   UNL     1       6.175   4.601  19.105  0.00  0.00    +0.000 A 
ATOM      4  C   UNL     1       7.160   5.589  18.995  0.00  0.00    +0.000 A 
ATOM      5  C   UNL     1       7.648   5.941  17.737  0.00  0.00    +0.000 A 
ATOM      6  C   UNL     1       7.160   5.306  16.588  0.00  0.00    +0.000 A 
ATOM      7  C   UNL     1       6.184   4.303  16.694  0.00  0.00    +0.000 A 
ATOM      8  O   UNL     1       5.719   3.700  15.572  0.00  0.00    +0.000 OA
ATOM      9  C   UNL     1       6.107   3.993  14.272  0.00  0.00    +0.000 C 
ATOM     10  C   UNL     1       7.162   5.073  14.189  0.00  0.00    +0.000 C 
ATOM     11  O   UNL     1       7.584   5.411  13.093  0.00  0.00    +0.000 OA
ATOM     12  N   UNL     1       7.643   5.670  15.307  0.00  0.00    +0.000 N 
ATOM     13  H   UNL     1       8.363   6.405  15.223  0.00  0.00    +0.000 HD
BRANCH   4  14
ATOM     14  O   UNL     1       7.646   6.200  20.095  0.00  0.00    +0.000 OA
ATOM     15  H   UNL     1       7.161   6.906  20.547  0.00  0.00    +0.000 HD
ENDBRANCH   4  14
ENDBRANCH   1   2
BRANCH   1  16
ATOM     16  O   UNL     1       3.674   2.917  17.122  0.00  0.00    +0.000 OA
ATOM     17  H   UNL     1       4.001   2.450  16.312  0.00  0.00    +0.000 HD
ENDBRANCH   1  16
BRANCH   1  18
ATOM     18  C   UNL     1       4.063   2.872  19.548  0.00  0.00    +0.000 C 
BRANCH  18  19
ATOM     19  N   UNL     1       2.597   2.734  19.546  0.00  0.00    +0.000 NA
ATOM     20  H   UNL     1       2.352   2.180  18.695  0.00  0.00    +0.000 HD
BRANCH  19  22
ATOM     21  C   UNL     1       0.632   4.012  20.510  0.00  0.00    +0.000 C 
ATOM     22  C   UNL     1       1.835   4.018  19.527  0.00  0.00    +0.000 C 
ATOM     23  C   UNL     1       1.274   4.299  18.112  0.00  0.00    +0.000 C 
BRANCH  22  24
ATOM     24  C   UNL     1       2.803   5.190  19.896  0.00  0.00    +0.000 C 
BRANCH  24  25
ATOM     25  C   UNL     1       2.889   6.320  18.841  0.00  0.00    +0.000 C 
BRANCH  25  26
ATOM     26  C   UNL     1       2.176   7.575  19.267  0.00  0.00    +0.000 A 
ATOM     27  C   UNL     1       1.684   7.711  20.577  0.00  0.00    +0.000 A 
ATOM     28  C   UNL     1       0.998   8.868  20.951  0.00  0.00    +0.000 A 
ATOM     29  C   UNL     1       0.789   9.894  20.027  0.00  0.00    +0.000 A 
ATOM     30  C   UNL     1       1.273   9.768  18.717  0.00  0.00    +0.000 A 
ATOM     31  C   UNL     1       1.963   8.612  18.341  0.00  0.00    +0.000 A 
BRANCH  30  32
ATOM     32  O   UNL     1       1.073  10.745  17.809  0.00  0.00    +0.000 OA
ATOM     33  H   UNL     1       0.236  11.225  17.746  0.00  0.00    +0.000 HD
ENDBRANCH  30  32
ENDBRANCH  25  26
ENDBRANCH  24  25
ENDBRANCH  22  24
ENDBRANCH  19  22
ENDBRANCH  18  19
ENDBRANCH   1  18
TORSDOF 10
ENDMDL
MODEL 6
REMARK VINA RESULT:      -7.8      2.891      7.437
REMARK  Name = 
REMARK  12 active torsions:
REMARK  status: ('A' for Active; 'I' for Inactive)
REMARK    1  A    between atoms: C_1  and  C_2
REMARK    2  A    between atoms: C_2  and  C_3
REMARK    3  A    between atoms: C_2  and  C_4
REMARK    4  A    between atoms: C_2  and  N_13
REMARK    5  A    between atoms: C_4  and  C_5
REMARK    6  A    between atoms: C_5  and  C_6
REMARK    7  A    between atoms: C_10  and  O_11
REMARK    8  A    between atoms: N_13  and  C_14
REMARK    9  A    between atoms: C_14  and  C_15
REMARK   10  A    between atoms: C_15  and  O_16
REMARK   11  A    between atoms: C_15  and  C_17
REMARK   12  A    between atoms: C_19  and  O_20
REMARK                            x       y       z     vdW  Elec       q    Type
REMARK                         _______ _______ _______ _____ _____    ______ ____
ROOT
ATOM      1  C   UNL     1       2.177   8.222  19.154  0.00  0.00    +0.000 C 
ENDROOT
BRANCH   1   2
ATOM      2  C   UNL     1       1.224   9.038  20.017  0.00  0.00    +0.000 A 
ATOM      3  C   UNL     1       0.549   8.419  21.090  0.00  0.00    +0.000 A 
ATOM      4  C   UNL     1      -0.287   9.157  21.935  0.00  0.00    +0.000 A 
ATOM      5  C   UNL     1      -0.479  10.518  21.701  0.00  0.00    +0.000 A 
ATOM      6  C   UNL     1       0.164  11.147  20.627  0.00  0.00    +0.000 A 
ATOM      7  C   UNL     1       1.017  10.415  19.787  0.00  0.00    +0.000 A 
ATOM      8  O   UNL     1       1.631  11.038  18.750  0.00  0.00    +0.000 OA
ATOM      9  C   UNL     1       1.486  12.374  18.404  0.00  0.00    +0.000 C 
ATOM     10  C   UNL     1       0.566  13.138  19.330  0.00  0.00    +0.000 C 
ATOM     11  O   UNL     1       0.367  14.326  19.124  0.00  0.00    +0.000 OA
ATOM     12  N   UNL     1      -0.039  12.526  20.377  0.00  0.00    +0.000 N 
ATOM     13  H   UNL     1      -0.662  13.071  20.994  0.00  0.00    +0.000 HD
BRANCH   4  14
ATOM     14  O   UNL     1      -0.904   8.566  22.979  0.00  0.00    +0.000 OA
ATOM     15  H   UNL     1      -0.774   7.629  23.189  0.00  0.00    +0.000 HD
ENDBRANCH   4  14
ENDBRANCH   1   2
BRANCH   1  16
ATOM     16  O   UNL     1       1.817   8.323  17.797  0.00  0.00    +0.000 OA
ATOM     17  H   UNL     1       0.847   8.521  17.745  0.00  0.00    +0.000 HD
ENDBRANCH   1  16
BRANCH   1  18
ATOM     18  C   UNL     1       2.191   6.756  19.652  0.00  0.00    +0.000 C 
BRANCH  18  19
ATOM     19  N   UNL     1       2.108   5.788  18.546  0.00  0.00    +0.000 NA
ATOM     20  H   UNL     1       1.127   5.828  18.190  0.00  0.00    +0.000 HD
BRANCH  19  22
ATOM     21  C   UNL     1       1.369   3.367  18.402  0.00  0.00    +0.000 C 
ATOM     22  C   UNL     1       2.438   4.377  18.907  0.00  0.00    +0.000 C 
ATOM     23  C   UNL     1       2.536   4.216  20.443  0.00  0.00    +0.000 C 
BRANCH  22  24
ATOM     24  C   UNL     1       3.831   4.007  18.300  0.00  0.00    +0.000 C 
BRANCH  24  25
ATOM     25  C   UNL     1       4.399   5.042  17.297  0.00  0.00    +0.000 C 
BRANCH  25  26
ATOM     26  C   UNL     1       5.670   5.688  17.779  0.00  0.00    +0.000 A 
ATOM     27  C   UNL     1       6.271   6.726  17.046  0.00  0.00    +0.000 A 
ATOM     28  C   UNL     1       7.465   7.296  17.489  0.00  0.00    +0.000 A 
ATOM     29  C   UNL     1       8.075   6.837  18.659  0.00  0.00    +0.000 A 
ATOM     30  C   UNL     1       7.486   5.800  19.397  0.00  0.00    +0.000 A 
ATOM     31  C   UNL     1       6.288   5.230  18.957  0.00  0.00    +0.000 A 
BRANCH  30  32
ATOM     32  O   UNL     1       8.065   5.338  20.524  0.00  0.00    +0.000 OA
ATOM     33  H   UNL     1       7.934   5.765  21.382  0.00  0.00    +0.000 HD
ENDBRANCH  30  32
ENDBRANCH  25  26
ENDBRANCH  24  25
ENDBRANCH  22  24
ENDBRANCH  19  22
ENDBRANCH  18  19
ENDBRANCH   1  18
TORSDOF 10
ENDMDL
MODEL 7
REMARK VINA RESULT:      -7.6      2.971      7.631
REMARK  Name = 
REMARK  12 active torsions:
REMARK  status: ('A' for Active; 'I' for Inactive)
REMARK    1  A    between atoms: C_1  and  C_2
REMARK    2  A    between atoms: C_2  and  C_3
REMARK    3  A    between atoms: C_2  and  C_4
REMARK    4  A    between atoms: C_2  and  N_13
REMARK    5  A    between atoms: C_4  and  C_5
REMARK    6  A    between atoms: C_5  and  C_6
REMARK    7  A    between atoms: C_10  and  O_11
REMARK    8  A    between atoms: N_13  and  C_14
REMARK    9  A    between atoms: C_14  and  C_15
REMARK   10  A    between atoms: C_15  and  O_16
REMARK   11  A    between atoms: C_15  and  C_17
REMARK   12  A    between atoms: C_19  and  O_20
REMARK                            x       y       z     vdW  Elec       q    Type
REMARK                         _______ _______ _______ _____ _____    ______ ____
ROOT
ATOM      1  C   UNL     1       2.222   7.396  18.817  0.00  0.00    +0.000 C 
ENDROOT
BRANCH   1   2
ATOM      2  C   UNL     1       1.870   8.862  19.027  0.00  0.00    +0.000 A 
ATOM      3  C   UNL     1       2.329   9.830  18.110  0.00  0.00    +0.000 A 
ATOM      4  C   UNL     1       1.973  11.176  18.247  0.00  0.00    +0.000 A 
ATOM      5  C   UNL     1       1.174  11.575  19.318  0.00  0.00    +0.000 A 
ATOM      6  C   UNL     1       0.726  10.632  20.252  0.00  0.00    +0.000 A 
ATOM      7  C   UNL     1       1.067   9.278  20.111  0.00  0.00    +0.000 A 
ATOM      8  O   UNL     1       0.627   8.378  21.025  0.00  0.00    +0.000 OA
ATOM      9  C   UNL     1      -0.141   8.666  22.144  0.00  0.00    +0.000 C 
ATOM     10  C   UNL     1      -0.497  10.131  22.268  0.00  0.00    +0.000 C 
ATOM     11  O   UNL     1      -1.176  10.501  23.214  0.00  0.00    +0.000 OA
ATOM     12  N   UNL     1      -0.074  11.034  21.350  0.00  0.00    +0.000 N 
ATOM     13  H   UNL     1      -0.331  12.028  21.457  0.00  0.00    +0.000 HD
BRANCH   4  14
ATOM     14  O   UNL     1       2.389  12.092  17.348  0.00  0.00    +0.000 OA
ATOM     15  H   UNL     1       2.090  13.013  17.376  0.00  0.00    +0.000 HD
ENDBRANCH   4  14
ENDBRANCH   1   2
BRANCH   1  16
ATOM     16  O   UNL     1       2.581   6.798  20.039  0.00  0.00    +0.000 OA
ATOM     17  H   UNL     1       1.783   6.342  20.409  0.00  0.00    +0.000 HD
ENDBRANCH   1  16
BRANCH   1  18
ATOM     18  C   UNL     1       3.345   7.286  17.755  0.00  0.00    +0.000 C 
BRANCH  18  19
ATOM     19  N   UNL     1       4.463   6.442  18.208  0.00  0.00    +0.000 NA
ATOM     20  H   UNL     1       4.985   6.999  18.920  0.00  0.00    +0.000 HD
BRANCH  19  22
ATOM     21  C   UNL     1       6.869   6.472  17.410  0.00  0.00    +0.000 C 
ATOM     22  C   UNL     1       5.410   6.010  17.138  0.00  0.00    +0.000 C 
ATOM     23  C   UNL     1       4.989   6.595  15.768  0.00  0.00    +0.000 C 
BRANCH  22  24
ATOM     24  C   UNL     1       5.371   4.451  17.021  0.00  0.00    +0.000 C 
BRANCH  24  25
ATOM     25  C   UNL     1       3.950   3.838  16.967  0.00  0.00    +0.000 C 
BRANCH  25  26
ATOM     26  C   UNL     1       3.429   3.448  18.324  0.00  0.00    +0.000 A 
ATOM     27  C   UNL     1       4.291   2.916  19.299  0.00  0.00    +0.000 A 
ATOM     28  C   UNL     1       3.789   2.531  20.543  0.00  0.00    +0.000 A 
ATOM     29  C   UNL     1       2.428   2.665  20.826  0.00  0.00    +0.000 A 
ATOM     30  C   UNL     1       1.558   3.191  19.860  0.00  0.00    +0.000 A 
ATOM     31  C   UNL     1       2.059   3.581  18.615  0.00  0.00    +0.000 A 
BRANCH  30  32
ATOM     32  O   UNL     1       0.240   3.320  20.114  0.00  0.00    +0.000 OA
ATOM     33  H   UNL     1      -0.225   4.161  20.006  0.00  0.00    +0.000 HD
ENDBRANCH  30  32
ENDBRANCH  25  26
ENDBRANCH  24  25
ENDBRANCH  22  24
ENDBRANCH  19  22
ENDBRANCH  18  19
ENDBRANCH   1  18
TORSDOF 10
ENDMDL
MODEL 8
REMARK VINA RESULT:      -7.6      3.053      7.843
REMARK  Name = 
REMARK  12 active torsions:
REMARK  status: ('A' for Active; 'I' for Inactive)
REMARK    1  A    between atoms: C_1  and  C_2
REMARK    2  A    between atoms: C_2  and  C_3
REMARK    3  A    between atoms: C_2  and  C_4
REMARK    4  A    between atoms: C_2  and  N_13
REMARK    5  A    between atoms: C_4  and  C_5
REMARK    6  A    between atoms: C_5  and  C_6
REMARK    7  A    between atoms: C_10  and  O_11
REMARK    8  A    between atoms: N_13  and  C_14
REMARK    9  A    between atoms: C_14  and  C_15
REMARK   10  A    between atoms: C_15  and  O_16
REMARK   11  A    between atoms: C_15  and  C_17
REMARK   12  A    between atoms: C_19  and  O_20
REMARK                            x       y       z     vdW  Elec       q    Type
REMARK                         _______ _______ _______ _____ _____    ______ ____
ROOT
ATOM      1  C   UNL     1       1.957   7.569  19.002  0.00  0.00    +0.000 C 
ENDROOT
BRANCH   1   2
ATOM      2  C   UNL     1       1.707   9.063  19.153  0.00  0.00    +0.000 A 
ATOM      3  C   UNL     1       2.208   9.958  18.184  0.00  0.00    +0.000 A 
ATOM      4  C   UNL     1       1.944  11.329  18.267  0.00  0.00    +0.000 A 
ATOM      5  C   UNL     1       1.196  11.826  19.334  0.00  0.00    +0.000 A 
ATOM      6  C   UNL     1       0.707  10.958  20.317  0.00  0.00    +0.000 A 
ATOM      7  C   UNL     1       0.956   9.579  20.231  0.00  0.00    +0.000 A 
ATOM      8  O   UNL     1       0.478   8.751  21.193  0.00  0.00    +0.000 OA
ATOM      9  C   UNL     1      -0.245   9.139  22.312  0.00  0.00    +0.000 C 
ATOM     10  C   UNL     1      -0.502  10.628  22.376  0.00  0.00    +0.000 C 
ATOM     11  O   UNL     1      -1.135  11.083  23.317  0.00  0.00    +0.000 OA
ATOM     12  N   UNL     1      -0.041  11.460  21.411  0.00  0.00    +0.000 N 
ATOM     13  H   UNL     1      -0.231  12.472  21.477  0.00  0.00    +0.000 HD
BRANCH   4  14
ATOM     14  O   UNL     1       2.400  12.175  17.320  0.00  0.00    +0.000 OA
ATOM     15  H   UNL     1       2.867  11.860  16.532  0.00  0.00    +0.000 HD
ENDBRANCH   4  14
ENDBRANCH   1   2
BRANCH   1  16
ATOM     16  O   UNL     1       2.262   6.995  20.250  0.00  0.00    +0.000 OA
ATOM     17  H   UNL     1       1.413   6.813  20.726  0.00  0.00    +0.000 HD
ENDBRANCH   1  16
BRANCH   1  18
ATOM     18  C   UNL     1       3.080   7.341  17.959  0.00  0.00    +0.000 C 
BRANCH  18  19
ATOM     19  N   UNL     1       4.037   6.307  18.385  0.00  0.00    +0.000 NA
ATOM     20  H   UNL     1       4.643   6.744  19.113  0.00  0.00    +0.000 HD
BRANCH  19  22
ATOM     21  C   UNL     1       6.395   5.652  17.721  0.00  0.00    +0.000 C 
ATOM     22  C   UNL     1       4.902   5.754  17.300  0.00  0.00    +0.000 C 
ATOM     23  C   UNL     1       4.839   6.651  16.041  0.00  0.00    +0.000 C 
BRANCH  22  24
ATOM     24  C   UNL     1       4.376   4.336  16.901  0.00  0.00    +0.000 C 
BRANCH  24  25
ATOM     25  C   UNL     1       2.922   4.034  17.338  0.00  0.00    +0.000 C 
BRANCH  25  26
ATOM     26  C   UNL     1       2.832   3.495  18.740  0.00  0.00    +0.000 A 
ATOM     27  C   UNL     1       1.660   3.660  19.499  0.00  0.00    +0.000 A 
ATOM     28  C   UNL     1       1.601   3.181  20.809  0.00  0.00    +0.000 A 
ATOM     29  C   UNL     1       2.704   2.541  21.376  0.00  0.00    +0.000 A 
ATOM     30  C   UNL     1       3.880   2.372  20.629  0.00  0.00    +0.000 A 
ATOM     31  C   UNL     1       3.940   2.848  19.317  0.00  0.00    +0.000 A 
BRANCH  30  32
ATOM     32  O   UNL     1       4.957   1.764  21.164  0.00  0.00    +0.000 OA
ATOM     33  H   UNL     1       5.301   0.929  20.817  0.00  0.00    +0.000 HD
ENDBRANCH  30  32
ENDBRANCH  25  26
ENDBRANCH  24  25
ENDBRANCH  22  24
ENDBRANCH  19  22
ENDBRANCH  18  19
ENDBRANCH   1  18
TORSDOF 10
ENDMDL
MODEL 9
REMARK VINA RESULT:      -7.6      3.249      5.158
REMARK  Name = 
REMARK  12 active torsions:
REMARK  status: ('A' for Active; 'I' for Inactive)
REMARK    1  A    between atoms: C_1  and  C_2
REMARK    2  A    between atoms: C_2  and  C_3
REMARK    3  A    between atoms: C_2  and  C_4
REMARK    4  A    between atoms: C_2  and  N_13
REMARK    5  A    between atoms: C_4  and  C_5
REMARK    6  A    between atoms: C_5  and  C_6
REMARK    7  A    between atoms: C_10  and  O_11
REMARK    8  A    between atoms: N_13  and  C_14
REMARK    9  A    between atoms: C_14  and  C_15
REMARK   10  A    between atoms: C_15  and  O_16
REMARK   11  A    between atoms: C_15  and  C_17
REMARK   12  A    between atoms: C_19  and  O_20
REMARK                            x       y       z     vdW  Elec       q    Type
REMARK                         _______ _______ _______ _____ _____    ______ ____
ROOT
ATOM      1  C   UNL     1       2.214   7.100  18.116  0.00  0.00    +0.000 C 
ENDROOT
BRANCH   1   2
ATOM      2  C   UNL     1       2.719   5.664  18.091  0.00  0.00    +0.000 A 
ATOM      3  C   UNL     1       1.797   4.598  18.042  0.00  0.00    +0.000 A 
ATOM      4  C   UNL     1       2.234   3.272  17.960  0.00  0.00    +0.000 A 
ATOM      5  C   UNL     1       3.601   2.993  17.951  0.00  0.00    +0.000 A 
ATOM      6  C   UNL     1       4.533   4.036  18.021  0.00  0.00    +0.000 A 
ATOM      7  C   UNL     1       4.100   5.369  18.088  0.00  0.00    +0.000 A 
ATOM      8  O   UNL     1       5.015   6.368  18.157  0.00  0.00    +0.000 OA
ATOM      9  C   UNL     1       6.393   6.206  18.191  0.00  0.00    +0.000 C 
ATOM     10  C   UNL     1       6.830   4.760  18.113  0.00  0.00    +0.000 C 
ATOM     11  O   UNL     1       8.023   4.496  18.130  0.00  0.00    +0.000 OA
ATOM     12  N   UNL     1       5.922   3.757  18.028  0.00  0.00    +0.000 N 
ATOM     13  H   UNL     1       6.247   2.779  17.975  0.00  0.00    +0.000 HD
BRANCH   4  14
ATOM     14  O   UNL     1       1.346   2.259  17.881  0.00  0.00    +0.000 OA
ATOM     15  H   UNL     1       1.561   1.363  18.179  0.00  0.00    +0.000 HD
ENDBRANCH   4  14
ENDBRANCH   1   2
BRANCH   1  16
ATOM     16  O   UNL     1       3.084   7.938  17.395  0.00  0.00    +0.000 OA
ATOM     17  H   UNL     1       2.582   8.746  17.119  0.00  0.00    +0.000 HD
ENDBRANCH   1  16
BRANCH   1  18
ATOM     18  C   UNL     1       2.040   7.556  19.586  0.00  0.00    +0.000 C 
BRANCH  18  19
ATOM     19  N   UNL     1       1.498   8.921  19.688  0.00  0.00    +0.000 NA
ATOM     20  H   UNL     1       2.318   9.565  19.710  0.00  0.00    +0.000 HD
BRANCH  19  22
ATOM     21  C   UNL     1       1.471   9.281  22.198  0.00  0.00    +0.000 C 
ATOM     22  C   UNL     1       0.643   9.179  20.886  0.00  0.00    +0.000 C 
ATOM     23  C   UNL     1      -0.387   8.040  21.077  0.00  0.00    +0.000 C 
BRANCH  22  24
ATOM     24  C   UNL     1      -0.152  10.508  20.668  0.00  0.00    +0.000 C 
BRANCH  24  25
ATOM     25  C   UNL     1      -0.090  11.075  19.228  0.00  0.00    +0.000 C 
BRANCH  25  26
ATOM     26  C   UNL     1      -1.389  10.925  18.483  0.00  0.00    +0.000 A 
ATOM     27  C   UNL     1      -1.506  10.013  17.419  0.00  0.00    +0.000 A 
ATOM     28  C   UNL     1      -2.708   9.905  16.718  0.00  0.00    +0.000 A 
ATOM     29  C   UNL     1      -3.800  10.705  17.063  0.00  0.00    +0.000 A 
ATOM     30  C   UNL     1      -3.695  11.619  18.121  0.00  0.00    +0.000 A 
ATOM     31  C   UNL     1      -2.493  11.726  18.826  0.00  0.00    +0.000 A 
BRANCH  30  32
ATOM     32  O   UNL     1      -4.736  12.405  18.462  0.00  0.00    +0.000 OA
ATOM     33  H   UNL     1      -5.361  12.743  17.807  0.00  0.00    +0.000 HD
ENDBRANCH  30  32
ENDBRANCH  25  26
ENDBRANCH  24  25
ENDBRANCH  22  24
ENDBRANCH  19  22
ENDBRANCH  18  19
ENDBRANCH   1  18
TORSDOF 10
ENDMDL
