MODEL 1
REMARK VINA RESULT:      -7.8      0.000      0.000
REMARK  Name = 
REMARK  8 active torsions:
REMARK  status: ('A' for Active; 'I' for Inactive)
REMARK    1  A    between atoms: C_1  and  C_2
REMARK    2  A    between atoms: N_4  and  C_5
REMARK    3  A    between atoms: C_11  and  N_12
REMARK    4  A    between atoms: C_17  and  C_18
REMARK    5  A    between atoms: N_19  and  N_20
REMARK    6  A    between atoms: N_20  and  C_21
REMARK    7  A    between atoms: C_21  and  N_23
REMARK    8  A    between atoms: N_23  and  C_24
REMARK                            x       y       z     vdW  Elec       q    Type
REMARK                         _______ _______ _______ _____ _____    ______ ____
ROOT
ATOM      1  C   UNL     1       3.462   7.483  16.930  0.00  0.00    +0.000 C 
ATOM      2  C   UNL     1       2.604   8.020  18.020  0.00  0.00    +0.000 A 
ATOM      3  N   UNL     1       1.794   9.058  17.784  0.00  0.00    +0.000 NA
ATOM      4  N   UNL     1       1.252   9.354  18.995  0.00  0.00    +0.000 N 
ATOM      5  C   UNL     1       1.553   8.369  19.955  0.00  0.00    +0.000 A 
ATOM      6  C   UNL     1       2.442   7.504  19.335  0.00  0.00    +0.000 A 
ENDROOT
BRANCH   4   7
ATOM      7  C   UNL     1       0.459  10.527  19.156  0.00  0.00    +0.000 A 
ATOM      8  C   UNL     1      -0.881  10.528  18.748  0.00  0.00    +0.000 A 
ATOM      9  C   UNL     1      -1.697  11.621  19.058  0.00  0.00    +0.000 A 
ATOM     10  C   UNL     1      -1.173  12.722  19.736  0.00  0.00    +0.000 A 
ATOM     11  C   UNL     1       0.176  12.756  20.076  0.00  0.00    +0.000 A 
ATOM     12  C   UNL     1       0.993  11.667  19.773  0.00  0.00    +0.000 A 
ENDBRANCH   4   7
BRANCH   5  13
ATOM     13  N   UNL     1       0.982   8.360  21.204  0.00  0.00    +0.000 N 
ATOM     14  C   UNL     1      -0.448   8.198  21.437  0.00  0.00    +0.000 C 
ATOM     15  C   UNL     1      -0.779   9.310  22.423  0.00  0.00    +0.000 C 
ATOM     16  C   UNL     1       0.469   9.366  23.287  0.00  0.00    +0.000 C 
ATOM     17  C   UNL     1       1.600   9.147  22.288  0.00  0.00    +0.000 C 
ENDBRANCH   5  13
BRANCH   6  18
ATOM     18  C   UNL     1       2.992   6.285  19.882  0.00  0.00    +0.000 C 
ATOM     19  N   UNL     1       2.718   5.164  19.296  0.00  0.00    +0.000 NA
BRANCH  19  20
ATOM     20  N   UNL     1       3.181   4.027  19.891  0.00  0.00    +0.000 N 
ATOM     21  H   UNL     1       3.098   3.907  20.895  0.00  0.00    +0.000 HD
BRANCH  20  22
ATOM     22  C   UNL     1       3.916   3.084  19.170  0.00  0.00    +0.000 C 
ATOM     23  S   UNL     1       3.255   1.704  18.479  0.00  0.00    +0.000 S 
BRANCH  22  24
ATOM     24  N   UNL     1       5.271   3.406  19.196  0.00  0.00    +0.000 N 
ATOM     25  H   UNL     1       5.865   2.603  19.378  0.00  0.00    +0.000 HD
BRANCH  24  26
ATOM     26  C   UNL     1       5.914   4.456  18.498  0.00  0.00    +0.000 A 
ATOM     27  C   UNL     1       6.653   5.442  19.156  0.00  0.00    +0.000 A 
ATOM     28  C   UNL     1       7.328   6.421  18.421  0.00  0.00    +0.000 A 
ATOM     29  C   UNL     1       7.270   6.423  17.027  0.00  0.00    +0.000 A 
ATOM     30  C   UNL     1       6.545   5.435  16.361  0.00  0.00    +0.000 A 
ATOM     31  C   UNL     1       5.887   4.454  17.099  0.00  0.00    +0.000 A 
ATOM     32  F   UNL     1       5.197   3.504  16.447  0.00  0.00    +0.000 F 
ENDBRANCH  24  26
ENDBRANCH  22  24
ENDBRANCH  20  22
ENDBRANCH  19  20
ENDBRANCH   6  18
TORSDOF 7
ENDMDL
MODEL 2
REMARK VINA RESULT:      -7.5      0.965      1.352
REMARK  Name = 
REMARK  8 active torsions:
REMARK  status: ('A' for Active; 'I' for Inactive)
REMARK    1  A    between atoms: C_1  and  C_2
REMARK    2  A    between atoms: N_4  and  C_5
REMARK    3  A    between atoms: C_11  and  N_12
REMARK    4  A    between atoms: C_17  and  C_18
REMARK    5  A    between atoms: N_19  and  N_20
REMARK    6  A    between atoms: N_20  and  C_21
REMARK    7  A    between atoms: C_21  and  N_23
REMARK    8  A    between atoms: N_23  and  C_24
REMARK                            x       y       z     vdW  Elec       q    Type
REMARK                         _______ _______ _______ _____ _____    ______ ____
ROOT
ATOM      1  C   UNL     1       3.277   7.726  16.985  0.00  0.00    +0.000 C 
ATOM      2  C   UNL     1       2.444   8.252  18.099  0.00  0.00    +0.000 A 
ATOM      3  N   UNL     1       1.673   9.328  17.909  0.00  0.00    +0.000 NA
ATOM      4  N   UNL     1       1.147   9.596  19.133  0.00  0.00    +0.000 N 
ATOM      5  C   UNL     1       1.414   8.564  20.052  0.00  0.00    +0.000 A 
ATOM      6  C   UNL     1       2.268   7.691  19.394  0.00  0.00    +0.000 A 
ENDROOT
BRANCH   4   7
ATOM      7  C   UNL     1       0.399  10.791  19.344  0.00  0.00    +0.000 A 
ATOM      8  C   UNL     1      -0.922  10.879  18.888  0.00  0.00    +0.000 A 
ATOM      9  C   UNL     1      -1.702  11.986  19.242  0.00  0.00    +0.000 A 
ATOM     10  C   UNL     1      -1.159  13.015  20.011  0.00  0.00    +0.000 A 
ATOM     11  C   UNL     1       0.177  12.965  20.400  0.00  0.00    +0.000 A 
ATOM     12  C   UNL     1       0.957  11.863  20.055  0.00  0.00    +0.000 A 
ENDBRANCH   4   7
BRANCH   5  13
ATOM     13  N   UNL     1       0.848   8.527  21.303  0.00  0.00    +0.000 N 
ATOM     14  C   UNL     1      -0.590   8.452  21.537  0.00  0.00    +0.000 C 
ATOM     15  C   UNL     1      -0.839   9.530  22.583  0.00  0.00    +0.000 C 
ATOM     16  C   UNL     1       0.413   9.453  23.440  0.00  0.00    +0.000 C 
ATOM     17  C   UNL     1       1.522   9.210  22.422  0.00  0.00    +0.000 C 
ENDBRANCH   5  13
BRANCH   6  18
ATOM     18  C   UNL     1       2.773   6.431  19.890  0.00  0.00    +0.000 C 
ATOM     19  N   UNL     1       2.061   5.366  19.714  0.00  0.00    +0.000 NA
BRANCH  19  20
ATOM     20  N   UNL     1       2.529   4.212  20.272  0.00  0.00    +0.000 N 
ATOM     21  H   UNL     1       2.586   4.120  21.282  0.00  0.00    +0.000 HD
BRANCH  20  22
ATOM     22  C   UNL     1       3.082   3.202  19.483  0.00  0.00    +0.000 C 
ATOM     23  S   UNL     1       2.239   1.849  18.956  0.00  0.00    +0.000 S 
BRANCH  22  24
ATOM     24  N   UNL     1       4.442   3.434  19.288  0.00  0.00    +0.000 N 
ATOM     25  H   UNL     1       5.030   2.730  19.725  0.00  0.00    +0.000 HD
BRANCH  24  26
ATOM     26  C   UNL     1       5.048   4.099  18.196  0.00  0.00    +0.000 A 
ATOM     27  C   UNL     1       4.708   3.811  16.871  0.00  0.00    +0.000 A 
ATOM     28  C   UNL     1       5.282   4.540  15.825  0.00  0.00    +0.000 A 
ATOM     29  C   UNL     1       6.197   5.558  16.093  0.00  0.00    +0.000 A 
ATOM     30  C   UNL     1       6.533   5.861  17.413  0.00  0.00    +0.000 A 
ATOM     31  C   UNL     1       5.946   5.140  18.451  0.00  0.00    +0.000 A 
ATOM     32  F   UNL     1       6.272   5.444  19.718  0.00  0.00    +0.000 F 
ENDBRANCH  24  26
ENDBRANCH  22  24
ENDBRANCH  20  22
ENDBRANCH  19  20
ENDBRANCH   6  18
TORSDOF 7
ENDMDL
MODEL 3
REMARK VINA RESULT:      -7.5      1.130      1.492
REMARK  Name = 
REMARK  8 active torsions:
REMARK  status: ('A' for Active; 'I' for Inactive)
REMARK    1  A    between atoms: C_1  and  C_2
REMARK    2  A    between atoms: N_4  and  C_5
REMARK    3  A    between atoms: C_11  and  N_12
REMARK    4  A    between atoms: C_17  and  C_18
REMARK    5  A    between atoms: N_19  and  N_20
REMARK    6  A    between atoms: N_20  and  C_21
REMARK    7  A    between atoms: C_21  and  N_23
REMARK    8  A    between atoms: N_23  and  C_24
REMARK                            x       y       z     vdW  Elec       q    Type
REMARK                         _______ _______ _______ _____ _____    ______ ____
ROOT
ATOM      1  C   UNL     1       3.383   7.433  16.950  0.00  0.00    +0.000 C 
ATOM      2  C   UNL     1       2.567   8.060  18.024  0.00  0.00    +0.000 A 
ATOM      3  N   UNL     1       1.968   9.236  17.808  0.00  0.00    +0.000 NA
ATOM      4  N   UNL     1       1.412   9.564  19.003  0.00  0.00    +0.000 N 
ATOM      5  C   UNL     1       1.476   8.496  19.919  0.00  0.00    +0.000 A 
ATOM      6  C   UNL     1       2.237   7.517  19.296  0.00  0.00    +0.000 A 
ENDROOT
BRANCH   4   7
ATOM      7  C   UNL     1       0.828  10.851  19.192  0.00  0.00    +0.000 A 
ATOM      8  C   UNL     1      -0.433  11.133  18.652  0.00  0.00    +0.000 A 
ATOM      9  C   UNL     1      -1.071  12.334  18.979  0.00  0.00    +0.000 A 
ATOM     10  C   UNL     1      -0.441  13.266  19.805  0.00  0.00    +0.000 A 
ATOM     11  C   UNL     1       0.844  13.020  20.282  0.00  0.00    +0.000 A 
ATOM     12  C   UNL     1       1.482  11.822  19.963  0.00  0.00    +0.000 A 
ENDBRANCH   4   7
BRANCH   5  13
ATOM     13  N   UNL     1       0.837   8.528  21.134  0.00  0.00    +0.000 N 
ATOM     14  C   UNL     1      -0.610   8.639  21.282  0.00  0.00    +0.000 C 
ATOM     15  C   UNL     1      -0.780   9.735  22.324  0.00  0.00    +0.000 C 
ATOM     16  C   UNL     1       0.398   9.494  23.252  0.00  0.00    +0.000 C 
ATOM     17  C   UNL     1       1.526   9.113  22.298  0.00  0.00    +0.000 C 
ENDBRANCH   5  13
BRANCH   6  18
ATOM     18  C   UNL     1       2.530   6.194  19.798  0.00  0.00    +0.000 C 
ATOM     19  N   UNL     1       3.710   5.704  19.599  0.00  0.00    +0.000 NA
BRANCH  19  20
ATOM     20  N   UNL     1       3.922   4.420  20.009  0.00  0.00    +0.000 N 
ATOM     21  H   UNL     1       3.884   4.187  20.996  0.00  0.00    +0.000 HD
BRANCH  20  22
ATOM     22  C   UNL     1       4.346   3.437  19.112  0.00  0.00    +0.000 C 
ATOM     23  S   UNL     1       3.534   1.993  18.842  0.00  0.00    +0.000 S 
BRANCH  22  24
ATOM     24  N   UNL     1       5.578   3.788  18.561  0.00  0.00    +0.000 N 
ATOM     25  H   UNL     1       6.363   3.372  19.053  0.00  0.00    +0.000 HD
BRANCH  24  26
ATOM     26  C   UNL     1       5.847   4.119  17.213  0.00  0.00    +0.000 A 
ATOM     27  C   UNL     1       4.841   4.165  16.244  0.00  0.00    +0.000 A 
ATOM     28  C   UNL     1       5.141   4.563  14.938  0.00  0.00    +0.000 A 
ATOM     29  C   UNL     1       6.445   4.918  14.590  0.00  0.00    +0.000 A 
ATOM     30  C   UNL     1       7.453   4.886  15.553  0.00  0.00    +0.000 A 
ATOM     31  C   UNL     1       7.145   4.503  16.856  0.00  0.00    +0.000 A 
ATOM     32  F   UNL     1       8.122   4.482  17.777  0.00  0.00    +0.000 F 
ENDBRANCH  24  26
ENDBRANCH  22  24
ENDBRANCH  20  22
ENDBRANCH  19  20
ENDBRANCH   6  18
TORSDOF 7
ENDMDL
MODEL 4
REMARK VINA RESULT:      -7.3      1.053      1.630
REMARK  Name = 
REMARK  8 active torsions:
REMARK  status: ('A' for Active; 'I' for Inactive)
REMARK    1  A    between atoms: C_1  and  C_2
REMARK    2  A    between atoms: N_4  and  C_5
REMARK    3  A    between atoms: C_11  and  N_12
REMARK    4  A    between atoms: C_17  and  C_18
REMARK    5  A    between atoms: N_19  and  N_20
REMARK    6  A    between atoms: N_20  and  C_21
REMARK    7  A    between atoms: C_21  and  N_23
REMARK    8  A    between atoms: N_23  and  C_24
REMARK                            x       y       z     vdW  Elec       q    Type
REMARK                         _______ _______ _______ _____ _____    ______ ____
ROOT
ATOM      1  C   UNL     1       3.339   7.463  17.073  0.00  0.00    +0.000 C 
ATOM      2  C   UNL     1       2.519   8.113  18.131  0.00  0.00    +0.000 A 
ATOM      3  N   UNL     1       1.976   9.315  17.912  0.00  0.00    +0.000 NA
ATOM      4  N   UNL     1       1.400   9.654  19.096  0.00  0.00    +0.000 N 
ATOM      5  C   UNL     1       1.395   8.575  20.000  0.00  0.00    +0.000 A 
ATOM      6  C   UNL     1       2.131   7.572  19.387  0.00  0.00    +0.000 A 
ENDROOT
BRANCH   4   7
ATOM      7  C   UNL     1       0.866  10.962  19.283  0.00  0.00    +0.000 A 
ATOM      8  C   UNL     1       1.561  11.896  20.063  0.00  0.00    +0.000 A 
ATOM      9  C   UNL     1       1.119  13.223  20.108  0.00  0.00    +0.000 A 
ATOM     10  C   UNL     1      -0.028  13.608  19.413  0.00  0.00    +0.000 A 
ATOM     11  C   UNL     1      -0.763  12.665  18.700  0.00  0.00    +0.000 A 
ATOM     12  C   UNL     1      -0.324  11.343  18.647  0.00  0.00    +0.000 A 
ENDBRANCH   4   7
BRANCH   5  13
ATOM     13  N   UNL     1       0.724   8.621  21.197  0.00  0.00    +0.000 N 
ATOM     14  C   UNL     1      -0.707   8.882  21.311  0.00  0.00    +0.000 C 
ATOM     15  C   UNL     1      -0.791   9.942  22.401  0.00  0.00    +0.000 C 
ATOM     16  C   UNL     1       0.323   9.532  23.347  0.00  0.00    +0.000 C 
ATOM     17  C   UNL     1       1.433   9.074  22.407  0.00  0.00    +0.000 C 
ENDBRANCH   5  13
BRANCH   6  18
ATOM     18  C   UNL     1       2.355   6.233  19.882  0.00  0.00    +0.000 C 
ATOM     19  N   UNL     1       3.527   5.706  19.734  0.00  0.00    +0.000 NA
BRANCH  19  20
ATOM     20  N   UNL     1       3.676   4.410  20.134  0.00  0.00    +0.000 N 
ATOM     21  H   UNL     1       3.537   4.157  21.107  0.00  0.00    +0.000 HD
BRANCH  20  22
ATOM     22  C   UNL     1       4.171   3.438  19.261  0.00  0.00    +0.000 C 
ATOM     23  S   UNL     1       3.260   2.165  18.654  0.00  0.00    +0.000 S 
BRANCH  22  24
ATOM     24  N   UNL     1       5.536   3.626  19.056  0.00  0.00    +0.000 N 
ATOM     25  H   UNL     1       6.073   2.771  19.160  0.00  0.00    +0.000 HD
BRANCH  24  26
ATOM     26  C   UNL     1       6.150   4.600  18.233  0.00  0.00    +0.000 A 
ATOM     27  C   UNL     1       5.900   4.677  16.861  0.00  0.00    +0.000 A 
ATOM     28  C   UNL     1       6.476   5.696  16.098  0.00  0.00    +0.000 A 
ATOM     29  C   UNL     1       7.305   6.645  16.698  0.00  0.00    +0.000 A 
ATOM     30  C   UNL     1       7.551   6.583  18.069  0.00  0.00    +0.000 A 
ATOM     31  C   UNL     1       6.962   5.573  18.826  0.00  0.00    +0.000 A 
ATOM     32  F   UNL     1       7.200   5.526  20.147  0.00  0.00    +0.000 F 
ENDBRANCH  24  26
ENDBRANCH  22  24
ENDBRANCH  20  22
ENDBRANCH  19  20
ENDBRANCH   6  18
TORSDOF 7
ENDMDL
MODEL 5
REMARK VINA RESULT:      -7.2      0.716      1.136
REMARK  Name = 
REMARK  8 active torsions:
REMARK  status: ('A' for Active; 'I' for Inactive)
REMARK    1  A    between atoms: C_1  and  C_2
REMARK    2  A    between atoms: N_4  and  C_5
REMARK    3  A    between atoms: C_11  and  N_12
REMARK    4  A    between atoms: C_17  and  C_18
REMARK    5  A    between atoms: N_19  and  N_20
REMARK    6  A    between atoms: N_20  and  C_21
REMARK    7  A    between atoms: C_21  and  N_23
REMARK    8  A    between atoms: N_23  and  C_24
REMARK                            x       y       z     vdW  Elec       q    Type
REMARK                         _______ _______ _______ _____ _____    ______ ____
ROOT
ATOM      1  C   UNL     1       3.301   7.514  17.106  0.00  0.00    +0.000 C 
ATOM      2  C   UNL     1       2.474   8.103  18.193  0.00  0.00    +0.000 A 
ATOM      3  N   UNL     1       1.789   9.230  17.977  0.00  0.00    +0.000 NA
ATOM      4  N   UNL     1       1.246   9.541  19.184  0.00  0.00    +0.000 N 
ATOM      5  C   UNL     1       1.411   8.495  20.113  0.00  0.00    +0.000 A 
ATOM      6  C   UNL     1       2.218   7.560  19.483  0.00  0.00    +0.000 A 
ENDROOT
BRANCH   4   7
ATOM      7  C   UNL     1       0.581  10.787  19.370  0.00  0.00    +0.000 A 
ATOM      8  C   UNL     1       1.253  11.854  19.981  0.00  0.00    +0.000 A 
ATOM      9  C   UNL     1       0.657  13.119  20.012  0.00  0.00    +0.000 A 
ATOM     10  C   UNL     1      -0.617  13.312  19.474  0.00  0.00    +0.000 A 
ATOM     11  C   UNL     1      -1.317  12.237  18.936  0.00  0.00    +0.000 A 
ATOM     12  C   UNL     1      -0.725  10.975  18.897  0.00  0.00    +0.000 A 
ENDBRANCH   4   7
BRANCH   5  13
ATOM     13  N   UNL     1       0.805   8.504  21.346  0.00  0.00    +0.000 N 
ATOM     14  C   UNL     1      -0.641   8.507  21.535  0.00  0.00    +0.000 C 
ATOM     15  C   UNL     1      -0.865   9.610  22.561  0.00  0.00    +0.000 C 
ATOM     16  C   UNL     1       0.354   9.479  23.458  0.00  0.00    +0.000 C 
ATOM     17  C   UNL     1       1.480   9.165  22.478  0.00  0.00    +0.000 C 
ENDBRANCH   5  13
BRANCH   6  18
ATOM     18  C   UNL     1       2.617   6.270  19.996  0.00  0.00    +0.000 C 
ATOM     19  N   UNL     1       2.237   5.207  19.362  0.00  0.00    +0.000 NA
BRANCH  19  20
ATOM     20  N   UNL     1       2.558   4.006  19.924  0.00  0.00    +0.000 N 
ATOM     21  H   UNL     1       2.088   3.698  20.769  0.00  0.00    +0.000 HD
BRANCH  20  22
ATOM     22  C   UNL     1       3.634   3.253  19.451  0.00  0.00    +0.000 C 
ATOM     23  S   UNL     1       4.406   2.054  20.337  0.00  0.00    +0.000 S 
BRANCH  22  24
ATOM     24  N   UNL     1       4.026   3.710  18.194  0.00  0.00    +0.000 N 
ATOM     25  H   UNL     1       3.247   3.806  17.549  0.00  0.00    +0.000 HD
BRANCH  24  26
ATOM     26  C   UNL     1       5.135   4.534  17.892  0.00  0.00    +0.000 A 
ATOM     27  C   UNL     1       5.905   5.138  18.889  0.00  0.00    +0.000 A 
ATOM     28  C   UNL     1       7.033   5.889  18.547  0.00  0.00    +0.000 A 
ATOM     29  C   UNL     1       7.401   6.042  17.210  0.00  0.00    +0.000 A 
ATOM     30  C   UNL     1       6.645   5.432  16.209  0.00  0.00    +0.000 A 
ATOM     31  C   UNL     1       5.531   4.674  16.557  0.00  0.00    +0.000 A 
ATOM     32  F   UNL     1       4.815   4.085  15.585  0.00  0.00    +0.000 F 
ENDBRANCH  24  26
ENDBRANCH  22  24
ENDBRANCH  20  22
ENDBRANCH  19  20
ENDBRANCH   6  18
TORSDOF 7
ENDMDL
MODEL 6
REMARK VINA RESULT:      -7.2      0.909      1.016
REMARK  Name = 
REMARK  8 active torsions:
REMARK  status: ('A' for Active; 'I' for Inactive)
REMARK    1  A    between atoms: C_1  and  C_2
REMARK    2  A    between atoms: N_4  and  C_5
REMARK    3  A    between atoms: C_11  and  N_12
REMARK    4  A    between atoms: C_17  and  C_18
REMARK    5  A    between atoms: N_19  and  N_20
REMARK    6  A    between atoms: N_20  and  C_21
REMARK    7  A    between atoms: C_21  and  N_23
REMARK    8  A    between atoms: N_23  and  C_24
REMARK                            x       y       z     vdW  Elec       q    Type
REMARK                         _______ _______ _______ _____ _____    ______ ____
ROOT
ATOM      1  C   UNL     1       3.214   7.709  17.063  0.00  0.00    +0.000 C 
ATOM      2  C   UNL     1       2.384   8.246  18.174  0.00  0.00    +0.000 A 
ATOM      3  N   UNL     1       1.612   9.319  17.974  0.00  0.00    +0.000 NA
ATOM      4  N   UNL     1       1.089   9.600  19.197  0.00  0.00    +0.000 N 
ATOM      5  C   UNL     1       1.360   8.578  20.127  0.00  0.00    +0.000 A 
ATOM      6  C   UNL     1       2.212   7.698  19.475  0.00  0.00    +0.000 A 
ENDROOT
BRANCH   4   7
ATOM      7  C   UNL     1       0.341  10.797  19.398  0.00  0.00    +0.000 A 
ATOM      8  C   UNL     1      -0.982  10.878  18.948  0.00  0.00    +0.000 A 
ATOM      9  C   UNL     1      -1.762  11.988  19.292  0.00  0.00    +0.000 A 
ATOM     10  C   UNL     1      -1.215  13.027  20.046  0.00  0.00    +0.000 A 
ATOM     11  C   UNL     1       0.122  12.983  20.430  0.00  0.00    +0.000 A 
ATOM     12  C   UNL     1       0.902  11.877  20.094  0.00  0.00    +0.000 A 
ENDBRANCH   4   7
BRANCH   5  13
ATOM     13  N   UNL     1       0.798   8.554  21.380  0.00  0.00    +0.000 N 
ATOM     14  C   UNL     1      -0.640   8.512  21.618  0.00  0.00    +0.000 C 
ATOM     15  C   UNL     1      -0.860   9.595  22.666  0.00  0.00    +0.000 C 
ATOM     16  C   UNL     1       0.393   9.489  23.518  0.00  0.00    +0.000 C 
ATOM     17  C   UNL     1       1.492   9.220  22.497  0.00  0.00    +0.000 C 
ENDBRANCH   5  13
BRANCH   6  18
ATOM     18  C   UNL     1       2.720   6.444  19.983  0.00  0.00    +0.000 C 
ATOM     19  N   UNL     1       1.880   5.495  20.243  0.00  0.00    +0.000 NA
BRANCH  19  20
ATOM     20  N   UNL     1       2.387   4.359  20.803  0.00  0.00    +0.000 N 
ATOM     21  H   UNL     1       2.692   4.360  21.770  0.00  0.00    +0.000 HD
BRANCH  20  22
ATOM     22  C   UNL     1       2.644   3.226  20.028  0.00  0.00    +0.000 C 
ATOM     23  S   UNL     1       1.487   2.079  19.622  0.00  0.00    +0.000 S 
BRANCH  22  24
ATOM     24  N   UNL     1       4.003   3.144  19.732  0.00  0.00    +0.000 N 
ATOM     25  H   UNL     1       4.385   2.214  19.885  0.00  0.00    +0.000 HD
BRANCH  24  26
ATOM     26  C   UNL     1       4.723   3.919  18.793  0.00  0.00    +0.000 A 
ATOM     27  C   UNL     1       5.761   4.773  19.175  0.00  0.00    +0.000 A 
ATOM     28  C   UNL     1       6.489   5.469  18.206  0.00  0.00    +0.000 A 
ATOM     29  C   UNL     1       6.189   5.318  16.852  0.00  0.00    +0.000 A 
ATOM     30  C   UNL     1       5.163   4.458  16.461  0.00  0.00    +0.000 A 
ATOM     31  C   UNL     1       4.450   3.757  17.430  0.00  0.00    +0.000 A 
ATOM     32  F   UNL     1       3.468   2.926  17.042  0.00  0.00    +0.000 F 
ENDBRANCH  24  26
ENDBRANCH  22  24
ENDBRANCH  20  22
ENDBRANCH  19  20
ENDBRANCH   6  18
TORSDOF 7
ENDMDL
MODEL 7
REMARK VINA RESULT:      -7.1      1.045      1.672
REMARK  Name = 
REMARK  8 active torsions:
REMARK  status: ('A' for Active; 'I' for Inactive)
REMARK    1  A    between atoms: C_1  and  C_2
REMARK    2  A    between atoms: N_4  and  C_5
REMARK    3  A    between atoms: C_11  and  N_12
REMARK    4  A    between atoms: C_17  and  C_18
REMARK    5  A    between atoms: N_19  and  N_20
REMARK    6  A    between atoms: N_20  and  C_21
REMARK    7  A    between atoms: C_21  and  N_23
REMARK    8  A    between atoms: N_23  and  C_24
REMARK                            x       y       z     vdW  Elec       q    Type
REMARK                         _______ _______ _______ _____ _____    ______ ____
ROOT
ATOM      1  C   UNL     1       3.219   7.665  17.108  0.00  0.00    +0.000 C 
ATOM      2  C   UNL     1       2.394   8.213  18.218  0.00  0.00    +0.000 A 
ATOM      3  N   UNL     1       1.645   9.303  18.019  0.00  0.00    +0.000 NA
ATOM      4  N   UNL     1       1.121   9.588  19.240  0.00  0.00    +0.000 N 
ATOM      5  C   UNL     1       1.366   8.556  20.166  0.00  0.00    +0.000 A 
ATOM      6  C   UNL     1       2.203   7.662  19.515  0.00  0.00    +0.000 A 
ENDROOT
BRANCH   4   7
ATOM      7  C   UNL     1       0.397  10.799  19.444  0.00  0.00    +0.000 A 
ATOM      8  C   UNL     1       1.018  11.887  20.070  0.00  0.00    +0.000 A 
ATOM      9  C   UNL     1       0.362  13.122  20.119  0.00  0.00    +0.000 A 
ATOM     10  C   UNL     1      -0.918  13.263  19.582  0.00  0.00    +0.000 A 
ATOM     11  C   UNL     1      -1.567  12.163  19.026  0.00  0.00    +0.000 A 
ATOM     12  C   UNL     1      -0.916  10.932  18.971  0.00  0.00    +0.000 A 
ENDBRANCH   4   7
BRANCH   5  13
ATOM     13  N   UNL     1       0.795   8.537  21.416  0.00  0.00    +0.000 N 
ATOM     14  C   UNL     1      -0.645   8.528  21.646  0.00  0.00    +0.000 C 
ATOM     15  C   UNL     1      -0.845   9.609  22.699  0.00  0.00    +0.000 C 
ATOM     16  C   UNL     1       0.400   9.467  23.558  0.00  0.00    +0.000 C 
ATOM     17  C   UNL     1       1.499   9.179  22.541  0.00  0.00    +0.000 C 
ENDBRANCH   5  13
BRANCH   6  18
ATOM     18  C   UNL     1       2.682   6.395  20.018  0.00  0.00    +0.000 C 
ATOM     19  N   UNL     1       2.157   5.307  19.557  0.00  0.00    +0.000 NA
BRANCH  19  20
ATOM     20  N   UNL     1       2.572   4.135  20.119  0.00  0.00    +0.000 N 
ATOM     21  H   UNL     1       2.313   3.908  21.074  0.00  0.00    +0.000 HD
BRANCH  20  22
ATOM     22  C   UNL     1       3.481   3.303  19.463  0.00  0.00    +0.000 C 
ATOM     23  S   UNL     1       4.281   2.021  20.193  0.00  0.00    +0.000 S 
BRANCH  22  24
ATOM     24  N   UNL     1       3.693   3.753  18.161  0.00  0.00    +0.000 N 
ATOM     25  H   UNL     1       2.910   4.286  17.795  0.00  0.00    +0.000 HD
BRANCH  24  26
ATOM     26  C   UNL     1       4.934   4.054  17.552  0.00  0.00    +0.000 A 
ATOM     27  C   UNL     1       5.216   3.705  16.229  0.00  0.00    +0.000 A 
ATOM     28  C   UNL     1       6.429   4.082  15.646  0.00  0.00    +0.000 A 
ATOM     29  C   UNL     1       7.368   4.808  16.379  0.00  0.00    +0.000 A 
ATOM     30  C   UNL     1       7.091   5.171  17.697  0.00  0.00    +0.000 A 
ATOM     31  C   UNL     1       5.874   4.805  18.267  0.00  0.00    +0.000 A 
ATOM     32  F   UNL     1       5.614   5.165  19.534  0.00  0.00    +0.000 F 
ENDBRANCH  24  26
ENDBRANCH  22  24
ENDBRANCH  20  22
ENDBRANCH  19  20
ENDBRANCH   6  18
TORSDOF 7
ENDMDL
MODEL 8
REMARK VINA RESULT:      -6.8      1.359      1.832
REMARK  Name = 
REMARK  8 active torsions:
REMARK  status: ('A' for Active; 'I' for Inactive)
REMARK    1  A    between atoms: C_1  and  C_2
REMARK    2  A    between atoms: N_4  and  C_5
REMARK    3  A    between atoms: C_11  and  N_12
REMARK    4  A    between atoms: C_17  and  C_18
REMARK    5  A    between atoms: N_19  and  N_20
REMARK    6  A    between atoms: N_20  and  C_21
REMARK    7  A    between atoms: C_21  and  N_23
REMARK    8  A    between atoms: N_23  and  C_24
REMARK                            x       y       z     vdW  Elec       q    Type
REMARK                         _______ _______ _______ _____ _____    ______ ____
ROOT
ATOM      1  C   UNL     1       3.352   7.486  17.095  0.00  0.00    +0.000 C 
ATOM      2  C   UNL     1       2.521   8.355  17.971  0.00  0.00    +0.000 A 
ATOM      3  N   UNL     1       2.125   9.557  17.539  0.00  0.00    +0.000 NA
ATOM      4  N   UNL     1       1.493  10.115  18.605  0.00  0.00    +0.000 N 
ATOM      5  C   UNL     1       1.301   9.183  19.643  0.00  0.00    +0.000 A 
ATOM      6  C   UNL     1       1.977   8.039  19.246  0.00  0.00    +0.000 A 
ENDROOT
BRANCH   4   7
ATOM      7  C   UNL     1       1.084  11.480  18.560  0.00  0.00    +0.000 A 
ATOM      8  C   UNL     1      -0.280  11.801  18.552  0.00  0.00    +0.000 A 
ATOM      9  C   UNL     1      -0.675  13.137  18.675  0.00  0.00    +0.000 A 
ATOM     10  C   UNL     1       0.280  14.150  18.767  0.00  0.00    +0.000 A 
ATOM     11  C   UNL     1       1.636  13.839  18.699  0.00  0.00    +0.000 A 
ATOM     12  C   UNL     1       2.035  12.509  18.582  0.00  0.00    +0.000 A 
ENDBRANCH   4   7
BRANCH   5  13
ATOM     13  N   UNL     1       0.542   9.464  20.753  0.00  0.00    +0.000 N 
ATOM     14  C   UNL     1       1.013  10.277  21.868  0.00  0.00    +0.000 C 
ATOM     15  C   UNL     1       0.641   9.452  23.093  0.00  0.00    +0.000 C 
ATOM     16  C   UNL     1      -0.679   8.824  22.680  0.00  0.00    +0.000 C 
ATOM     17  C   UNL     1      -0.462   8.485  21.209  0.00  0.00    +0.000 C 
ENDBRANCH   5  13
BRANCH   6  18
ATOM     18  C   UNL     1       2.019   6.771  19.937  0.00  0.00    +0.000 C 
ATOM     19  N   UNL     1       3.140   6.127  19.983  0.00  0.00    +0.000 NA
BRANCH  19  20
ATOM     20  N   UNL     1       3.120   4.894  20.567  0.00  0.00    +0.000 N 
ATOM     21  H   UNL     1       3.181   4.808  21.577  0.00  0.00    +0.000 HD
BRANCH  20  22
ATOM     22  C   UNL     1       3.176   3.730  19.798  0.00  0.00    +0.000 C 
ATOM     23  S   UNL     1       1.874   2.698  19.555  0.00  0.00    +0.000 S 
BRANCH  22  24
ATOM     24  N   UNL     1       4.478   3.508  19.354  0.00  0.00    +0.000 N 
ATOM     25  H   UNL     1       4.828   2.588  19.602  0.00  0.00    +0.000 HD
BRANCH  24  26
ATOM     26  C   UNL     1       5.105   4.082  18.224  0.00  0.00    +0.000 A 
ATOM     27  C   UNL     1       4.683   3.808  16.921  0.00  0.00    +0.000 A 
ATOM     28  C   UNL     1       5.288   4.450  15.836  0.00  0.00    +0.000 A 
ATOM     29  C   UNL     1       6.317   5.369  16.044  0.00  0.00    +0.000 A 
ATOM     30  C   UNL     1       6.737   5.658  17.342  0.00  0.00    +0.000 A 
ATOM     31  C   UNL     1       6.120   5.026  18.419  0.00  0.00    +0.000 A 
ATOM     32  F   UNL     1       6.528   5.317  19.665  0.00  0.00    +0.000 F 
ENDBRANCH  24  26
ENDBRANCH  22  24
ENDBRANCH  20  22
ENDBRANCH  19  20
ENDBRANCH   6  18
TORSDOF 7
ENDMDL
MODEL 9
REMARK VINA RESULT:      -6.7      1.143      1.366
REMARK  Name = 
REMARK  8 active torsions:
REMARK  status: ('A' for Active; 'I' for Inactive)
REMARK    1  A    between atoms: C_1  and  C_2
REMARK    2  A    between atoms: N_4  and  C_5
REMARK    3  A    between atoms: C_11  and  N_12
REMARK    4  A    between atoms: C_17  and  C_18
REMARK    5  A    between atoms: N_19  and  N_20
REMARK    6  A    between atoms: N_20  and  C_21
REMARK    7  A    between atoms: C_21  and  N_23
REMARK    8  A    between atoms: N_23  and  C_24
REMARK                            x       y       z     vdW  Elec       q    Type
REMARK                         _______ _______ _______ _____ _____    ______ ____
ROOT
ATOM      1  C   UNL     1       3.348   7.737  16.913  0.00  0.00    +0.000 C 
ATOM      2  C   UNL     1       2.514   8.389  17.959  0.00  0.00    +0.000 A 
ATOM      3  N   UNL     1       2.035   9.621  17.760  0.00  0.00    +0.000 NA
ATOM      4  N   UNL     1       1.426   9.947  18.931  0.00  0.00    +0.000 N 
ATOM      5  C   UNL     1       1.334   8.839  19.795  0.00  0.00    +0.000 A 
ATOM      6  C   UNL     1       2.049   7.824  19.178  0.00  0.00    +0.000 A 
ENDROOT
BRANCH   4   7
ATOM      7  C   UNL     1       0.943  11.271  19.143  0.00  0.00    +0.000 A 
ATOM      8  C   UNL     1      -0.230  11.697  18.509  0.00  0.00    +0.000 A 
ATOM      9  C   UNL     1      -0.788  12.935  18.847  0.00  0.00    +0.000 A 
ATOM     10  C   UNL     1      -0.160  13.760  19.781  0.00  0.00    +0.000 A 
ATOM     11  C   UNL     1       1.047  13.371  20.356  0.00  0.00    +0.000 A 
ATOM     12  C   UNL     1       1.604  12.136  20.026  0.00  0.00    +0.000 A 
ENDBRANCH   4   7
BRANCH   5  13
ATOM     13  N   UNL     1       0.615   8.876  20.965  0.00  0.00    +0.000 N 
ATOM     14  C   UNL     1      -0.753   9.375  21.057  0.00  0.00    +0.000 C 
ATOM     15  C   UNL     1      -0.713  10.310  22.258  0.00  0.00    +0.000 C 
ATOM     16  C   UNL     1       0.259   9.608  23.190  0.00  0.00    +0.000 C 
ATOM     17  C   UNL     1       1.324   9.062  22.244  0.00  0.00    +0.000 C 
ENDBRANCH   5  13
BRANCH   6  18
ATOM     18  C   UNL     1       2.191   6.460  19.633  0.00  0.00    +0.000 C 
ATOM     19  N   UNL     1       3.376   6.020  19.912  0.00  0.00    +0.000 NA
BRANCH  19  20
ATOM     20  N   UNL     1       3.480   4.703  20.254  0.00  0.00    +0.000 N 
ATOM     21  H   UNL     1       2.998   4.350  21.074  0.00  0.00    +0.000 HD
BRANCH  20  22
ATOM     22  C   UNL     1       4.366   3.854  19.589  0.00  0.00    +0.000 C 
ATOM     23  S   UNL     1       4.260   2.179  19.610  0.00  0.00    +0.000 S 
BRANCH  22  24
ATOM     24  N   UNL     1       5.390   4.593  19.000  0.00  0.00    +0.000 N 
ATOM     25  H   UNL     1       6.150   4.796  19.642  0.00  0.00    +0.000 HD
BRANCH  24  26
ATOM     26  C   UNL     1       5.767   4.595  17.636  0.00  0.00    +0.000 A 
ATOM     27  C   UNL     1       7.105   4.639  17.236  0.00  0.00    +0.000 A 
ATOM     28  C   UNL     1       7.435   4.572  15.879  0.00  0.00    +0.000 A 
ATOM     29  C   UNL     1       6.434   4.459  14.914  0.00  0.00    +0.000 A 
ATOM     30  C   UNL     1       5.096   4.401  15.305  0.00  0.00    +0.000 A 
ATOM     31  C   UNL     1       4.776   4.455  16.659  0.00  0.00    +0.000 A 
ATOM     32  F   UNL     1       3.485   4.392  17.025  0.00  0.00    +0.000 F 
ENDBRANCH  24  26
ENDBRANCH  22  24
ENDBRANCH  20  22
ENDBRANCH  19  20
ENDBRANCH   6  18
TORSDOF 7
ENDMDL
