MODEL 1
REMARK VINA RESULT:      -8.4      0.000      0.000
REMARK  Name = 
REMARK  8 active torsions:
REMARK  status: ('A' for Active; 'I' for Inactive)
REMARK    1  A    between atoms: C_1  and  C_2
REMARK    2  A    between atoms: C_2  and  C_3
REMARK    3  A    between atoms: C_3  and  O_4
REMARK    4  A    between atoms: O_4  and  C_5
REMARK    5  A    between atoms: C_8  and  S_9
REMARK    6  A    between atoms: S_9  and  N_12
REMARK    7  A    between atoms: N_12  and  N_13
REMARK    8  A    between atoms: C_14  and  C_16
REMARK                            x       y       z     vdW  Elec       q    Type
REMARK                         _______ _______ _______ _____ _____    ______ ____
ROOT
ATOM      1  N   UNL     1       7.290   6.188  16.538  0.00  0.00    +0.000 NA
ATOM      2  H   UNL     1       8.091   5.626  16.220  0.00  0.00    +0.000 HD
ENDROOT
BRANCH   1   3
ATOM      3  N   UNL     1       7.619   7.630  16.790  0.00  0.00    +0.000 N 
ATOM      4  C   UNL     1       8.123   7.897  18.059  0.00  0.00    +0.000 C 
ATOM      5  O   UNL     1       8.201   6.949  18.856  0.00  0.00    +0.000 OA
ATOM      6  H   UNL     1       7.571   8.301  16.028  0.00  0.00    +0.000 HD
BRANCH   4   7
ATOM      7  C   UNL     1       8.595   9.220  18.431  0.00  0.00    +0.000 A 
ATOM      8  C   UNL     1       8.440  10.368  17.672  0.00  0.00    +0.000 A 
ATOM      9  C   UNL     1       9.013  11.441  18.378  0.00  0.00    +0.000 A 
ATOM     10  C   UNL     1       9.132  12.823  18.141  0.00  0.00    +0.000 A 
ATOM     11  C   UNL     1       9.804  13.614  19.075  0.00  0.00    +0.000 A 
ATOM     12  C   UNL     1      10.358  13.036  20.220  0.00  0.00    +0.000 A 
ATOM     13  C   UNL     1      10.243  11.657  20.480  0.00  0.00    +0.000 A 
ATOM     14  C   UNL     1       9.543  10.890  19.539  0.00  0.00    +0.000 A 
ATOM     15  O   UNL     1       9.282   9.529  19.584  0.00  0.00    +0.000 OA
ENDBRANCH   4   7
ENDBRANCH   1   3
BRANCH   1  16
ATOM     16  S   UNL     1       5.757   5.702  16.016  0.00  0.00    +0.000 S 
ATOM     17  O   UNL     1       5.915   4.404  15.396  0.00  0.00    +0.000 OA
ATOM     18  O   UNL     1       5.155   6.812  15.311  0.00  0.00    +0.000 OA
BRANCH  16  22
ATOM     19  C   UNL     1       3.255   5.121  19.851  0.00  0.00    +0.000 A 
ATOM     20  C   UNL     1       3.068   6.231  19.012  0.00  0.00    +0.000 A 
ATOM     21  C   UNL     1       3.854   6.402  17.863  0.00  0.00    +0.000 A 
ATOM     22  C   UNL     1       4.848   5.478  17.543  0.00  0.00    +0.000 A 
ATOM     23  C   UNL     1       5.057   4.371  18.376  0.00  0.00    +0.000 A 
ATOM     24  C   UNL     1       4.258   4.198  19.528  0.00  0.00    +0.000 A 
BRANCH  19  25
ATOM     25  O   UNL     1       2.510   4.860  20.982  0.00  0.00    +0.000 OA
BRANCH  25  26
ATOM     26  C   UNL     1       1.838   3.592  20.983  0.00  0.00    +0.000 C 
BRANCH  26  28
ATOM     27  C   UNL     1       0.953   2.457  18.935  0.00  0.00    +0.000 C 
ATOM     28  C   UNL     1       0.689   3.541  19.977  0.00  0.00    +0.000 C 
ENDBRANCH  26  28
ENDBRANCH  25  26
ENDBRANCH  19  25
ENDBRANCH  16  22
ENDBRANCH   1  16
TORSDOF 7
ENDMDL
MODEL 2
REMARK VINA RESULT:      -8.2      1.295      1.849
REMARK  Name = 
REMARK  8 active torsions:
REMARK  status: ('A' for Active; 'I' for Inactive)
REMARK    1  A    between atoms: C_1  and  C_2
REMARK    2  A    between atoms: C_2  and  C_3
REMARK    3  A    between atoms: C_3  and  O_4
REMARK    4  A    between atoms: O_4  and  C_5
REMARK    5  A    between atoms: C_8  and  S_9
REMARK    6  A    between atoms: S_9  and  N_12
REMARK    7  A    between atoms: N_12  and  N_13
REMARK    8  A    between atoms: C_14  and  C_16
REMARK                            x       y       z     vdW  Elec       q    Type
REMARK                         _______ _______ _______ _____ _____    ______ ____
ROOT
ATOM      1  N   UNL     1       7.358   6.373  16.732  0.00  0.00    +0.000 NA
ATOM      2  H   UNL     1       8.224   5.817  16.732  0.00  0.00    +0.000 HD
ENDROOT
BRANCH   1   3
ATOM      3  N   UNL     1       7.581   7.847  16.897  0.00  0.00    +0.000 N 
ATOM      4  C   UNL     1       8.214   8.209  18.081  0.00  0.00    +0.000 C 
ATOM      5  O   UNL     1       8.482   7.306  18.888  0.00  0.00    +0.000 OA
ATOM      6  H   UNL     1       7.372   8.480  16.129  0.00  0.00    +0.000 HD
BRANCH   4   7
ATOM      7  C   UNL     1       8.604   9.583  18.350  0.00  0.00    +0.000 A 
ATOM      8  C   UNL     1       9.315  10.011  19.459  0.00  0.00    +0.000 A 
ATOM      9  C   UNL     1       9.508  11.399  19.347  0.00  0.00    +0.000 A 
ATOM     10  C   UNL     1      10.170  12.366  20.126  0.00  0.00    +0.000 A 
ATOM     11  C   UNL     1      10.144  13.700  19.714  0.00  0.00    +0.000 A 
ATOM     12  C   UNL     1       9.460  14.066  18.552  0.00  0.00    +0.000 A 
ATOM     13  C   UNL     1       8.799  13.113  17.754  0.00  0.00    +0.000 A 
ATOM     14  C   UNL     1       8.861  11.778  18.176  0.00  0.00    +0.000 A 
ATOM     15  O   UNL     1       8.312  10.668  17.553  0.00  0.00    +0.000 OA
ENDBRANCH   4   7
ENDBRANCH   1   3
BRANCH   1  16
ATOM     16  S   UNL     1       6.056   5.761  15.845  0.00  0.00    +0.000 S 
ATOM     17  O   UNL     1       6.607   4.876  14.841  0.00  0.00    +0.000 OA
ATOM     18  O   UNL     1       5.199   6.871  15.489  0.00  0.00    +0.000 OA
BRANCH  16  22
ATOM     19  C   UNL     1       3.834   3.027  18.826  0.00  0.00    +0.000 A 
ATOM     20  C   UNL     1       3.520   3.031  17.459  0.00  0.00    +0.000 A 
ATOM     21  C   UNL     1       4.191   3.885  16.571  0.00  0.00    +0.000 A 
ATOM     22  C   UNL     1       5.172   4.760  17.038  0.00  0.00    +0.000 A 
ATOM     23  C   UNL     1       5.488   4.779  18.403  0.00  0.00    +0.000 A 
ATOM     24  C   UNL     1       4.816   3.911  19.292  0.00  0.00    +0.000 A 
BRANCH  19  25
ATOM     25  O   UNL     1       3.247   2.202  19.763  0.00  0.00    +0.000 OA
BRANCH  25  26
ATOM     26  C   UNL     1       1.836   2.394  19.938  0.00  0.00    +0.000 C 
BRANCH  26  28
ATOM     27  C   UNL     1       1.305   4.733  20.656  0.00  0.00    +0.000 C 
ATOM     28  C   UNL     1       1.514   3.296  21.129  0.00  0.00    +0.000 C 
ENDBRANCH  26  28
ENDBRANCH  25  26
ENDBRANCH  19  25
ENDBRANCH  16  22
ENDBRANCH   1  16
TORSDOF 7
ENDMDL
MODEL 3
REMARK VINA RESULT:      -8.2      0.600      1.501
REMARK  Name = 
REMARK  8 active torsions:
REMARK  status: ('A' for Active; 'I' for Inactive)
REMARK    1  A    between atoms: C_1  and  C_2
REMARK    2  A    between atoms: C_2  and  C_3
REMARK    3  A    between atoms: C_3  and  O_4
REMARK    4  A    between atoms: O_4  and  C_5
REMARK    5  A    between atoms: C_8  and  S_9
REMARK    6  A    between atoms: S_9  and  N_12
REMARK    7  A    between atoms: N_12  and  N_13
REMARK    8  A    between atoms: C_14  and  C_16
REMARK                            x       y       z     vdW  Elec       q    Type
REMARK                         _______ _______ _______ _____ _____    ______ ____
ROOT
ATOM      1  N   UNL     1       7.299   6.325  16.595  0.00  0.00    +0.000 NA
ATOM      2  H   UNL     1       8.131   5.750  16.404  0.00  0.00    +0.000 HD
ENDROOT
BRANCH   1   3
ATOM      3  N   UNL     1       7.599   7.781  16.798  0.00  0.00    +0.000 N 
ATOM      4  C   UNL     1       8.152   8.092  18.035  0.00  0.00    +0.000 C 
ATOM      5  O   UNL     1       8.294   7.167  18.850  0.00  0.00    +0.000 OA
ATOM      6  H   UNL     1       7.496   8.432  16.025  0.00  0.00    +0.000 HD
BRANCH   4   7
ATOM      7  C   UNL     1       8.603   9.436  18.355  0.00  0.00    +0.000 A 
ATOM      8  C   UNL     1       9.282   9.800  19.506  0.00  0.00    +0.000 A 
ATOM      9  C   UNL     1       9.556  11.178  19.436  0.00  0.00    +0.000 A 
ATOM     10  C   UNL     1      10.231  12.090  20.268  0.00  0.00    +0.000 A 
ATOM     11  C   UNL     1      10.298  13.432  19.887  0.00  0.00    +0.000 A 
ATOM     12  C   UNL     1       9.692  13.860  18.703  0.00  0.00    +0.000 A 
ATOM     13  C   UNL     1       9.019  12.961  17.853  0.00  0.00    +0.000 A 
ATOM     14  C   UNL     1       8.988  11.616  18.245  0.00  0.00    +0.000 A 
ATOM     15  O   UNL     1       8.409  10.552  17.571  0.00  0.00    +0.000 OA
ENDBRANCH   4   7
ENDBRANCH   1   3
BRANCH   1  16
ATOM     16  S   UNL     1       5.836   5.799  15.932  0.00  0.00    +0.000 S 
ATOM     17  O   UNL     1       6.092   4.520  15.305  0.00  0.00    +0.000 OA
ATOM     18  O   UNL     1       5.260   6.903  15.196  0.00  0.00    +0.000 OA
BRANCH  16  22
ATOM     19  C   UNL     1       3.326   5.115  19.744  0.00  0.00    +0.000 A 
ATOM     20  C   UNL     1       4.512   4.403  19.507  0.00  0.00    +0.000 A 
ATOM     21  C   UNL     1       5.249   4.608  18.332  0.00  0.00    +0.000 A 
ATOM     22  C   UNL     1       4.805   5.514  17.368  0.00  0.00    +0.000 A 
ATOM     23  C   UNL     1       3.617   6.224  17.583  0.00  0.00    +0.000 A 
ATOM     24  C   UNL     1       2.882   6.020  18.772  0.00  0.00    +0.000 A 
BRANCH  19  25
ATOM     25  O   UNL     1       2.556   4.998  20.882  0.00  0.00    +0.000 OA
BRANCH  25  26
ATOM     26  C   UNL     1       2.020   3.688  21.118  0.00  0.00    +0.000 C 
BRANCH  26  28
ATOM     27  C   UNL     1       1.129   2.375  19.182  0.00  0.00    +0.000 C 
ATOM     28  C   UNL     1       0.788   3.399  20.261  0.00  0.00    +0.000 C 
ENDBRANCH  26  28
ENDBRANCH  25  26
ENDBRANCH  19  25
ENDBRANCH  16  22
ENDBRANCH   1  16
TORSDOF 7
ENDMDL
MODEL 4
REMARK VINA RESULT:      -8.0      1.052      1.531
REMARK  Name = 
REMARK  8 active torsions:
REMARK  status: ('A' for Active; 'I' for Inactive)
REMARK    1  A    between atoms: C_1  and  C_2
REMARK    2  A    between atoms: C_2  and  C_3
REMARK    3  A    between atoms: C_3  and  O_4
REMARK    4  A    between atoms: O_4  and  C_5
REMARK    5  A    between atoms: C_8  and  S_9
REMARK    6  A    between atoms: S_9  and  N_12
REMARK    7  A    between atoms: N_12  and  N_13
REMARK    8  A    between atoms: C_14  and  C_16
REMARK                            x       y       z     vdW  Elec       q    Type
REMARK                         _______ _______ _______ _____ _____    ______ ____
ROOT
ATOM      1  N   UNL     1       6.808   6.254  17.018  0.00  0.00    +0.000 NA
ATOM      2  H   UNL     1       7.558   5.601  17.284  0.00  0.00    +0.000 HD
ENDROOT
BRANCH   1   3
ATOM      3  N   UNL     1       7.178   7.700  17.172  0.00  0.00    +0.000 N 
ATOM      4  C   UNL     1       8.056   7.966  18.217  0.00  0.00    +0.000 C 
ATOM      5  O   UNL     1       8.400   7.013  18.934  0.00  0.00    +0.000 OA
ATOM      6  H   UNL     1       6.878   8.377  16.475  0.00  0.00    +0.000 HD
BRANCH   4   7
ATOM      7  C   UNL     1       8.601   9.295  18.438  0.00  0.00    +0.000 A 
ATOM      8  C   UNL     1       8.405  10.388  17.611  0.00  0.00    +0.000 A 
ATOM      9  C   UNL     1       9.077  11.489  18.173  0.00  0.00    +0.000 A 
ATOM     10  C   UNL     1       9.212  12.844  17.819  0.00  0.00    +0.000 A 
ATOM     11  C   UNL     1       9.995  13.678  18.619  0.00  0.00    +0.000 A 
ATOM     12  C   UNL     1      10.644  13.166  19.746  0.00  0.00    +0.000 A 
ATOM     13  C   UNL     1      10.515  11.815  20.122  0.00  0.00    +0.000 A 
ATOM     14  C   UNL     1       9.703  11.006  19.316  0.00  0.00    +0.000 A 
ATOM     15  O   UNL     1       9.408   9.663  19.492  0.00  0.00    +0.000 OA
ENDBRANCH   4   7
ENDBRANCH   1   3
BRANCH   1  16
ATOM     16  S   UNL     1       5.723   5.733  15.832  0.00  0.00    +0.000 S 
ATOM     17  O   UNL     1       6.305   4.561  15.213  0.00  0.00    +0.000 OA
ATOM     18  O   UNL     1       5.328   6.885  15.053  0.00  0.00    +0.000 OA
BRANCH  16  22
ATOM     19  C   UNL     1       2.152   4.249  18.352  0.00  0.00    +0.000 A 
ATOM     20  C   UNL     1       2.846   3.391  17.485  0.00  0.00    +0.000 A 
ATOM     21  C   UNL     1       3.914   3.866  16.710  0.00  0.00    +0.000 A 
ATOM     22  C   UNL     1       4.295   5.206  16.776  0.00  0.00    +0.000 A 
ATOM     23  C   UNL     1       3.604   6.079  17.627  0.00  0.00    +0.000 A 
ATOM     24  C   UNL     1       2.534   5.595  18.411  0.00  0.00    +0.000 A 
BRANCH  19  25
ATOM     25  O   UNL     1       1.112   3.861  19.170  0.00  0.00    +0.000 OA
BRANCH  25  26
ATOM     26  C   UNL     1       1.280   2.583  19.799  0.00  0.00    +0.000 C 
BRANCH  26  28
ATOM     27  C   UNL     1       2.338   3.693  21.776  0.00  0.00    +0.000 C 
ATOM     28  C   UNL     1       1.290   2.680  21.324  0.00  0.00    +0.000 C 
ENDBRANCH  26  28
ENDBRANCH  25  26
ENDBRANCH  19  25
ENDBRANCH  16  22
ENDBRANCH   1  16
TORSDOF 7
ENDMDL
MODEL 5
REMARK VINA RESULT:      -8.0      1.175      1.422
REMARK  Name = 
REMARK  8 active torsions:
REMARK  status: ('A' for Active; 'I' for Inactive)
REMARK    1  A    between atoms: C_1  and  C_2
REMARK    2  A    between atoms: C_2  and  C_3
REMARK    3  A    between atoms: C_3  and  O_4
REMARK    4  A    between atoms: O_4  and  C_5
REMARK    5  A    between atoms: C_8  and  S_9
REMARK    6  A    between atoms: S_9  and  N_12
REMARK    7  A    between atoms: N_12  and  N_13
REMARK    8  A    between atoms: C_14  and  C_16
REMARK                            x       y       z     vdW  Elec       q    Type
REMARK                         _______ _______ _______ _____ _____    ______ ____
ROOT
ATOM      1  N   UNL     1       6.740   6.281  17.200  0.00  0.00    +0.000 NA
ATOM      2  H   UNL     1       7.442   5.623  17.568  0.00  0.00    +0.000 HD
ENDROOT
BRANCH   1   3
ATOM      3  N   UNL     1       7.131   7.723  17.331  0.00  0.00    +0.000 N 
ATOM      4  C   UNL     1       8.086   7.979  18.309  0.00  0.00    +0.000 C 
ATOM      5  O   UNL     1       8.475   7.022  18.996  0.00  0.00    +0.000 OA
ATOM      6  H   UNL     1       6.786   8.404  16.660  0.00  0.00    +0.000 HD
BRANCH   4   7
ATOM      7  C   UNL     1       8.656   9.304  18.493  0.00  0.00    +0.000 A 
ATOM      8  C   UNL     1       8.536  10.357  17.602  0.00  0.00    +0.000 A 
ATOM      9  C   UNL     1       9.207  11.468  18.144  0.00  0.00    +0.000 A 
ATOM     10  C   UNL     1       9.400  12.798  17.730  0.00  0.00    +0.000 A 
ATOM     11  C   UNL     1      10.162  13.653  18.531  0.00  0.00    +0.000 A 
ATOM     12  C   UNL     1      10.732  13.184  19.717  0.00  0.00    +0.000 A 
ATOM     13  C   UNL     1      10.544  11.859  20.153  0.00  0.00    +0.000 A 
ATOM     14  C   UNL     1       9.755  11.030  19.344  0.00  0.00    +0.000 A 
ATOM     15  O   UNL     1       9.413   9.706  19.571  0.00  0.00    +0.000 OA
ENDBRANCH   4   7
ENDBRANCH   1   3
BRANCH   1  16
ATOM     16  S   UNL     1       5.765   5.731  15.933  0.00  0.00    +0.000 S 
ATOM     17  O   UNL     1       6.488   4.663  15.277  0.00  0.00    +0.000 OA
ATOM     18  O   UNL     1       5.292   6.887  15.204  0.00  0.00    +0.000 OA
BRANCH  16  22
ATOM     19  C   UNL     1       2.024   3.996  18.004  0.00  0.00    +0.000 A 
ATOM     20  C   UNL     1       2.375   5.348  18.134  0.00  0.00    +0.000 A 
ATOM     21  C   UNL     1       3.528   5.852  17.516  0.00  0.00    +0.000 A 
ATOM     22  C   UNL     1       4.357   5.012  16.773  0.00  0.00    +0.000 A 
ATOM     23  C   UNL     1       4.028   3.656  16.644  0.00  0.00    +0.000 A 
ATOM     24  C   UNL     1       2.861   3.154  17.262  0.00  0.00    +0.000 A 
BRANCH  19  25
ATOM     25  O   UNL     1       0.895   3.424  18.552  0.00  0.00    +0.000 OA
BRANCH  25  26
ATOM     26  C   UNL     1       0.759   3.592  19.971  0.00  0.00    +0.000 C 
BRANCH  26  28
ATOM     27  C   UNL     1       2.318   3.294  21.906  0.00  0.00    +0.000 C 
ATOM     28  C   UNL     1       1.598   2.588  20.760  0.00  0.00    +0.000 C 
ENDBRANCH  26  28
ENDBRANCH  25  26
ENDBRANCH  19  25
ENDBRANCH  16  22
ENDBRANCH   1  16
TORSDOF 7
ENDMDL
MODEL 6
REMARK VINA RESULT:      -8.0      1.219      1.597
REMARK  Name = 
REMARK  8 active torsions:
REMARK  status: ('A' for Active; 'I' for Inactive)
REMARK    1  A    between atoms: C_1  and  C_2
REMARK    2  A    between atoms: C_2  and  C_3
REMARK    3  A    between atoms: C_3  and  O_4
REMARK    4  A    between atoms: O_4  and  C_5
REMARK    5  A    between atoms: C_8  and  S_9
REMARK    6  A    between atoms: S_9  and  N_12
REMARK    7  A    between atoms: N_12  and  N_13
REMARK    8  A    between atoms: C_14  and  C_16
REMARK                            x       y       z     vdW  Elec       q    Type
REMARK                         _______ _______ _______ _____ _____    ______ ____
ROOT
ATOM      1  N   UNL     1       7.093   6.417  16.905  0.00  0.00    +0.000 NA
ATOM      2  H   UNL     1       7.895   5.782  17.016  0.00  0.00    +0.000 HD
ENDROOT
BRANCH   1   3
ATOM      3  N   UNL     1       7.437   7.867  17.077  0.00  0.00    +0.000 N 
ATOM      4  C   UNL     1       8.187   8.155  18.212  0.00  0.00    +0.000 C 
ATOM      5  O   UNL     1       8.449   7.217  18.980  0.00  0.00    +0.000 OA
ATOM      6  H   UNL     1       7.216   8.531  16.339  0.00  0.00    +0.000 HD
BRANCH   4   7
ATOM      7  C   UNL     1       8.697   9.491  18.473  0.00  0.00    +0.000 A 
ATOM      8  C   UNL     1       8.525  10.589  17.646  0.00  0.00    +0.000 A 
ATOM      9  C   UNL     1       9.149  11.695  18.251  0.00  0.00    +0.000 A 
ATOM     10  C   UNL     1       9.279  13.055  17.917  0.00  0.00    +0.000 A 
ATOM     11  C   UNL     1      10.006  13.894  18.764  0.00  0.00    +0.000 A 
ATOM     12  C   UNL     1      10.604  13.383  19.918  0.00  0.00    +0.000 A 
ATOM     13  C   UNL     1      10.479  12.026  20.275  0.00  0.00    +0.000 A 
ATOM     14  C   UNL     1       9.723  11.212  19.421  0.00  0.00    +0.000 A 
ATOM     15  O   UNL     1       9.442   9.863  19.570  0.00  0.00    +0.000 OA
ENDBRANCH   4   7
ENDBRANCH   1   3
BRANCH   1  16
ATOM     16  S   UNL     1       5.850   5.911  15.877  0.00  0.00    +0.000 S 
ATOM     17  O   UNL     1       6.476   5.242  14.756  0.00  0.00    +0.000 OA
ATOM     18  O   UNL     1       4.947   7.024  15.689  0.00  0.00    +0.000 OA
BRANCH  16  22
ATOM     19  C   UNL     1       3.595   2.859  18.504  0.00  0.00    +0.000 A 
ATOM     20  C   UNL     1       4.755   3.504  18.958  0.00  0.00    +0.000 A 
ATOM     21  C   UNL     1       5.440   4.411  18.137  0.00  0.00    +0.000 A 
ATOM     22  C   UNL     1       4.987   4.676  16.845  0.00  0.00    +0.000 A 
ATOM     23  C   UNL     1       3.837   4.030  16.371  0.00  0.00    +0.000 A 
ATOM     24  C   UNL     1       3.146   3.124  17.204  0.00  0.00    +0.000 A 
BRANCH  19  25
ATOM     25  O   UNL     1       2.845   1.977  19.253  0.00  0.00    +0.000 OA
BRANCH  25  26
ATOM     26  C   UNL     1       1.496   2.395  19.509  0.00  0.00    +0.000 C 
BRANCH  26  28
ATOM     27  C   UNL     1       1.244   4.631  20.608  0.00  0.00    +0.000 C 
ATOM     28  C   UNL     1       1.357   3.127  20.844  0.00  0.00    +0.000 C 
ENDBRANCH  26  28
ENDBRANCH  25  26
ENDBRANCH  19  25
ENDBRANCH  16  22
ENDBRANCH   1  16
TORSDOF 7
ENDMDL
MODEL 7
REMARK VINA RESULT:      -7.9      1.924      2.443
REMARK  Name = 
REMARK  8 active torsions:
REMARK  status: ('A' for Active; 'I' for Inactive)
REMARK    1  A    between atoms: C_1  and  C_2
REMARK    2  A    between atoms: C_2  and  C_3
REMARK    3  A    between atoms: C_3  and  O_4
REMARK    4  A    between atoms: O_4  and  C_5
REMARK    5  A    between atoms: C_8  and  S_9
REMARK    6  A    between atoms: S_9  and  N_12
REMARK    7  A    between atoms: N_12  and  N_13
REMARK    8  A    between atoms: C_14  and  C_16
REMARK                            x       y       z     vdW  Elec       q    Type
REMARK                         _______ _______ _______ _____ _____    ______ ____
ROOT
ATOM      1  N   UNL     1       7.422   6.439  18.690  0.00  0.00    +0.000 NA
ATOM      2  H   UNL     1       7.061   6.085  19.587  0.00  0.00    +0.000 HD
ENDROOT
BRANCH   1   3
ATOM      3  N   UNL     1       8.516   7.455  18.833  0.00  0.00    +0.000 N 
ATOM      4  C   UNL     1       8.206   8.716  18.335  0.00  0.00    +0.000 C 
ATOM      5  O   UNL     1       7.101   8.861  17.790  0.00  0.00    +0.000 OA
ATOM      6  H   UNL     1       9.355   7.226  19.360  0.00  0.00    +0.000 HD
BRANCH   4   7
ATOM      7  C   UNL     1       9.109   9.843  18.491  0.00  0.00    +0.000 A 
ATOM      8  C   UNL     1       9.569  10.340  19.700  0.00  0.00    +0.000 A 
ATOM      9  C   UNL     1      10.432  11.417  19.432  0.00  0.00    +0.000 A 
ATOM     10  C   UNL     1      11.210  12.276  20.230  0.00  0.00    +0.000 A 
ATOM     11  C   UNL     1      11.957  13.282  19.612  0.00  0.00    +0.000 A 
ATOM     12  C   UNL     1      11.918  13.437  18.224  0.00  0.00    +0.000 A 
ATOM     13  C   UNL     1      11.153  12.582  17.408  0.00  0.00    +0.000 A 
ATOM     14  C   UNL     1      10.433  11.566  18.050  0.00  0.00    +0.000 A 
ATOM     15  O   UNL     1       9.632  10.598  17.464  0.00  0.00    +0.000 OA
ENDBRANCH   4   7
ENDBRANCH   1   3
BRANCH   1  16
ATOM     16  S   UNL     1       7.346   5.390  17.366  0.00  0.00    +0.000 S 
ATOM     17  O   UNL     1       8.167   4.243  17.689  0.00  0.00    +0.000 OA
ATOM     18  O   UNL     1       7.568   6.169  16.169  0.00  0.00    +0.000 OA
BRANCH  16  22
ATOM     19  C   UNL     1       2.995   3.849  17.390  0.00  0.00    +0.000 A 
ATOM     20  C   UNL     1       3.977   3.267  16.574  0.00  0.00    +0.000 A 
ATOM     21  C   UNL     1       5.288   3.763  16.564  0.00  0.00    +0.000 A 
ATOM     22  C   UNL     1       5.636   4.859  17.354  0.00  0.00    +0.000 A 
ATOM     23  C   UNL     1       4.664   5.461  18.164  0.00  0.00    +0.000 A 
ATOM     24  C   UNL     1       3.347   4.953  18.178  0.00  0.00    +0.000 A 
BRANCH  19  25
ATOM     25  O   UNL     1       1.692   3.409  17.484  0.00  0.00    +0.000 OA
BRANCH  25  26
ATOM     26  C   UNL     1       1.035   3.724  18.720  0.00  0.00    +0.000 C 
BRANCH  26  28
ATOM     27  C   UNL     1       1.532   3.025  21.071  0.00  0.00    +0.000 C 
ATOM     28  C   UNL     1       1.048   2.554  19.702  0.00  0.00    +0.000 C 
ENDBRANCH  26  28
ENDBRANCH  25  26
ENDBRANCH  19  25
ENDBRANCH  16  22
ENDBRANCH   1  16
TORSDOF 7
ENDMDL
MODEL 8
REMARK VINA RESULT:      -7.9      0.409      1.019
REMARK  Name = 
REMARK  8 active torsions:
REMARK  status: ('A' for Active; 'I' for Inactive)
REMARK    1  A    between atoms: C_1  and  C_2
REMARK    2  A    between atoms: C_2  and  C_3
REMARK    3  A    between atoms: C_3  and  O_4
REMARK    4  A    between atoms: O_4  and  C_5
REMARK    5  A    between atoms: C_8  and  S_9
REMARK    6  A    between atoms: S_9  and  N_12
REMARK    7  A    between atoms: N_12  and  N_13
REMARK    8  A    between atoms: C_14  and  C_16
REMARK                            x       y       z     vdW  Elec       q    Type
REMARK                         _______ _______ _______ _____ _____    ______ ____
ROOT
ATOM      1  N   UNL     1       7.316   6.115  16.606  0.00  0.00    +0.000 NA
ATOM      2  H   UNL     1       8.132   5.515  16.421  0.00  0.00    +0.000 HD
ENDROOT
BRANCH   1   3
ATOM      3  N   UNL     1       7.657   7.562  16.808  0.00  0.00    +0.000 N 
ATOM      4  C   UNL     1       8.130   7.874  18.078  0.00  0.00    +0.000 C 
ATOM      5  O   UNL     1       8.177   6.959  18.915  0.00  0.00    +0.000 OA
ATOM      6  H   UNL     1       7.636   8.202  16.019  0.00  0.00    +0.000 HD
BRANCH   4   7
ATOM      7  C   UNL     1       8.609   9.206  18.409  0.00  0.00    +0.000 A 
ATOM      8  C   UNL     1       8.389  10.346  17.655  0.00  0.00    +0.000 A 
ATOM      9  C   UNL     1       8.994  11.431  18.314  0.00  0.00    +0.000 A 
ATOM     10  C   UNL     1       9.078  12.813  18.060  0.00  0.00    +0.000 A 
ATOM     11  C   UNL     1       9.800  13.620  18.943  0.00  0.00    +0.000 A 
ATOM     12  C   UNL     1      10.437  13.057  20.051  0.00  0.00    +0.000 A 
ATOM     13  C   UNL     1      10.357  11.679  20.328  0.00  0.00    +0.000 A 
ATOM     14  C   UNL     1       9.606  10.895  19.441  0.00  0.00    +0.000 A 
ATOM     15  O   UNL     1       9.367   9.532  19.512  0.00  0.00    +0.000 OA
ENDBRANCH   4   7
ENDBRANCH   1   3
BRANCH   1  16
ATOM     16  S   UNL     1       5.843   5.631  15.933  0.00  0.00    +0.000 S 
ATOM     17  O   UNL     1       6.075   4.363  15.275  0.00  0.00    +0.000 OA
ATOM     18  O   UNL     1       5.285   6.762  15.225  0.00  0.00    +0.000 OA
BRANCH  16  22
ATOM     19  C   UNL     1       3.311   4.940  19.730  0.00  0.00    +0.000 A 
ATOM     20  C   UNL     1       4.609   4.422  19.608  0.00  0.00    +0.000 A 
ATOM     21  C   UNL     1       5.355   4.623  18.437  0.00  0.00    +0.000 A 
ATOM     22  C   UNL     1       4.810   5.329  17.365  0.00  0.00    +0.000 A 
ATOM     23  C   UNL     1       3.510   5.842  17.465  0.00  0.00    +0.000 A 
ATOM     24  C   UNL     1       2.766   5.645  18.648  0.00  0.00    +0.000 A 
BRANCH  19  25
ATOM     25  O   UNL     1       2.520   4.816  20.852  0.00  0.00    +0.000 OA
BRANCH  25  26
ATOM     26  C   UNL     1       2.424   3.485  21.380  0.00  0.00    +0.000 C 
BRANCH  26  28
ATOM     27  C   UNL     1       0.539   2.972  19.815  0.00  0.00    +0.000 C 
ATOM     28  C   UNL     1       1.882   2.489  20.355  0.00  0.00    +0.000 C 
ENDBRANCH  26  28
ENDBRANCH  25  26
ENDBRANCH  19  25
ENDBRANCH  16  22
ENDBRANCH   1  16
TORSDOF 7
ENDMDL
MODEL 9
REMARK VINA RESULT:      -7.8      1.876      2.277
REMARK  Name = 
REMARK  8 active torsions:
REMARK  status: ('A' for Active; 'I' for Inactive)
REMARK    1  A    between atoms: C_1  and  C_2
REMARK    2  A    between atoms: C_2  and  C_3
REMARK    3  A    between atoms: C_3  and  O_4
REMARK    4  A    between atoms: O_4  and  C_5
REMARK    5  A    between atoms: C_8  and  S_9
REMARK    6  A    between atoms: S_9  and  N_12
REMARK    7  A    between atoms: N_12  and  N_13
REMARK    8  A    between atoms: C_14  and  C_16
REMARK                            x       y       z     vdW  Elec       q    Type
REMARK                         _______ _______ _______ _____ _____    ______ ____
ROOT
ATOM      1  N   UNL     1       7.451   6.507  18.662  0.00  0.00    +0.000 NA
ATOM      2  H   UNL     1       7.172   6.097  19.565  0.00  0.00    +0.000 HD
ENDROOT
BRANCH   1   3
ATOM      3  N   UNL     1       8.565   7.507  18.765  0.00  0.00    +0.000 N 
ATOM      4  C   UNL     1       8.233   8.790  18.348  0.00  0.00    +0.000 C 
ATOM      5  O   UNL     1       7.091   8.969  17.894  0.00  0.00    +0.000 OA
ATOM      6  H   UNL     1       9.438   7.247  19.217  0.00  0.00    +0.000 HD
BRANCH   4   7
ATOM      7  C   UNL     1       9.159   9.902  18.483  0.00  0.00    +0.000 A 
ATOM      8  C   UNL     1       9.623  10.416  19.683  0.00  0.00    +0.000 A 
ATOM      9  C   UNL     1      10.509  11.469  19.395  0.00  0.00    +0.000 A 
ATOM     10  C   UNL     1      11.301  12.329  20.178  0.00  0.00    +0.000 A 
ATOM     11  C   UNL     1      12.071  13.305  19.542  0.00  0.00    +0.000 A 
ATOM     12  C   UNL     1      12.042  13.431  18.151  0.00  0.00    +0.000 A 
ATOM     13  C   UNL     1      11.263  12.574  17.349  0.00  0.00    +0.000 A 
ATOM     14  C   UNL     1      10.520  11.587  18.010  0.00  0.00    +0.000 A 
ATOM     15  O   UNL     1       9.701  10.623  17.442  0.00  0.00    +0.000 OA
ENDBRANCH   4   7
ENDBRANCH   1   3
BRANCH   1  16
ATOM     16  S   UNL     1       7.239   5.546  17.287  0.00  0.00    +0.000 S 
ATOM     17  O   UNL     1       8.106   4.397  17.437  0.00  0.00    +0.000 OA
ATOM     18  O   UNL     1       7.314   6.407  16.128  0.00  0.00    +0.000 OA
BRANCH  16  22
ATOM     19  C   UNL     1       2.820   4.240  17.549  0.00  0.00    +0.000 A 
ATOM     20  C   UNL     1       3.246   5.492  18.019  0.00  0.00    +0.000 A 
ATOM     21  C   UNL     1       4.597   5.862  17.951  0.00  0.00    +0.000 A 
ATOM     22  C   UNL     1       5.545   4.982  17.430  0.00  0.00    +0.000 A 
ATOM     23  C   UNL     1       5.140   3.723  16.969  0.00  0.00    +0.000 A 
ATOM     24  C   UNL     1       3.777   3.358  17.031  0.00  0.00    +0.000 A 
BRANCH  19  25
ATOM     25  O   UNL     1       1.511   3.806  17.550  0.00  0.00    +0.000 OA
BRANCH  25  26
ATOM     26  C   UNL     1       1.269   2.614  18.311  0.00  0.00    +0.000 C 
BRANCH  26  28
ATOM     27  C   UNL     1       0.841   3.958  20.378  0.00  0.00    +0.000 C 
ATOM     28  C   UNL     1       1.619   2.785  19.789  0.00  0.00    +0.000 C 
ENDBRANCH  26  28
ENDBRANCH  25  26
ENDBRANCH  19  25
ENDBRANCH  16  22
ENDBRANCH   1  16
TORSDOF 7
ENDMDL
