MODEL 1
REMARK VINA RESULT:      -7.9      0.000      0.000
REMARK  Name = 
REMARK  14 active torsions:
REMARK  status: ('A' for Active; 'I' for Inactive)
REMARK    1  A    between atoms: C_1  and  C_2
REMARK    2  A    between atoms: C_2  and  C_3
REMARK    3  A    between atoms: C_6  and  S_7
REMARK    4  A    between atoms: S_7  and  N_10
REMARK    5  A    between atoms: N_10  and  C_11
REMARK    6  A    between atoms: C_11  and  C_12
REMARK    7  A    between atoms: C_15  and  C_16
REMARK    8  A    between atoms: N_18  and  C_19
REMARK    9  A    between atoms: C_19  and  C_20
REMARK   10  A    between atoms: C_20  and  N_21
REMARK   11  A    between atoms: N_21  and  C_22
REMARK   12  A    between atoms: N_21  and  C_23
REMARK   13  A    between atoms: C_23  and  C_24
REMARK   14  A    between atoms: C_23  and  C_25
REMARK                            x       y       z     vdW  Elec       q    Type
REMARK                         _______ _______ _______ _____ _____    ______ ____
ROOT
ATOM      1  C   UNL     1       3.126   7.122  18.557  0.00  0.00    +0.000 A 
ATOM      2  C   UNL     1       2.457   8.334  18.348  0.00  0.00    +0.000 A 
ATOM      3  C   UNL     1       1.530   8.804  19.278  0.00  0.00    +0.000 A 
ATOM      4  C   UNL     1       1.228   8.064  20.428  0.00  0.00    +0.000 A 
ATOM      5  C   UNL     1       1.858   6.832  20.622  0.00  0.00    +0.000 A 
ATOM      6  C   UNL     1       2.797   6.365  19.693  0.00  0.00    +0.000 A 
ENDROOT
BRANCH   4   7
ATOM      7  C   UNL     1       0.246   8.662  21.379  0.00  0.00    +0.000 C 
ATOM      8  O   UNL     1      -0.826   8.101  21.577  0.00  0.00    +0.000 OA
ATOM      9  N   UNL     1       0.591   9.831  22.014  0.00  0.00    +0.000 N 
ATOM     10  H   UNL     1       1.439  10.339  21.814  0.00  0.00    +0.000 HD
BRANCH   9  11
ATOM     11  C   UNL     1      -0.335  10.481  22.921  0.00  0.00    +0.000 C 
BRANCH  11  12
ATOM     12  C   UNL     1      -0.734  11.873  22.409  0.00  0.00    +0.000 C 
BRANCH  12  13
ATOM     13  N   UNL     1      -1.828  11.889  21.409  0.00  0.00    +0.000 NA
ATOM     14  C   UNL     1      -2.948  12.716  21.878  0.00  0.00    +0.000 C 
BRANCH  13  15
ATOM     15  C   UNL     1      -1.372  12.325  20.058  0.00  0.00    +0.000 C 
ATOM     16  C   UNL     1       0.153  12.484  19.899  0.00  0.00    +0.000 C 
BRANCH  15  17
ATOM     17  C   UNL     1      -1.975  11.481  18.932  0.00  0.00    +0.000 A 
ATOM     18  C   UNL     1      -1.170  10.575  18.222  0.00  0.00    +0.000 A 
ATOM     19  C   UNL     1      -1.706   9.802  17.186  0.00  0.00    +0.000 A 
ATOM     20  C   UNL     1      -3.049   9.935  16.835  0.00  0.00    +0.000 A 
ATOM     21  C   UNL     1      -3.858  10.834  17.520  0.00  0.00    +0.000 A 
ATOM     22  C   UNL     1      -3.328  11.592  18.564  0.00  0.00    +0.000 A 
ENDBRANCH  15  17
ENDBRANCH  13  15
ENDBRANCH  12  13
ENDBRANCH  11  12
ENDBRANCH   9  11
ENDBRANCH   4   7
BRANCH   1  23
ATOM     23  C   UNL     1       4.135   6.581  17.567  0.00  0.00    +0.000 C 
BRANCH  23  24
ATOM     24  N   UNL     1       5.514   6.606  18.068  0.00  0.00    +0.000 NA
ATOM     25  H   UNL     1       6.094   7.374  17.730  0.00  0.00    +0.000 HD
BRANCH  24  26
ATOM     26  S   UNL     1       6.376   5.167  18.019  0.00  0.00    +0.000 S 
ATOM     27  O   UNL     1       5.646   4.163  18.762  0.00  0.00    +0.000 OA
ATOM     28  O   UNL     1       7.753   5.495  18.320  0.00  0.00    +0.000 OA
BRANCH  26  32
ATOM     29  C   UNL     1       6.285   3.991  13.610  0.00  0.00    +0.000 A 
ATOM     30  C   UNL     1       7.259   4.878  14.088  0.00  0.00    +0.000 A 
ATOM     31  C   UNL     1       7.269   5.259  15.427  0.00  0.00    +0.000 A 
ATOM     32  C   UNL     1       6.295   4.752  16.294  0.00  0.00    +0.000 A 
ATOM     33  C   UNL     1       5.312   3.877  15.831  0.00  0.00    +0.000 A 
ATOM     34  C   UNL     1       5.303   3.505  14.486  0.00  0.00    +0.000 A 
BRANCH  29  36
ATOM     35  C   UNL     1       4.967   3.115  11.684  0.00  0.00    +0.000 C 
ATOM     36  C   UNL     1       6.355   3.483  12.192  0.00  0.00    +0.000 C 
ENDBRANCH  29  36
ENDBRANCH  26  32
ENDBRANCH  24  26
ENDBRANCH  23  24
ENDBRANCH   1  23
TORSDOF 11
ENDMDL
MODEL 2
REMARK VINA RESULT:      -7.9      2.695      3.739
REMARK  Name = 
REMARK  14 active torsions:
REMARK  status: ('A' for Active; 'I' for Inactive)
REMARK    1  A    between atoms: C_1  and  C_2
REMARK    2  A    between atoms: C_2  and  C_3
REMARK    3  A    between atoms: C_6  and  S_7
REMARK    4  A    between atoms: S_7  and  N_10
REMARK    5  A    between atoms: N_10  and  C_11
REMARK    6  A    between atoms: C_11  and  C_12
REMARK    7  A    between atoms: C_15  and  C_16
REMARK    8  A    between atoms: N_18  and  C_19
REMARK    9  A    between atoms: C_19  and  C_20
REMARK   10  A    between atoms: C_20  and  N_21
REMARK   11  A    between atoms: N_21  and  C_22
REMARK   12  A    between atoms: N_21  and  C_23
REMARK   13  A    between atoms: C_23  and  C_24
REMARK   14  A    between atoms: C_23  and  C_25
REMARK                            x       y       z     vdW  Elec       q    Type
REMARK                         _______ _______ _______ _____ _____    ______ ____
ROOT
ATOM      1  C   UNL     1       1.586   4.357  19.291  0.00  0.00    +0.000 A 
ATOM      2  C   UNL     1       1.877   5.310  20.274  0.00  0.00    +0.000 A 
ATOM      3  C   UNL     1       2.043   6.653  19.935  0.00  0.00    +0.000 A 
ATOM      4  C   UNL     1       1.949   7.074  18.603  0.00  0.00    +0.000 A 
ATOM      5  C   UNL     1       1.703   6.122  17.610  0.00  0.00    +0.000 A 
ATOM      6  C   UNL     1       1.526   4.775  17.952  0.00  0.00    +0.000 A 
ENDROOT
BRANCH   4   7
ATOM      7  C   UNL     1       2.112   8.534  18.342  0.00  0.00    +0.000 C 
ATOM      8  O   UNL     1       2.837   8.910  17.427  0.00  0.00    +0.000 OA
ATOM      9  N   UNL     1       1.425   9.415  19.142  0.00  0.00    +0.000 N 
ATOM     10  H   UNL     1       0.877   9.125  19.938  0.00  0.00    +0.000 HD
BRANCH   9  11
ATOM     11  C   UNL     1       1.570  10.847  18.962  0.00  0.00    +0.000 C 
BRANCH  11  12
ATOM     12  C   UNL     1       0.817  11.625  20.051  0.00  0.00    +0.000 C 
BRANCH  12  13
ATOM     13  N   UNL     1      -0.541  11.119  20.366  0.00  0.00    +0.000 NA
ATOM     14  C   UNL     1      -0.691  10.902  21.811  0.00  0.00    +0.000 C 
BRANCH  13  15
ATOM     15  C   UNL     1      -1.623  12.001  19.844  0.00  0.00    +0.000 C 
ATOM     16  C   UNL     1      -1.220  13.470  19.611  0.00  0.00    +0.000 C 
BRANCH  15  17
ATOM     17  C   UNL     1      -2.329  11.405  18.622  0.00  0.00    +0.000 A 
ATOM     18  C   UNL     1      -3.676  11.711  18.368  0.00  0.00    +0.000 A 
ATOM     19  C   UNL     1      -4.337  11.169  17.260  0.00  0.00    +0.000 A 
ATOM     20  C   UNL     1      -3.666  10.301  16.400  0.00  0.00    +0.000 A 
ATOM     21  C   UNL     1      -2.334   9.978  16.642  0.00  0.00    +0.000 A 
ATOM     22  C   UNL     1      -1.672  10.533  17.738  0.00  0.00    +0.000 A 
ENDBRANCH  15  17
ENDBRANCH  13  15
ENDBRANCH  12  13
ENDBRANCH  11  12
ENDBRANCH   9  11
ENDBRANCH   4   7
BRANCH   1  23
ATOM     23  C   UNL     1       1.403   2.891  19.624  0.00  0.00    +0.000 C 
BRANCH  23  24
ATOM     24  N   UNL     1       2.220   1.999  18.793  0.00  0.00    +0.000 NA
ATOM     25  H   UNL     1       1.803   1.094  18.574  0.00  0.00    +0.000 HD
BRANCH  24  26
ATOM     26  S   UNL     1       3.829   1.804  19.228  0.00  0.00    +0.000 S 
ATOM     27  O   UNL     1       4.362   0.655  18.532  0.00  0.00    +0.000 OA
ATOM     28  O   UNL     1       3.888   1.926  20.668  0.00  0.00    +0.000 OA
BRANCH  26  32
ATOM     29  C   UNL     1       5.587   5.625  17.455  0.00  0.00    +0.000 A 
ATOM     30  C   UNL     1       5.026   4.648  16.620  0.00  0.00    +0.000 A 
ATOM     31  C   UNL     1       4.517   3.469  17.159  0.00  0.00    +0.000 A 
ATOM     32  C   UNL     1       4.571   3.265  18.542  0.00  0.00    +0.000 A 
ATOM     33  C   UNL     1       5.136   4.224  19.384  0.00  0.00    +0.000 A 
ATOM     34  C   UNL     1       5.652   5.398  18.837  0.00  0.00    +0.000 A 
BRANCH  29  36
ATOM     35  C   UNL     1       7.404   7.330  17.394  0.00  0.00    +0.000 C 
ATOM     36  C   UNL     1       6.021   6.950  16.881  0.00  0.00    +0.000 C 
ENDBRANCH  29  36
ENDBRANCH  26  32
ENDBRANCH  24  26
ENDBRANCH  23  24
ENDBRANCH   1  23
TORSDOF 11
ENDMDL
MODEL 3
REMARK VINA RESULT:      -7.7      3.114      4.512
REMARK  Name = 
REMARK  14 active torsions:
REMARK  status: ('A' for Active; 'I' for Inactive)
REMARK    1  A    between atoms: C_1  and  C_2
REMARK    2  A    between atoms: C_2  and  C_3
REMARK    3  A    between atoms: C_6  and  S_7
REMARK    4  A    between atoms: S_7  and  N_10
REMARK    5  A    between atoms: N_10  and  C_11
REMARK    6  A    between atoms: C_11  and  C_12
REMARK    7  A    between atoms: C_15  and  C_16
REMARK    8  A    between atoms: N_18  and  C_19
REMARK    9  A    between atoms: C_19  and  C_20
REMARK   10  A    between atoms: C_20  and  N_21
REMARK   11  A    between atoms: N_21  and  C_22
REMARK   12  A    between atoms: N_21  and  C_23
REMARK   13  A    between atoms: C_23  and  C_24
REMARK   14  A    between atoms: C_23  and  C_25
REMARK                            x       y       z     vdW  Elec       q    Type
REMARK                         _______ _______ _______ _____ _____    ______ ____
ROOT
ATOM      1  C   UNL     1       1.865   6.807  20.115  0.00  0.00    +0.000 A 
ATOM      2  C   UNL     1       1.229   7.830  20.827  0.00  0.00    +0.000 A 
ATOM      3  C   UNL     1       1.102   9.106  20.278  0.00  0.00    +0.000 A 
ATOM      4  C   UNL     1       1.632   9.399  19.015  0.00  0.00    +0.000 A 
ATOM      5  C   UNL     1       2.308   8.395  18.317  0.00  0.00    +0.000 A 
ATOM      6  C   UNL     1       2.425   7.111  18.864  0.00  0.00    +0.000 A 
ENDROOT
BRANCH   4   7
ATOM      7  C   UNL     1       1.422  10.783  18.498  0.00  0.00    +0.000 C 
ATOM      8  O   UNL     1       2.330  11.353  17.902  0.00  0.00    +0.000 OA
ATOM      9  N   UNL     1       0.198  11.372  18.706  0.00  0.00    +0.000 N 
ATOM     10  H   UNL     1      -0.536  10.944  19.250  0.00  0.00    +0.000 HD
BRANCH   9  11
ATOM     11  C   UNL     1      -0.057  12.729  18.260  0.00  0.00    +0.000 C 
BRANCH  11  12
ATOM     12  C   UNL     1      -0.128  13.701  19.446  0.00  0.00    +0.000 C 
BRANCH  12  13
ATOM     13  N   UNL     1       0.958  13.562  20.445  0.00  0.00    +0.000 NA
ATOM     14  C   UNL     1       2.190  14.202  19.965  0.00  0.00    +0.000 C 
BRANCH  13  15
ATOM     15  C   UNL     1       0.578  14.081  21.790  0.00  0.00    +0.000 C 
ATOM     16  C   UNL     1       0.436  15.613  21.888  0.00  0.00    +0.000 C 
BRANCH  15  17
ATOM     17  C   UNL     1      -0.639  13.360  22.377  0.00  0.00    +0.000 A 
ATOM     18  C   UNL     1      -1.755  14.096  22.807  0.00  0.00    +0.000 A 
ATOM     19  C   UNL     1      -2.871  13.451  23.352  0.00  0.00    +0.000 A 
ATOM     20  C   UNL     1      -2.881  12.064  23.489  0.00  0.00    +0.000 A 
ATOM     21  C   UNL     1      -1.781  11.319  23.077  0.00  0.00    +0.000 A 
ATOM     22  C   UNL     1      -0.675  11.961  22.519  0.00  0.00    +0.000 A 
ENDBRANCH  15  17
ENDBRANCH  13  15
ENDBRANCH  12  13
ENDBRANCH  11  12
ENDBRANCH   9  11
ENDBRANCH   4   7
BRANCH   1  23
ATOM     23  C   UNL     1       2.022   5.411  20.683  0.00  0.00    +0.000 C 
BRANCH  23  24
ATOM     24  N   UNL     1       1.491   4.362  19.804  0.00  0.00    +0.000 NA
ATOM     25  H   UNL     1       0.539   4.056  20.007  0.00  0.00    +0.000 HD
BRANCH  24  26
ATOM     26  S   UNL     1       2.476   3.036  19.510  0.00  0.00    +0.000 S 
ATOM     27  O   UNL     1       1.786   2.135  18.613  0.00  0.00    +0.000 OA
ATOM     28  O   UNL     1       2.983   2.601  20.794  0.00  0.00    +0.000 OA
BRANCH  26  32
ATOM     29  C   UNL     1       5.878   5.078  17.254  0.00  0.00    +0.000 A 
ATOM     30  C   UNL     1       4.709   4.694  16.581  0.00  0.00    +0.000 A 
ATOM     31  C   UNL     1       3.683   4.045  17.263  0.00  0.00    +0.000 A 
ATOM     32  C   UNL     1       3.829   3.774  18.629  0.00  0.00    +0.000 A 
ATOM     33  C   UNL     1       4.991   4.140  19.309  0.00  0.00    +0.000 A 
ATOM     34  C   UNL     1       6.017   4.782  18.618  0.00  0.00    +0.000 A 
BRANCH  29  36
ATOM     35  C   UNL     1       7.385   7.057  17.408  0.00  0.00    +0.000 C 
ATOM     36  C   UNL     1       6.928   5.891  16.541  0.00  0.00    +0.000 C 
ENDBRANCH  29  36
ENDBRANCH  26  32
ENDBRANCH  24  26
ENDBRANCH  23  24
ENDBRANCH   1  23
TORSDOF 11
ENDMDL
MODEL 4
REMARK VINA RESULT:      -7.7      1.867      2.664
REMARK  Name = 
REMARK  14 active torsions:
REMARK  status: ('A' for Active; 'I' for Inactive)
REMARK    1  A    between atoms: C_1  and  C_2
REMARK    2  A    between atoms: C_2  and  C_3
REMARK    3  A    between atoms: C_6  and  S_7
REMARK    4  A    between atoms: S_7  and  N_10
REMARK    5  A    between atoms: N_10  and  C_11
REMARK    6  A    between atoms: C_11  and  C_12
REMARK    7  A    between atoms: C_15  and  C_16
REMARK    8  A    between atoms: N_18  and  C_19
REMARK    9  A    between atoms: C_19  and  C_20
REMARK   10  A    between atoms: C_20  and  N_21
REMARK   11  A    between atoms: N_21  and  C_22
REMARK   12  A    between atoms: N_21  and  C_23
REMARK   13  A    between atoms: C_23  and  C_24
REMARK   14  A    between atoms: C_23  and  C_25
REMARK                            x       y       z     vdW  Elec       q    Type
REMARK                         _______ _______ _______ _____ _____    ______ ____
ROOT
ATOM      1  C   UNL     1       2.249   7.342  19.666  0.00  0.00    +0.000 A 
ATOM      2  C   UNL     1       2.161   8.080  18.480  0.00  0.00    +0.000 A 
ATOM      3  C   UNL     1       1.385   9.238  18.420  0.00  0.00    +0.000 A 
ATOM      4  C   UNL     1       0.656   9.672  19.534  0.00  0.00    +0.000 A 
ATOM      5  C   UNL     1       0.704   8.916  20.708  0.00  0.00    +0.000 A 
ATOM      6  C   UNL     1       1.492   7.760  20.772  0.00  0.00    +0.000 A 
ENDROOT
BRANCH   4   7
ATOM      7  C   UNL     1      -0.121  10.938  19.383  0.00  0.00    +0.000 C 
ATOM      8  O   UNL     1      -0.320  11.398  18.264  0.00  0.00    +0.000 OA
ATOM      9  N   UNL     1      -0.598  11.543  20.521  0.00  0.00    +0.000 N 
ATOM     10  H   UNL     1      -0.389  11.213  21.451  0.00  0.00    +0.000 HD
BRANCH   9  11
ATOM     11  C   UNL     1      -1.329  12.793  20.443  0.00  0.00    +0.000 C 
BRANCH  11  12
ATOM     12  C   UNL     1      -1.950  13.161  21.799  0.00  0.00    +0.000 C 
BRANCH  12  13
ATOM     13  N   UNL     1      -3.242  12.502  22.102  0.00  0.00    +0.000 NA
ATOM     14  C   UNL     1      -3.383  12.276  23.547  0.00  0.00    +0.000 C 
BRANCH  13  15
ATOM     15  C   UNL     1      -4.415  13.249  21.564  0.00  0.00    +0.000 C 
ATOM     16  C   UNL     1      -4.101  14.650  21.003  0.00  0.00    +0.000 C 
BRANCH  15  17
ATOM     17  C   UNL     1      -5.241  12.416  20.579  0.00  0.00    +0.000 A 
ATOM     18  C   UNL     1      -4.765  12.187  19.278  0.00  0.00    +0.000 A 
ATOM     19  C   UNL     1      -5.512  11.434  18.365  0.00  0.00    +0.000 A 
ATOM     20  C   UNL     1      -6.751  10.913  18.734  0.00  0.00    +0.000 A 
ATOM     21  C   UNL     1      -7.243  11.138  20.016  0.00  0.00    +0.000 A 
ATOM     22  C   UNL     1      -6.490  11.875  20.931  0.00  0.00    +0.000 A 
ENDBRANCH  15  17
ENDBRANCH  13  15
ENDBRANCH  12  13
ENDBRANCH  11  12
ENDBRANCH   9  11
ENDBRANCH   4   7
BRANCH   1  23
ATOM     23  C   UNL     1       3.079   6.079  19.765  0.00  0.00    +0.000 C 
BRANCH  23  24
ATOM     24  N   UNL     1       4.344   6.155  19.024  0.00  0.00    +0.000 NA
ATOM     25  H   UNL     1       4.286   6.568  18.093  0.00  0.00    +0.000 HD
BRANCH  24  26
ATOM     26  S   UNL     1       5.296   4.774  18.987  0.00  0.00    +0.000 S 
ATOM     27  O   UNL     1       4.484   3.639  19.365  0.00  0.00    +0.000 OA
ATOM     28  O   UNL     1       6.528   5.099  19.674  0.00  0.00    +0.000 OA
BRANCH  26  32
ATOM     29  C   UNL     1       6.343   4.282  14.572  0.00  0.00    +0.000 A 
ATOM     30  C   UNL     1       7.294   4.776  15.476  0.00  0.00    +0.000 A 
ATOM     31  C   UNL     1       6.965   4.954  16.817  0.00  0.00    +0.000 A 
ATOM     32  C   UNL     1       5.675   4.638  17.257  0.00  0.00    +0.000 A 
ATOM     33  C   UNL     1       4.715   4.156  16.367  0.00  0.00    +0.000 A 
ATOM     34  C   UNL     1       5.048   3.988  15.023  0.00  0.00    +0.000 A 
BRANCH  29  36
ATOM     35  C   UNL     1       5.577   3.348  12.391  0.00  0.00    +0.000 C 
ATOM     36  C   UNL     1       6.740   3.973  13.151  0.00  0.00    +0.000 C 
ENDBRANCH  29  36
ENDBRANCH  26  32
ENDBRANCH  24  26
ENDBRANCH  23  24
ENDBRANCH   1  23
TORSDOF 11
ENDMDL
MODEL 5
REMARK VINA RESULT:      -7.6      5.333      9.145
REMARK  Name = 
REMARK  14 active torsions:
REMARK  status: ('A' for Active; 'I' for Inactive)
REMARK    1  A    between atoms: C_1  and  C_2
REMARK    2  A    between atoms: C_2  and  C_3
REMARK    3  A    between atoms: C_6  and  S_7
REMARK    4  A    between atoms: S_7  and  N_10
REMARK    5  A    between atoms: N_10  and  C_11
REMARK    6  A    between atoms: C_11  and  C_12
REMARK    7  A    between atoms: C_15  and  C_16
REMARK    8  A    between atoms: N_18  and  C_19
REMARK    9  A    between atoms: C_19  and  C_20
REMARK   10  A    between atoms: C_20  and  N_21
REMARK   11  A    between atoms: N_21  and  C_22
REMARK   12  A    between atoms: N_21  and  C_23
REMARK   13  A    between atoms: C_23  and  C_24
REMARK   14  A    between atoms: C_23  and  C_25
REMARK                            x       y       z     vdW  Elec       q    Type
REMARK                         _______ _______ _______ _____ _____    ______ ____
ROOT
ATOM      1  C   UNL     1       7.740   8.236  17.855  0.00  0.00    +0.000 A 
ATOM      2  C   UNL     1       8.222   7.165  18.616  0.00  0.00    +0.000 A 
ATOM      3  C   UNL     1       7.567   5.934  18.607  0.00  0.00    +0.000 A 
ATOM      4  C   UNL     1       6.398   5.749  17.858  0.00  0.00    +0.000 A 
ATOM      5  C   UNL     1       5.885   6.827  17.131  0.00  0.00    +0.000 A 
ATOM      6  C   UNL     1       6.550   8.060  17.132  0.00  0.00    +0.000 A 
ENDROOT
BRANCH   4   7
ATOM      7  C   UNL     1       5.784   4.390  17.887  0.00  0.00    +0.000 C 
ATOM      8  O   UNL     1       5.426   3.863  16.839  0.00  0.00    +0.000 OA
ATOM      9  N   UNL     1       5.648   3.767  19.104  0.00  0.00    +0.000 N 
ATOM     10  H   UNL     1       5.876   4.212  19.981  0.00  0.00    +0.000 HD
BRANCH   9  11
ATOM     11  C   UNL     1       5.026   2.461  19.203  0.00  0.00    +0.000 C 
BRANCH  11  12
ATOM     12  C   UNL     1       3.680   2.537  19.939  0.00  0.00    +0.000 C 
BRANCH  12  13
ATOM     13  N   UNL     1       2.603   3.254  19.216  0.00  0.00    +0.000 NA
ATOM     14  C   UNL     1       1.730   2.304  18.513  0.00  0.00    +0.000 C 
BRANCH  13  15
ATOM     15  C   UNL     1       1.809   4.153  20.101  0.00  0.00    +0.000 C 
ATOM     16  C   UNL     1       2.042   3.961  21.613  0.00  0.00    +0.000 C 
BRANCH  15  17
ATOM     17  C   UNL     1       1.916   5.625  19.693  0.00  0.00    +0.000 A 
ATOM     18  C   UNL     1       2.355   5.968  18.403  0.00  0.00    +0.000 A 
ATOM     19  C   UNL     1       2.465   7.309  18.018  0.00  0.00    +0.000 A 
ATOM     20  C   UNL     1       2.155   8.325  18.921  0.00  0.00    +0.000 A 
ATOM     21  C   UNL     1       1.728   8.004  20.206  0.00  0.00    +0.000 A 
ATOM     22  C   UNL     1       1.603   6.667  20.583  0.00  0.00    +0.000 A 
ENDBRANCH  15  17
ENDBRANCH  13  15
ENDBRANCH  12  13
ENDBRANCH  11  12
ENDBRANCH   9  11
ENDBRANCH   4   7
BRANCH   1  23
ATOM     23  C   UNL     1       8.426   9.587  17.845  0.00  0.00    +0.000 C 
BRANCH  23  24
ATOM     24  N   UNL     1       9.045   9.934  19.129  0.00  0.00    +0.000 NA
ATOM     25  H   UNL     1       8.456   9.811  19.952  0.00  0.00    +0.000 HD
BRANCH  24  26
ATOM     26  S   UNL     1       9.862  11.398  19.216  0.00  0.00    +0.000 S 
ATOM     27  O   UNL     1       9.365  12.270  18.175  0.00  0.00    +0.000 OA
ATOM     28  O   UNL     1      11.269  11.083  19.346  0.00  0.00    +0.000 OA
BRANCH  26  32
ATOM     29  C   UNL     1       8.584  12.955  23.312  0.00  0.00    +0.000 A 
ATOM     30  C   UNL     1       8.322  11.628  22.943  0.00  0.00    +0.000 A 
ATOM     31  C   UNL     1       8.685  11.161  21.682  0.00  0.00    +0.000 A 
ATOM     32  C   UNL     1       9.313  12.029  20.783  0.00  0.00    +0.000 A 
ATOM     33  C   UNL     1       9.571  13.355  21.131  0.00  0.00    +0.000 A 
ATOM     34  C   UNL     1       9.197  13.818  22.392  0.00  0.00    +0.000 A 
BRANCH  29  36
ATOM     35  C   UNL     1       7.439  14.672  24.709  0.00  0.00    +0.000 C 
ATOM     36  C   UNL     1       8.303  13.418  24.719  0.00  0.00    +0.000 C 
ENDBRANCH  29  36
ENDBRANCH  26  32
ENDBRANCH  24  26
ENDBRANCH  23  24
ENDBRANCH   1  23
TORSDOF 11
ENDMDL
MODEL 6
REMARK VINA RESULT:      -7.6      2.224      3.904
REMARK  Name = 
REMARK  14 active torsions:
REMARK  status: ('A' for Active; 'I' for Inactive)
REMARK    1  A    between atoms: C_1  and  C_2
REMARK    2  A    between atoms: C_2  and  C_3
REMARK    3  A    between atoms: C_6  and  S_7
REMARK    4  A    between atoms: S_7  and  N_10
REMARK    5  A    between atoms: N_10  and  C_11
REMARK    6  A    between atoms: C_11  and  C_12
REMARK    7  A    between atoms: C_15  and  C_16
REMARK    8  A    between atoms: N_18  and  C_19
REMARK    9  A    between atoms: C_19  and  C_20
REMARK   10  A    between atoms: C_20  and  N_21
REMARK   11  A    between atoms: N_21  and  C_22
REMARK   12  A    between atoms: N_21  and  C_23
REMARK   13  A    between atoms: C_23  and  C_24
REMARK   14  A    between atoms: C_23  and  C_25
REMARK                            x       y       z     vdW  Elec       q    Type
REMARK                         _______ _______ _______ _____ _____    ______ ____
ROOT
ATOM      1  C   UNL     1       3.012   7.649  17.964  0.00  0.00    +0.000 A 
ATOM      2  C   UNL     1       2.772   7.008  19.185  0.00  0.00    +0.000 A 
ATOM      3  C   UNL     1       1.901   7.565  20.122  0.00  0.00    +0.000 A 
ATOM      4  C   UNL     1       1.268   8.789  19.873  0.00  0.00    +0.000 A 
ATOM      5  C   UNL     1       1.536   9.457  18.675  0.00  0.00    +0.000 A 
ATOM      6  C   UNL     1       2.403   8.892  17.731  0.00  0.00    +0.000 A 
ENDROOT
BRANCH   4   7
ATOM      7  C   UNL     1       0.330   9.291  20.920  0.00  0.00    +0.000 C 
ATOM      8  O   UNL     1      -0.414   8.504  21.496  0.00  0.00    +0.000 OA
ATOM      9  N   UNL     1       0.342  10.634  21.209  0.00  0.00    +0.000 N 
ATOM     10  H   UNL     1       0.901  11.303  20.700  0.00  0.00    +0.000 HD
BRANCH   9  11
ATOM     11  C   UNL     1      -0.570  11.189  22.190  0.00  0.00    +0.000 C 
BRANCH  11  12
ATOM     12  C   UNL     1      -1.637  12.070  21.524  0.00  0.00    +0.000 C 
BRANCH  12  13
ATOM     13  N   UNL     1      -1.376  12.419  20.107  0.00  0.00    +0.000 NA
ATOM     14  C   UNL     1      -2.503  12.016  19.257  0.00  0.00    +0.000 C 
BRANCH  13  15
ATOM     15  C   UNL     1      -1.054  13.862  19.916  0.00  0.00    +0.000 C 
ATOM     16  C   UNL     1      -1.241  14.749  21.164  0.00  0.00    +0.000 C 
BRANCH  15  17
ATOM     17  C   UNL     1       0.316  14.079  19.267  0.00  0.00    +0.000 A 
ATOM     18  C   UNL     1       1.008  12.994  18.703  0.00  0.00    +0.000 A 
ATOM     19  C   UNL     1       2.264  13.174  18.113  0.00  0.00    +0.000 A 
ATOM     20  C   UNL     1       2.853  14.437  18.093  0.00  0.00    +0.000 A 
ATOM     21  C   UNL     1       2.187  15.522  18.655  0.00  0.00    +0.000 A 
ATOM     22  C   UNL     1       0.928  15.344  19.228  0.00  0.00    +0.000 A 
ENDBRANCH  15  17
ENDBRANCH  13  15
ENDBRANCH  12  13
ENDBRANCH  11  12
ENDBRANCH   9  11
ENDBRANCH   4   7
BRANCH   1  23
ATOM     23  C   UNL     1       3.954   7.074  16.927  0.00  0.00    +0.000 C 
BRANCH  23  24
ATOM     24  N   UNL     1       5.371   7.244  17.270  0.00  0.00    +0.000 NA
ATOM     25  H   UNL     1       5.843   8.028  16.819  0.00  0.00    +0.000 HD
BRANCH  24  26
ATOM     26  S   UNL     1       6.343   5.877  17.221  0.00  0.00    +0.000 S 
ATOM     27  O   UNL     1       7.374   6.004  18.227  0.00  0.00    +0.000 OA
ATOM     28  O   UNL     1       6.655   5.637  15.828  0.00  0.00    +0.000 OA
BRANCH  26  32
ATOM     29  C   UNL     1       3.333   2.731  18.592  0.00  0.00    +0.000 A 
ATOM     30  C   UNL     1       4.178   3.357  19.519  0.00  0.00    +0.000 A 
ATOM     31  C   UNL     1       5.117   4.295  19.097  0.00  0.00    +0.000 A 
ATOM     32  C   UNL     1       5.212   4.608  17.736  0.00  0.00    +0.000 A 
ATOM     33  C   UNL     1       4.386   3.985  16.801  0.00  0.00    +0.000 A 
ATOM     34  C   UNL     1       3.454   3.041  17.230  0.00  0.00    +0.000 A 
BRANCH  29  36
ATOM     35  C   UNL     1       0.872   2.463  18.879  0.00  0.00    +0.000 C 
ATOM     36  C   UNL     1       2.237   1.813  19.069  0.00  0.00    +0.000 C 
ENDBRANCH  29  36
ENDBRANCH  26  32
ENDBRANCH  24  26
ENDBRANCH  23  24
ENDBRANCH   1  23
TORSDOF 11
ENDMDL
MODEL 7
REMARK VINA RESULT:      -7.6      0.936      1.560
REMARK  Name = 
REMARK  14 active torsions:
REMARK  status: ('A' for Active; 'I' for Inactive)
REMARK    1  A    between atoms: C_1  and  C_2
REMARK    2  A    between atoms: C_2  and  C_3
REMARK    3  A    between atoms: C_6  and  S_7
REMARK    4  A    between atoms: S_7  and  N_10
REMARK    5  A    between atoms: N_10  and  C_11
REMARK    6  A    between atoms: C_11  and  C_12
REMARK    7  A    between atoms: C_15  and  C_16
REMARK    8  A    between atoms: N_18  and  C_19
REMARK    9  A    between atoms: C_19  and  C_20
REMARK   10  A    between atoms: C_20  and  N_21
REMARK   11  A    between atoms: N_21  and  C_22
REMARK   12  A    between atoms: N_21  and  C_23
REMARK   13  A    between atoms: C_23  and  C_24
REMARK   14  A    between atoms: C_23  and  C_25
REMARK                            x       y       z     vdW  Elec       q    Type
REMARK                         _______ _______ _______ _____ _____    ______ ____
ROOT
ATOM      1  C   UNL     1       3.338   6.994  18.090  0.00  0.00    +0.000 A 
ATOM      2  C   UNL     1       2.975   6.390  19.299  0.00  0.00    +0.000 A 
ATOM      3  C   UNL     1       2.079   7.016  20.166  0.00  0.00    +0.000 A 
ATOM      4  C   UNL     1       1.544   8.273  19.860  0.00  0.00    +0.000 A 
ATOM      5  C   UNL     1       1.935   8.903  18.676  0.00  0.00    +0.000 A 
ATOM      6  C   UNL     1       2.827   8.269  17.800  0.00  0.00    +0.000 A 
ENDROOT
BRANCH   4   7
ATOM      7  C   UNL     1       0.571   8.850  20.834  0.00  0.00    +0.000 C 
ATOM      8  O   UNL     1      -0.056   8.105  21.580  0.00  0.00    +0.000 OA
ATOM      9  N   UNL     1       0.418  10.215  20.863  0.00  0.00    +0.000 N 
ATOM     10  H   UNL     1       0.876  10.836  20.213  0.00  0.00    +0.000 HD
BRANCH   9  11
ATOM     11  C   UNL     1      -0.538  10.834  21.761  0.00  0.00    +0.000 C 
BRANCH  11  12
ATOM     12  C   UNL     1      -0.527  12.363  21.620  0.00  0.00    +0.000 C 
BRANCH  12  13
ATOM     13  N   UNL     1      -1.672  12.939  20.875  0.00  0.00    +0.000 NA
ATOM     14  C   UNL     1      -2.041  14.251  21.424  0.00  0.00    +0.000 C 
BRANCH  13  15
ATOM     15  C   UNL     1      -1.426  13.024  19.408  0.00  0.00    +0.000 C 
ATOM     16  C   UNL     1       0.039  13.282  19.000  0.00  0.00    +0.000 C 
BRANCH  15  17
ATOM     17  C   UNL     1      -2.029  11.844  18.640  0.00  0.00    +0.000 A 
ATOM     18  C   UNL     1      -1.191  10.922  17.993  0.00  0.00    +0.000 A 
ATOM     19  C   UNL     1      -1.728   9.843  17.281  0.00  0.00    +0.000 A 
ATOM     20  C   UNL     1      -3.109   9.680  17.194  0.00  0.00    +0.000 A 
ATOM     21  C   UNL     1      -3.955  10.589  17.820  0.00  0.00    +0.000 A 
ATOM     22  C   UNL     1      -3.419  11.655  18.543  0.00  0.00    +0.000 A 
ENDBRANCH  15  17
ENDBRANCH  13  15
ENDBRANCH  12  13
ENDBRANCH  11  12
ENDBRANCH   9  11
ENDBRANCH   4   7
BRANCH   1  23
ATOM     23  C   UNL     1       4.310   6.343  17.128  0.00  0.00    +0.000 C 
BRANCH  23  24
ATOM     24  N   UNL     1       5.420   5.656  17.798  0.00  0.00    +0.000 NA
ATOM     25  H   UNL     1       5.513   5.837  18.797  0.00  0.00    +0.000 HD
BRANCH  24  26
ATOM     26  S   UNL     1       6.923   5.721  17.056  0.00  0.00    +0.000 S 
ATOM     27  O   UNL     1       7.851   4.910  17.812  0.00  0.00    +0.000 OA
ATOM     28  O   UNL     1       7.183   7.114  16.763  0.00  0.00    +0.000 OA
BRANCH  26  32
ATOM     29  C   UNL     1       5.969   3.724  13.063  0.00  0.00    +0.000 A 
ATOM     30  C   UNL     1       5.290   3.342  14.229  0.00  0.00    +0.000 A 
ATOM     31  C   UNL     1       5.602   3.930  15.452  0.00  0.00    +0.000 A 
ATOM     32  C   UNL     1       6.602   4.907  15.510  0.00  0.00    +0.000 A 
ATOM     33  C   UNL     1       7.294   5.290  14.361  0.00  0.00    +0.000 A 
ATOM     34  C   UNL     1       6.982   4.691  13.141  0.00  0.00    +0.000 A 
BRANCH  29  36
ATOM     35  C   UNL     1       5.962   1.721  11.582  0.00  0.00    +0.000 C 
ATOM     36  C   UNL     1       5.541   3.177  11.726  0.00  0.00    +0.000 C 
ENDBRANCH  29  36
ENDBRANCH  26  32
ENDBRANCH  24  26
ENDBRANCH  23  24
ENDBRANCH   1  23
TORSDOF 11
ENDMDL
MODEL 8
REMARK VINA RESULT:      -7.5      3.026      4.484
REMARK  Name = 
REMARK  14 active torsions:
REMARK  status: ('A' for Active; 'I' for Inactive)
REMARK    1  A    between atoms: C_1  and  C_2
REMARK    2  A    between atoms: C_2  and  C_3
REMARK    3  A    between atoms: C_6  and  S_7
REMARK    4  A    between atoms: S_7  and  N_10
REMARK    5  A    between atoms: N_10  and  C_11
REMARK    6  A    between atoms: C_11  and  C_12
REMARK    7  A    between atoms: C_15  and  C_16
REMARK    8  A    between atoms: N_18  and  C_19
REMARK    9  A    between atoms: C_19  and  C_20
REMARK   10  A    between atoms: C_20  and  N_21
REMARK   11  A    between atoms: N_21  and  C_22
REMARK   12  A    between atoms: N_21  and  C_23
REMARK   13  A    between atoms: C_23  and  C_24
REMARK   14  A    between atoms: C_23  and  C_25
REMARK                            x       y       z     vdW  Elec       q    Type
REMARK                         _______ _______ _______ _____ _____    ______ ____
ROOT
ATOM      1  C   UNL     1       1.741   6.573  20.317  0.00  0.00    +0.000 A 
ATOM      2  C   UNL     1       2.288   6.810  19.050  0.00  0.00    +0.000 A 
ATOM      3  C   UNL     1       2.248   8.085  18.486  0.00  0.00    +0.000 A 
ATOM      4  C   UNL     1       1.639   9.149  19.161  0.00  0.00    +0.000 A 
ATOM      5  C   UNL     1       1.052   8.912  20.406  0.00  0.00    +0.000 A 
ATOM      6  C   UNL     1       1.101   7.633  20.977  0.00  0.00    +0.000 A 
ENDROOT
BRANCH   4   7
ATOM      7  C   UNL     1       1.672  10.483  18.491  0.00  0.00    +0.000 C 
ATOM      8  O   UNL     1       1.988  10.560  17.308  0.00  0.00    +0.000 OA
ATOM      9  N   UNL     1       1.333  11.588  19.234  0.00  0.00    +0.000 N 
ATOM     10  H   UNL     1       1.134  11.549  20.222  0.00  0.00    +0.000 HD
BRANCH   9  11
ATOM     11  C   UNL     1       1.381  12.915  18.651  0.00  0.00    +0.000 C 
BRANCH  11  12
ATOM     12  C   UNL     1      -0.024  13.524  18.534  0.00  0.00    +0.000 C 
BRANCH  12  13
ATOM     13  N   UNL     1      -0.775  13.631  19.808  0.00  0.00    +0.000 NA
ATOM     14  C   UNL     1      -0.951  15.038  20.190  0.00  0.00    +0.000 C 
BRANCH  13  15
ATOM     15  C   UNL     1      -2.085  12.921  19.769  0.00  0.00    +0.000 C 
ATOM     16  C   UNL     1      -2.098  11.607  18.963  0.00  0.00    +0.000 C 
BRANCH  15  17
ATOM     17  C   UNL     1      -2.697  12.739  21.161  0.00  0.00    +0.000 A 
ATOM     18  C   UNL     1      -3.999  13.197  21.424  0.00  0.00    +0.000 A 
ATOM     19  C   UNL     1      -4.569  13.044  22.693  0.00  0.00    +0.000 A 
ATOM     20  C   UNL     1      -3.840  12.447  23.720  0.00  0.00    +0.000 A 
ATOM     21  C   UNL     1      -2.546  11.997  23.481  0.00  0.00    +0.000 A 
ATOM     22  C   UNL     1      -1.985  12.135  22.211  0.00  0.00    +0.000 A 
ENDBRANCH  15  17
ENDBRANCH  13  15
ENDBRANCH  12  13
ENDBRANCH  11  12
ENDBRANCH   9  11
ENDBRANCH   4   7
BRANCH   1  23
ATOM     23  C   UNL     1       1.765   5.201  20.958  0.00  0.00    +0.000 C 
BRANCH  23  24
ATOM     24  N   UNL     1       0.784   4.273  20.382  0.00  0.00    +0.000 NA
ATOM     25  H   UNL     1      -0.054   4.113  20.940  0.00  0.00    +0.000 HD
BRANCH  24  26
ATOM     26  S   UNL     1       1.366   2.818  19.780  0.00  0.00    +0.000 S 
ATOM     27  O   UNL     1       0.385   2.266  18.872  0.00  0.00    +0.000 OA
ATOM     28  O   UNL     1       1.871   2.071  20.912  0.00  0.00    +0.000 OA
BRANCH  26  32
ATOM     29  C   UNL     1       5.015   4.032  17.321  0.00  0.00    +0.000 A 
ATOM     30  C   UNL     1       5.142   3.749  18.688  0.00  0.00    +0.000 A 
ATOM     31  C   UNL     1       4.024   3.408  19.445  0.00  0.00    +0.000 A 
ATOM     32  C   UNL     1       2.768   3.351  18.829  0.00  0.00    +0.000 A 
ATOM     33  C   UNL     1       2.624   3.641  17.472  0.00  0.00    +0.000 A 
ATOM     34  C   UNL     1       3.747   3.991  16.723  0.00  0.00    +0.000 A 
BRANCH  29  36
ATOM     35  C   UNL     1       7.439   4.606  17.365  0.00  0.00    +0.000 C 
ATOM     36  C   UNL     1       6.243   4.277  16.482  0.00  0.00    +0.000 C 
ENDBRANCH  29  36
ENDBRANCH  26  32
ENDBRANCH  24  26
ENDBRANCH  23  24
ENDBRANCH   1  23
TORSDOF 11
ENDMDL
MODEL 9
REMARK VINA RESULT:      -7.5      2.840      3.826
REMARK  Name = 
REMARK  14 active torsions:
REMARK  status: ('A' for Active; 'I' for Inactive)
REMARK    1  A    between atoms: C_1  and  C_2
REMARK    2  A    between atoms: C_2  and  C_3
REMARK    3  A    between atoms: C_6  and  S_7
REMARK    4  A    between atoms: S_7  and  N_10
REMARK    5  A    between atoms: N_10  and  C_11
REMARK    6  A    between atoms: C_11  and  C_12
REMARK    7  A    between atoms: C_15  and  C_16
REMARK    8  A    between atoms: N_18  and  C_19
REMARK    9  A    between atoms: C_19  and  C_20
REMARK   10  A    between atoms: C_20  and  N_21
REMARK   11  A    between atoms: N_21  and  C_22
REMARK   12  A    between atoms: N_21  and  C_23
REMARK   13  A    between atoms: C_23  and  C_24
REMARK   14  A    between atoms: C_23  and  C_25
REMARK                            x       y       z     vdW  Elec       q    Type
REMARK                         _______ _______ _______ _____ _____    ______ ____
ROOT
ATOM      1  C   UNL     1       2.683   7.527  18.464  0.00  0.00    +0.000 A 
ATOM      2  C   UNL     1       2.240   8.579  17.655  0.00  0.00    +0.000 A 
ATOM      3  C   UNL     1       1.399   9.567  18.169  0.00  0.00    +0.000 A 
ATOM      4  C   UNL     1       0.959   9.513  19.497  0.00  0.00    +0.000 A 
ATOM      5  C   UNL     1       1.362   8.442  20.300  0.00  0.00    +0.000 A 
ATOM      6  C   UNL     1       2.214   7.457  19.785  0.00  0.00    +0.000 A 
ENDROOT
BRANCH   4   7
ATOM      7  C   UNL     1       0.087  10.630  19.967  0.00  0.00    +0.000 C 
ATOM      8  O   UNL     1      -0.936  10.902  19.347  0.00  0.00    +0.000 OA
ATOM      9  N   UNL     1       0.464  11.314  21.097  0.00  0.00    +0.000 N 
ATOM     10  H   UNL     1       1.333  11.146  21.580  0.00  0.00    +0.000 HD
BRANCH   9  11
ATOM     11  C   UNL     1      -0.322  12.432  21.582  0.00  0.00    +0.000 C 
BRANCH  11  12
ATOM     12  C   UNL     1       0.241  13.770  21.080  0.00  0.00    +0.000 C 
BRANCH  12  13
ATOM     13  N   UNL     1      -0.725  14.634  20.363  0.00  0.00    +0.000 NA
ATOM     14  C   UNL     1      -2.105  14.278  20.720  0.00  0.00    +0.000 C 
BRANCH  13  15
ATOM     15  C   UNL     1      -0.477  16.088  20.582  0.00  0.00    +0.000 C 
ATOM     16  C   UNL     1       0.415  16.427  21.793  0.00  0.00    +0.000 C 
BRANCH  15  17
ATOM     17  C   UNL     1      -0.005  16.802  19.312  0.00  0.00    +0.000 A 
ATOM     18  C   UNL     1      -0.944  17.348  18.421  0.00  0.00    +0.000 A 
ATOM     19  C   UNL     1      -0.528  17.997  17.253  0.00  0.00    +0.000 A 
ATOM     20  C   UNL     1       0.829  18.095  16.951  0.00  0.00    +0.000 A 
ATOM     21  C   UNL     1       1.772  17.550  17.816  0.00  0.00    +0.000 A 
ATOM     22  C   UNL     1       1.358  16.918  18.989  0.00  0.00    +0.000 A 
ENDBRANCH  15  17
ENDBRANCH  13  15
ENDBRANCH  12  13
ENDBRANCH  11  12
ENDBRANCH   9  11
ENDBRANCH   4   7
BRANCH   1  23
ATOM     23  C   UNL     1       3.594   6.438  17.937  0.00  0.00    +0.000 C 
BRANCH  23  24
ATOM     24  N   UNL     1       3.682   5.272  18.824  0.00  0.00    +0.000 NA
ATOM     25  H   UNL     1       3.229   5.373  19.733  0.00  0.00    +0.000 HD
BRANCH  24  26
ATOM     26  S   UNL     1       5.189   4.556  19.004  0.00  0.00    +0.000 S 
ATOM     27  O   UNL     1       5.009   3.223  19.533  0.00  0.00    +0.000 OA
ATOM     28  O   UNL     1       6.038   5.531  19.652  0.00  0.00    +0.000 OA
BRANCH  26  32
ATOM     29  C   UNL     1       6.491   4.333  14.635  0.00  0.00    +0.000 A 
ATOM     30  C   UNL     1       5.256   3.803  15.036  0.00  0.00    +0.000 A 
ATOM     31  C   UNL     1       4.872   3.844  16.374  0.00  0.00    +0.000 A 
ATOM     32  C   UNL     1       5.730   4.419  17.318  0.00  0.00    +0.000 A 
ATOM     33  C   UNL     1       6.966   4.941  16.936  0.00  0.00    +0.000 A 
ATOM     34  C   UNL     1       7.348   4.888  15.596  0.00  0.00    +0.000 A 
BRANCH  29  36
ATOM     35  C   UNL     1       6.022   3.397  12.373  0.00  0.00    +0.000 C 
ATOM     36  C   UNL     1       6.845   4.400  13.171  0.00  0.00    +0.000 C 
ENDBRANCH  29  36
ENDBRANCH  26  32
ENDBRANCH  24  26
ENDBRANCH  23  24
ENDBRANCH   1  23
TORSDOF 11
ENDMDL
