MODEL 1
REMARK VINA RESULT:      -9.2      0.000      0.000
REMARK  Name = 
REMARK  8 active torsions:
REMARK  status: ('A' for Active; 'I' for Inactive)
REMARK    1  A    between atoms: C_2  and  O_3
REMARK    2  A    between atoms: C_2  and  C_4
REMARK    3  A    between atoms: C_6  and  C_7
REMARK    4  A    between atoms: C_11  and  C_12
REMARK    5  A    between atoms: C_12  and  O_13
REMARK    6  A    between atoms: O_13  and  C_14
REMARK    7  A    between atoms: N_21  and  C_22
REMARK    8  A    between atoms: C_32  and  O_33
REMARK                            x       y       z     vdW  Elec       q    Type
REMARK                         _______ _______ _______ _____ _____    ______ ____
ROOT
ATOM      1  C   UNL     1       3.198   4.651  18.437  0.00  0.00    +0.000 A 
ATOM      2  C   UNL     1       2.524   3.429  18.432  0.00  0.00    +0.000 A 
ATOM      3  C   UNL     1       1.428   3.184  19.257  0.00  0.00    +0.000 A 
ATOM      4  C   UNL     1       0.976   4.179  20.120  0.00  0.00    +0.000 A 
ATOM      5  C   UNL     1       1.636   5.417  20.158  0.00  0.00    +0.000 A 
ATOM      6  C   UNL     1       2.744   5.633  19.340  0.00  0.00    +0.000 A 
ENDROOT
BRANCH   1   9
ATOM      7  C   UNL     1       6.468   6.033  17.060  0.00  0.00    +0.000 A 
ATOM      8  C   UNL     1       5.329   5.856  17.871  0.00  0.00    +0.000 A 
ATOM      9  C   UNL     1       4.333   4.922  17.534  0.00  0.00    +0.000 A 
ATOM     10  C   UNL     1       4.477   4.221  16.323  0.00  0.00    +0.000 A 
ATOM     11  C   UNL     1       5.583   4.413  15.491  0.00  0.00    +0.000 A 
ATOM     12  C   UNL     1       6.584   5.298  15.876  0.00  0.00    +0.000 A 
BRANCH   7  14
ATOM     13  O   UNL     1       7.767   8.022  16.959  0.00  0.00    +0.000 OA
ATOM     14  C   UNL     1       7.504   6.986  17.543  0.00  0.00    +0.000 C 
BRANCH  14  15
ATOM     15  O   UNL     1       8.073   6.646  18.719  0.00  0.00    +0.000 OA
ATOM     16  H   UNL     1       8.937   7.098  18.851  0.00  0.00    +0.000 HD
ENDBRANCH  14  15
ENDBRANCH   7  14
BRANCH  12  17
ATOM     17  O   UNL     1       7.703   5.416  15.092  0.00  0.00    +0.000 OA
ATOM     18  H   UNL     1       8.344   5.991  15.553  0.00  0.00    +0.000 HD
ENDBRANCH  12  17
ENDBRANCH   1   9
BRANCH   5  19
ATOM     19  C   UNL     1       1.188   6.476  21.137  0.00  0.00    +0.000 C 
BRANCH  19  20
ATOM     20  O   UNL     1       1.633   7.804  20.777  0.00  0.00    +0.000 OA
BRANCH  20  21
ATOM     21  C   UNL     1       0.691   8.775  21.009  0.00  0.00    +0.000 A 
ATOM     22  C   UNL     1       0.050   8.785  22.263  0.00  0.00    +0.000 A 
ATOM     23  C   UNL     1      -0.587   9.955  22.722  0.00  0.00    +0.000 A 
ATOM     24  C   UNL     1      -0.642  11.023  21.848  0.00  0.00    +0.000 A 
ATOM     25  C   UNL     1      -0.355  10.839  20.508  0.00  0.00    +0.000 A 
ATOM     26  C   UNL     1       0.405   9.776  20.088  0.00  0.00    +0.000 A 
ATOM     27  C   UNL     1      -0.664  12.072  19.775  0.00  0.00    +0.000 C 
ATOM     28  N   UNL     1      -0.332  13.064  20.767  0.00  0.00    +0.000 N 
ATOM     29  C   UNL     1      -0.475  12.508  22.054  0.00  0.00    +0.000 C 
ATOM     30  O   UNL     1      -0.334  13.044  23.132  0.00  0.00    +0.000 OA
BRANCH  28  31
ATOM     31  C   UNL     1       0.568  14.096  20.263  0.00  0.00    +0.000 C 
ATOM     32  C   UNL     1       2.005  13.660  20.541  0.00  0.00    +0.000 C 
ATOM     33  C   UNL     1       2.841  14.739  19.902  0.00  0.00    +0.000 C 
ATOM     34  C   UNL     1       2.039  15.181  18.681  0.00  0.00    +0.000 C 
ATOM     35  C   UNL     1       0.613  14.592  18.825  0.00  0.00    +0.000 C 
ENDBRANCH  28  31
ENDBRANCH  20  21
ENDBRANCH  19  20
ENDBRANCH   5  19
TORSDOF 8
ENDMDL
MODEL 2
REMARK VINA RESULT:      -9.1      1.023      1.214
REMARK  Name = 
REMARK  8 active torsions:
REMARK  status: ('A' for Active; 'I' for Inactive)
REMARK    1  A    between atoms: C_2  and  O_3
REMARK    2  A    between atoms: C_2  and  C_4
REMARK    3  A    between atoms: C_6  and  C_7
REMARK    4  A    between atoms: C_11  and  C_12
REMARK    5  A    between atoms: C_12  and  O_13
REMARK    6  A    between atoms: O_13  and  C_14
REMARK    7  A    between atoms: N_21  and  C_22
REMARK    8  A    between atoms: C_32  and  O_33
REMARK                            x       y       z     vdW  Elec       q    Type
REMARK                         _______ _______ _______ _____ _____    ______ ____
ROOT
ATOM      1  C   UNL     1       3.299   4.185  18.034  0.00  0.00    +0.000 A 
ATOM      2  C   UNL     1       2.692   2.932  17.925  0.00  0.00    +0.000 A 
ATOM      3  C   UNL     1       1.596   2.570  18.704  0.00  0.00    +0.000 A 
ATOM      4  C   UNL     1       1.074   3.474  19.627  0.00  0.00    +0.000 A 
ATOM      5  C   UNL     1       1.665   4.738  19.769  0.00  0.00    +0.000 A 
ATOM      6  C   UNL     1       2.775   5.072  18.995  0.00  0.00    +0.000 A 
ENDROOT
BRANCH   1   9
ATOM      7  C   UNL     1       6.504   5.851  16.829  0.00  0.00    +0.000 A 
ATOM      8  C   UNL     1       5.360   5.554  17.597  0.00  0.00    +0.000 A 
ATOM      9  C   UNL     1       4.434   4.582  17.179  0.00  0.00    +0.000 A 
ATOM     10  C   UNL     1       4.650   3.966  15.933  0.00  0.00    +0.000 A 
ATOM     11  C   UNL     1       5.761   4.277  15.144  0.00  0.00    +0.000 A 
ATOM     12  C   UNL     1       6.694   5.198  15.607  0.00  0.00    +0.000 A 
BRANCH   7  14
ATOM     13  O   UNL     1       7.715   7.897  16.852  0.00  0.00    +0.000 OA
ATOM     14  C   UNL     1       7.465   6.837  17.395  0.00  0.00    +0.000 C 
BRANCH  14  15
ATOM     15  O   UNL     1       7.978   6.492  18.595  0.00  0.00    +0.000 OA
ATOM     16  H   UNL     1       7.495   5.734  18.995  0.00  0.00    +0.000 HD
ENDBRANCH  14  15
ENDBRANCH   7  14
BRANCH  12  17
ATOM     17  O   UNL     1       7.820   5.434  14.861  0.00  0.00    +0.000 OA
ATOM     18  H   UNL     1       7.777   6.348  14.518  0.00  0.00    +0.000 HD
ENDBRANCH  12  17
ENDBRANCH   1   9
BRANCH   5  19
ATOM     19  C   UNL     1       1.142   5.697  20.813  0.00  0.00    +0.000 C 
BRANCH  19  20
ATOM     20  O   UNL     1       1.907   6.923  20.889  0.00  0.00    +0.000 OA
BRANCH  20  21
ATOM     21  C   UNL     1       1.148   8.051  20.698  0.00  0.00    +0.000 A 
ATOM     22  C   UNL     1       0.109   8.308  21.613  0.00  0.00    +0.000 A 
ATOM     23  C   UNL     1      -0.417   9.609  21.739  0.00  0.00    +0.000 A 
ATOM     24  C   UNL     1       0.054  10.563  20.857  0.00  0.00    +0.000 A 
ATOM     25  C   UNL     1       0.770  10.181  19.737  0.00  0.00    +0.000 A 
ATOM     26  C   UNL     1       1.413   8.969  19.690  0.00  0.00    +0.000 A 
ATOM     27  C   UNL     1       0.989  11.353  18.883  0.00  0.00    +0.000 C 
ATOM     28  N   UNL     1       1.119  12.389  19.876  0.00  0.00    +0.000 N 
ATOM     29  C   UNL     1       0.414  12.017  21.039  0.00  0.00    +0.000 C 
ATOM     30  O   UNL     1       0.252  12.647  22.062  0.00  0.00    +0.000 OA
BRANCH  28  31
ATOM     31  C   UNL     1       2.320  13.200  19.701  0.00  0.00    +0.000 C 
ATOM     32  C   UNL     1       2.519  13.448  18.207  0.00  0.00    +0.000 C 
ATOM     33  C   UNL     1       3.715  14.363  18.148  0.00  0.00    +0.000 C 
ATOM     34  C   UNL     1       3.609  15.223  19.404  0.00  0.00    +0.000 C 
ATOM     35  C   UNL     1       2.550  14.568  20.327  0.00  0.00    +0.000 C 
ENDBRANCH  28  31
ENDBRANCH  20  21
ENDBRANCH  19  20
ENDBRANCH   5  19
TORSDOF 8
ENDMDL
MODEL 3
REMARK VINA RESULT:      -9.1      3.792      9.556
REMARK  Name = 
REMARK  8 active torsions:
REMARK  status: ('A' for Active; 'I' for Inactive)
REMARK    1  A    between atoms: C_2  and  O_3
REMARK    2  A    between atoms: C_2  and  C_4
REMARK    3  A    between atoms: C_6  and  C_7
REMARK    4  A    between atoms: C_11  and  C_12
REMARK    5  A    between atoms: C_12  and  O_13
REMARK    6  A    between atoms: O_13  and  C_14
REMARK    7  A    between atoms: N_21  and  C_22
REMARK    8  A    between atoms: C_32  and  O_33
REMARK                            x       y       z     vdW  Elec       q    Type
REMARK                         _______ _______ _______ _____ _____    ______ ____
ROOT
ATOM      1  C   UNL     1       0.063   9.964  18.838  0.00  0.00    +0.000 A 
ATOM      2  C   UNL     1       0.903   9.939  17.723  0.00  0.00    +0.000 A 
ATOM      3  C   UNL     1       2.029   9.121  17.662  0.00  0.00    +0.000 A 
ATOM      4  C   UNL     1       2.343   8.295  18.739  0.00  0.00    +0.000 A 
ATOM      5  C   UNL     1       1.526   8.302  19.879  0.00  0.00    +0.000 A 
ATOM      6  C   UNL     1       0.416   9.144  19.928  0.00  0.00    +0.000 A 
ENDROOT
BRANCH   1   9
ATOM      7  C   UNL     1      -3.332  11.451  17.967  0.00  0.00    +0.000 A 
ATOM      8  C   UNL     1      -2.122  10.735  17.868  0.00  0.00    +0.000 A 
ATOM      9  C   UNL     1      -1.152  10.801  18.883  0.00  0.00    +0.000 A 
ATOM     10  C   UNL     1      -1.396  11.661  19.967  0.00  0.00    +0.000 A 
ATOM     11  C   UNL     1      -2.576  12.406  20.061  0.00  0.00    +0.000 A 
ATOM     12  C   UNL     1      -3.547  12.277  19.075  0.00  0.00    +0.000 A 
BRANCH   7  14
ATOM     13  O   UNL     1      -4.011  11.056  15.723  0.00  0.00    +0.000 OA
ATOM     14  C   UNL     1      -4.330  11.254  16.881  0.00  0.00    +0.000 C 
BRANCH  14  15
ATOM     15  O   UNL     1      -5.614  11.236  17.297  0.00  0.00    +0.000 OA
ATOM     16  H   UNL     1      -6.111  10.476  16.919  0.00  0.00    +0.000 HD
ENDBRANCH  14  15
ENDBRANCH   7  14
BRANCH  12  17
ATOM     17  O   UNL     1      -4.733  12.951  19.220  0.00  0.00    +0.000 OA
ATOM     18  H   UNL     1      -5.457  12.370  18.915  0.00  0.00    +0.000 HD
ENDBRANCH  12  17
ENDBRANCH   1   9
BRANCH   5  19
ATOM     19  C   UNL     1       1.897   7.455  21.074  0.00  0.00    +0.000 C 
BRANCH  19  20
ATOM     20  O   UNL     1       1.108   6.247  21.179  0.00  0.00    +0.000 OA
BRANCH  20  21
ATOM     21  C   UNL     1       1.760   5.130  20.717  0.00  0.00    +0.000 A 
ATOM     22  C   UNL     1       1.062   3.907  20.731  0.00  0.00    +0.000 A 
ATOM     23  C   UNL     1       1.484   2.843  19.910  0.00  0.00    +0.000 A 
ATOM     24  C   UNL     1       2.654   3.025  19.199  0.00  0.00    +0.000 A 
ATOM     25  C   UNL     1       3.503   4.071  19.516  0.00  0.00    +0.000 A 
ATOM     26  C   UNL     1       3.040   5.179  20.180  0.00  0.00    +0.000 A 
ATOM     27  C   UNL     1       4.745   3.932  18.748  0.00  0.00    +0.000 C 
ATOM     28  N   UNL     1       4.243   3.355  17.526  0.00  0.00    +0.000 N 
ATOM     29  C   UNL     1       3.054   2.646  17.795  0.00  0.00    +0.000 C 
ATOM     30  O   UNL     1       2.373   1.991  17.036  0.00  0.00    +0.000 OA
BRANCH  28  31
ATOM     31  C   UNL     1       4.683   4.071  16.333  0.00  0.00    +0.000 C 
ATOM     32  C   UNL     1       4.820   5.551  16.683  0.00  0.00    +0.000 C 
ATOM     33  C   UNL     1       5.364   6.173  15.423  0.00  0.00    +0.000 C 
ATOM     34  C   UNL     1       6.258   5.096  14.813  0.00  0.00    +0.000 C 
ATOM     35  C   UNL     1       5.951   3.767  15.549  0.00  0.00    +0.000 C 
ENDBRANCH  28  31
ENDBRANCH  20  21
ENDBRANCH  19  20
ENDBRANCH   5  19
TORSDOF 8
ENDMDL
MODEL 4
REMARK VINA RESULT:      -8.9      2.915      9.226
REMARK  Name = 
REMARK  8 active torsions:
REMARK  status: ('A' for Active; 'I' for Inactive)
REMARK    1  A    between atoms: C_2  and  O_3
REMARK    2  A    between atoms: C_2  and  C_4
REMARK    3  A    between atoms: C_6  and  C_7
REMARK    4  A    between atoms: C_11  and  C_12
REMARK    5  A    between atoms: C_12  and  O_13
REMARK    6  A    between atoms: O_13  and  C_14
REMARK    7  A    between atoms: N_21  and  C_22
REMARK    8  A    between atoms: C_32  and  O_33
REMARK                            x       y       z     vdW  Elec       q    Type
REMARK                         _______ _______ _______ _____ _____    ______ ____
ROOT
ATOM      1  C   UNL     1       0.856   9.874  19.351  0.00  0.00    +0.000 A 
ATOM      2  C   UNL     1       1.611   9.855  18.177  0.00  0.00    +0.000 A 
ATOM      3  C   UNL     1       2.404   8.765  17.824  0.00  0.00    +0.000 A 
ATOM      4  C   UNL     1       2.457   7.649  18.657  0.00  0.00    +0.000 A 
ATOM      5  C   UNL     1       1.718   7.638  19.849  0.00  0.00    +0.000 A 
ATOM      6  C   UNL     1       0.949   8.748  20.194  0.00  0.00    +0.000 A 
ENDROOT
BRANCH   1   9
ATOM      7  C   UNL     1      -1.234  12.332  21.372  0.00  0.00    +0.000 A 
ATOM      8  C   UNL     1      -0.496  11.187  21.013  0.00  0.00    +0.000 A 
ATOM      9  C   UNL     1      -0.015  11.012  19.703  0.00  0.00    +0.000 A 
ATOM     10  C   UNL     1      -0.356  11.983  18.746  0.00  0.00    +0.000 A 
ATOM     11  C   UNL     1      -1.119  13.106  19.079  0.00  0.00    +0.000 A 
ATOM     12  C   UNL     1      -1.532  13.287  20.395  0.00  0.00    +0.000 A 
BRANCH   7  14
ATOM     13  O   UNL     1      -2.286  11.619  23.382  0.00  0.00    +0.000 OA
ATOM     14  C   UNL     1      -1.631  12.464  22.801  0.00  0.00    +0.000 C 
BRANCH  14  15
ATOM     15  O   UNL     1      -1.141  13.560  23.418  0.00  0.00    +0.000 OA
ATOM     16  H   UNL     1      -1.800  13.961  24.029  0.00  0.00    +0.000 HD
ENDBRANCH  14  15
ENDBRANCH   7  14
BRANCH  12  17
ATOM     17  O   UNL     1      -2.210  14.432  20.726  0.00  0.00    +0.000 OA
ATOM     18  H   UNL     1      -3.071  14.425  20.265  0.00  0.00    +0.000 HD
ENDBRANCH  12  17
ENDBRANCH   1   9
BRANCH   5  19
ATOM     19  C   UNL     1       1.823   6.457  20.785  0.00  0.00    +0.000 C 
BRANCH  19  20
ATOM     20  O   UNL     1       1.264   5.244  20.230  0.00  0.00    +0.000 OA
BRANCH  20  21
ATOM     21  C   UNL     1       2.153   4.541  19.454  0.00  0.00    +0.000 A 
ATOM     22  C   UNL     1       1.669   3.949  18.271  0.00  0.00    +0.000 A 
ATOM     23  C   UNL     1       2.563   3.594  17.241  0.00  0.00    +0.000 A 
ATOM     24  C   UNL     1       3.911   3.751  17.500  0.00  0.00    +0.000 A 
ATOM     25  C   UNL     1       4.350   3.958  18.795  0.00  0.00    +0.000 A 
ATOM     26  C   UNL     1       3.506   4.458  19.755  0.00  0.00    +0.000 A 
ATOM     27  C   UNL     1       5.816   3.907  18.820  0.00  0.00    +0.000 C 
ATOM     28  N   UNL     1       6.127   4.472  17.531  0.00  0.00    +0.000 N 
ATOM     29  C   UNL     1       5.053   4.243  16.646  0.00  0.00    +0.000 C 
ATOM     30  O   UNL     1       4.966   4.524  15.470  0.00  0.00    +0.000 OA
BRANCH  28  31
ATOM     31  C   UNL     1       7.094   5.562  17.603  0.00  0.00    +0.000 C 
ATOM     32  C   UNL     1       6.389   6.858  17.209  0.00  0.00    +0.000 C 
ATOM     33  C   UNL     1       7.442   7.918  17.408  0.00  0.00    +0.000 C 
ATOM     34  C   UNL     1       8.267   7.428  18.596  0.00  0.00    +0.000 C 
ATOM     35  C   UNL     1       7.888   5.946  18.843  0.00  0.00    +0.000 C 
ENDBRANCH  28  31
ENDBRANCH  20  21
ENDBRANCH  19  20
ENDBRANCH   5  19
TORSDOF 8
ENDMDL
MODEL 5
REMARK VINA RESULT:      -8.9      1.495      2.514
REMARK  Name = 
REMARK  8 active torsions:
REMARK  status: ('A' for Active; 'I' for Inactive)
REMARK    1  A    between atoms: C_2  and  O_3
REMARK    2  A    between atoms: C_2  and  C_4
REMARK    3  A    between atoms: C_6  and  C_7
REMARK    4  A    between atoms: C_11  and  C_12
REMARK    5  A    between atoms: C_12  and  O_13
REMARK    6  A    between atoms: O_13  and  C_14
REMARK    7  A    between atoms: N_21  and  C_22
REMARK    8  A    between atoms: C_32  and  O_33
REMARK                            x       y       z     vdW  Elec       q    Type
REMARK                         _______ _______ _______ _____ _____    ______ ____
ROOT
ATOM      1  C   UNL     1       3.638   4.270  17.482  0.00  0.00    +0.000 A 
ATOM      2  C   UNL     1       2.807   3.157  17.337  0.00  0.00    +0.000 A 
ATOM      3  C   UNL     1       1.680   2.966  18.134  0.00  0.00    +0.000 A 
ATOM      4  C   UNL     1       1.356   3.904  19.111  0.00  0.00    +0.000 A 
ATOM      5  C   UNL     1       2.174   5.030  19.290  0.00  0.00    +0.000 A 
ATOM      6  C   UNL     1       3.309   5.191  18.497  0.00  0.00    +0.000 A 
ENDROOT
BRANCH   1   9
ATOM      7  C   UNL     1       5.912   4.302  14.428  0.00  0.00    +0.000 A 
ATOM      8  C   UNL     1       4.844   3.995  15.295  0.00  0.00    +0.000 A 
ATOM      9  C   UNL     1       4.808   4.491  16.611  0.00  0.00    +0.000 A 
ATOM     10  C   UNL     1       5.910   5.243  17.056  0.00  0.00    +0.000 A 
ATOM     11  C   UNL     1       6.993   5.523  16.219  0.00  0.00    +0.000 A 
ATOM     12  C   UNL     1       6.977   5.073  14.904  0.00  0.00    +0.000 A 
BRANCH   7  14
ATOM     13  O   UNL     1       4.760   3.514  12.504  0.00  0.00    +0.000 OA
ATOM     14  C   UNL     1       5.819   3.797  13.031  0.00  0.00    +0.000 C 
BRANCH  14  15
ATOM     15  O   UNL     1       6.997   3.752  12.374  0.00  0.00    +0.000 OA
ATOM     16  H   UNL     1       6.922   4.115  11.463  0.00  0.00    +0.000 HD
ENDBRANCH  14  15
ENDBRANCH   7  14
BRANCH  12  17
ATOM     17  O   UNL     1       8.007   5.424  14.070  0.00  0.00    +0.000 OA
ATOM     18  H   UNL     1       7.769   5.166  13.158  0.00  0.00    +0.000 HD
ENDBRANCH  12  17
ENDBRANCH   1   9
BRANCH   5  19
ATOM     19  C   UNL     1       1.862   6.017  20.390  0.00  0.00    +0.000 C 
BRANCH  19  20
ATOM     20  O   UNL     1       2.361   7.346  20.115  0.00  0.00    +0.000 OA
BRANCH  20  21
ATOM     21  C   UNL     1       1.408   8.325  20.257  0.00  0.00    +0.000 A 
ATOM     22  C   UNL     1       0.777   8.453  21.509  0.00  0.00    +0.000 A 
ATOM     23  C   UNL     1       0.130   9.656  21.854  0.00  0.00    +0.000 A 
ATOM     24  C   UNL     1       0.054  10.630  20.877  0.00  0.00    +0.000 A 
ATOM     25  C   UNL     1       0.334  10.316  19.560  0.00  0.00    +0.000 A 
ATOM     26  C   UNL     1       1.103   9.225  19.243  0.00  0.00    +0.000 A 
ATOM     27  C   UNL     1       0.004  11.465  18.710  0.00  0.00    +0.000 C 
ATOM     28  N   UNL     1       0.331  12.555  19.594  0.00  0.00    +0.000 N 
ATOM     29  C   UNL     1       0.205  12.130  20.932  0.00  0.00    +0.000 C 
ATOM     30  O   UNL     1       0.347  12.774  21.949  0.00  0.00    +0.000 OA
BRANCH  28  31
ATOM     31  C   UNL     1       1.214  13.542  18.980  0.00  0.00    +0.000 C 
ATOM     32  C   UNL     1       0.625  14.930  19.222  0.00  0.00    +0.000 C 
ATOM     33  C   UNL     1       1.653  15.866  18.637  0.00  0.00    +0.000 C 
ATOM     34  C   UNL     1       2.992  15.177  18.886  0.00  0.00    +0.000 C 
ATOM     35  C   UNL     1       2.691  13.716  19.303  0.00  0.00    +0.000 C 
ENDBRANCH  28  31
ENDBRANCH  20  21
ENDBRANCH  19  20
ENDBRANCH   5  19
TORSDOF 8
ENDMDL
MODEL 6
REMARK VINA RESULT:      -8.9      2.026      2.861
REMARK  Name = 
REMARK  8 active torsions:
REMARK  status: ('A' for Active; 'I' for Inactive)
REMARK    1  A    between atoms: C_2  and  O_3
REMARK    2  A    between atoms: C_2  and  C_4
REMARK    3  A    between atoms: C_6  and  C_7
REMARK    4  A    between atoms: C_11  and  C_12
REMARK    5  A    between atoms: C_12  and  O_13
REMARK    6  A    between atoms: O_13  and  C_14
REMARK    7  A    between atoms: N_21  and  C_22
REMARK    8  A    between atoms: C_32  and  O_33
REMARK                            x       y       z     vdW  Elec       q    Type
REMARK                         _______ _______ _______ _____ _____    ______ ____
ROOT
ATOM      1  C   UNL     1       3.452   3.942  17.904  0.00  0.00    +0.000 A 
ATOM      2  C   UNL     1       3.101   2.592  17.977  0.00  0.00    +0.000 A 
ATOM      3  C   UNL     1       2.027   2.146  18.743  0.00  0.00    +0.000 A 
ATOM      4  C   UNL     1       1.266   3.061  19.467  0.00  0.00    +0.000 A 
ATOM      5  C   UNL     1       1.595   4.424  19.425  0.00  0.00    +0.000 A 
ATOM      6  C   UNL     1       2.688   4.846  18.669  0.00  0.00    +0.000 A 
ENDROOT
BRANCH   1   9
ATOM      7  C   UNL     1       6.584   5.775  16.753  0.00  0.00    +0.000 A 
ATOM      8  C   UNL     1       5.458   5.403  17.515  0.00  0.00    +0.000 A 
ATOM      9  C   UNL     1       4.565   4.417  17.060  0.00  0.00    +0.000 A 
ATOM     10  C   UNL     1       4.792   3.865  15.787  0.00  0.00    +0.000 A 
ATOM     11  C   UNL     1       5.884   4.252  15.004  0.00  0.00    +0.000 A 
ATOM     12  C   UNL     1       6.787   5.184  15.502  0.00  0.00    +0.000 A 
BRANCH   7  14
ATOM     13  O   UNL     1       7.772   7.833  16.824  0.00  0.00    +0.000 OA
ATOM     14  C   UNL     1       7.513   6.769  17.356  0.00  0.00    +0.000 C 
BRANCH  14  15
ATOM     15  O   UNL     1       7.985   6.427  18.573  0.00  0.00    +0.000 OA
ATOM     16  H   UNL     1       7.455   6.830  19.297  0.00  0.00    +0.000 HD
ENDBRANCH  14  15
ENDBRANCH   7  14
BRANCH  12  17
ATOM     17  O   UNL     1       7.897   5.494  14.759  0.00  0.00    +0.000 OA
ATOM     18  H   UNL     1       7.974   4.845  14.034  0.00  0.00    +0.000 HD
ENDBRANCH  12  17
ENDBRANCH   1   9
BRANCH   5  19
ATOM     19  C   UNL     1       0.812   5.411  20.258  0.00  0.00    +0.000 C 
BRANCH  19  20
ATOM     20  O   UNL     1       1.658   6.284  21.043  0.00  0.00    +0.000 OA
BRANCH  20  21
ATOM     21  C   UNL     1       1.629   7.591  20.622  0.00  0.00    +0.000 A 
ATOM     22  C   UNL     1       1.905   7.852  19.266  0.00  0.00    +0.000 A 
ATOM     23  C   UNL     1       1.491   9.065  18.681  0.00  0.00    +0.000 A 
ATOM     24  C   UNL     1       0.917  10.001  19.520  0.00  0.00    +0.000 A 
ATOM     25  C   UNL     1       1.025   9.864  20.892  0.00  0.00    +0.000 A 
ATOM     26  C   UNL     1       1.272   8.639  21.461  0.00  0.00    +0.000 A 
ATOM     27  C   UNL     1       0.499  11.070  21.540  0.00  0.00    +0.000 C 
ATOM     28  N   UNL     1      -0.558  11.426  20.627  0.00  0.00    +0.000 N 
ATOM     29  C   UNL     1      -0.252  10.937  19.340  0.00  0.00    +0.000 C 
ATOM     30  O   UNL     1      -0.871  11.080  18.308  0.00  0.00    +0.000 OA
BRANCH  28  31
ATOM     31  C   UNL     1      -1.839  11.642  21.291  0.00  0.00    +0.000 C 
ATOM     32  C   UNL     1      -1.583  11.802  22.788  0.00  0.00    +0.000 C 
ATOM     33  C   UNL     1      -2.945  12.111  23.357  0.00  0.00    +0.000 C 
ATOM     34  C   UNL     1      -3.650  12.912  22.266  0.00  0.00    +0.000 C 
ATOM     35  C   UNL     1      -2.814  12.764  20.969  0.00  0.00    +0.000 C 
ENDBRANCH  28  31
ENDBRANCH  20  21
ENDBRANCH  19  20
ENDBRANCH   5  19
TORSDOF 8
ENDMDL
MODEL 7
REMARK VINA RESULT:      -8.8      3.428      9.562
REMARK  Name = 
REMARK  8 active torsions:
REMARK  status: ('A' for Active; 'I' for Inactive)
REMARK    1  A    between atoms: C_2  and  O_3
REMARK    2  A    between atoms: C_2  and  C_4
REMARK    3  A    between atoms: C_6  and  C_7
REMARK    4  A    between atoms: C_11  and  C_12
REMARK    5  A    between atoms: C_12  and  O_13
REMARK    6  A    between atoms: O_13  and  C_14
REMARK    7  A    between atoms: N_21  and  C_22
REMARK    8  A    between atoms: C_32  and  O_33
REMARK                            x       y       z     vdW  Elec       q    Type
REMARK                         _______ _______ _______ _____ _____    ______ ____
ROOT
ATOM      1  C   UNL     1       2.077   5.483  20.088  0.00  0.00    +0.000 A 
ATOM      2  C   UNL     1       1.230   4.703  20.878  0.00  0.00    +0.000 A 
ATOM      3  C   UNL     1       1.510   3.370  21.170  0.00  0.00    +0.000 A 
ATOM      4  C   UNL     1       2.666   2.779  20.667  0.00  0.00    +0.000 A 
ATOM      5  C   UNL     1       3.535   3.531  19.862  0.00  0.00    +0.000 A 
ATOM      6  C   UNL     1       3.226   4.857  19.563  0.00  0.00    +0.000 A 
ENDROOT
BRANCH   1   9
ATOM      7  C   UNL     1       1.019   9.111  20.551  0.00  0.00    +0.000 A 
ATOM      8  C   UNL     1       1.182   7.729  20.772  0.00  0.00    +0.000 A 
ATOM      9  C   UNL     1       1.800   6.906  19.813  0.00  0.00    +0.000 A 
ATOM     10  C   UNL     1       2.186   7.496  18.597  0.00  0.00    +0.000 A 
ATOM     11  C   UNL     1       1.997   8.859  18.349  0.00  0.00    +0.000 A 
ATOM     12  C   UNL     1       1.438   9.663  19.337  0.00  0.00    +0.000 A 
BRANCH   7  14
ATOM     13  O   UNL     1       0.884   9.913  22.785  0.00  0.00    +0.000 OA
ATOM     14  C   UNL     1       0.426   9.910  21.658  0.00  0.00    +0.000 C 
BRANCH  14  15
ATOM     15  O   UNL     1      -0.615  10.687  21.291  0.00  0.00    +0.000 OA
ATOM     16  H   UNL     1      -1.275  10.780  22.015  0.00  0.00    +0.000 HD
ENDBRANCH  14  15
ENDBRANCH   7  14
BRANCH  12  17
ATOM     17  O   UNL     1       1.333  11.011  19.113  0.00  0.00    +0.000 OA
ATOM     18  H   UNL     1       0.872  11.148  18.263  0.00  0.00    +0.000 HD
ENDBRANCH  12  17
ENDBRANCH   1   9
BRANCH   5  19
ATOM     19  C   UNL     1       4.757   2.876  19.262  0.00  0.00    +0.000 C 
BRANCH  19  20
ATOM     20  O   UNL     1       5.889   3.772  19.166  0.00  0.00    +0.000 OA
BRANCH  20  21
ATOM     21  C   UNL     1       5.912   4.495  17.998  0.00  0.00    +0.000 A 
ATOM     22  C   UNL     1       6.727   5.642  17.950  0.00  0.00    +0.000 A 
ATOM     23  C   UNL     1       7.128   6.173  16.708  0.00  0.00    +0.000 A 
ATOM     24  C   UNL     1       6.597   5.587  15.575  0.00  0.00    +0.000 A 
ATOM     25  C   UNL     1       5.512   4.735  15.677  0.00  0.00    +0.000 A 
ATOM     26  C   UNL     1       5.225   4.097  16.858  0.00  0.00    +0.000 A 
ATOM     27  C   UNL     1       5.034   4.402  14.332  0.00  0.00    +0.000 C 
ATOM     28  N   UNL     1       6.275   4.395  13.599  0.00  0.00    +0.000 N 
ATOM     29  C   UNL     1       7.201   5.247  14.235  0.00  0.00    +0.000 C 
ATOM     30  O   UNL     1       8.326   5.537  13.891  0.00  0.00    +0.000 OA
BRANCH  28  31
ATOM     31  C   UNL     1       6.470   3.179  12.817  0.00  0.00    +0.000 C 
ATOM     32  C   UNL     1       5.174   2.874  12.069  0.00  0.00    +0.000 C 
ATOM     33  C   UNL     1       5.515   1.668  11.231  0.00  0.00    +0.000 C 
ATOM     34  C   UNL     1       6.984   1.854  10.862  0.00  0.00    +0.000 C 
ATOM     35  C   UNL     1       7.550   2.980  11.764  0.00  0.00    +0.000 C 
ENDBRANCH  28  31
ENDBRANCH  20  21
ENDBRANCH  19  20
ENDBRANCH   5  19
TORSDOF 8
ENDMDL
MODEL 8
REMARK VINA RESULT:      -8.8      2.877      8.932
REMARK  Name = 
REMARK  8 active torsions:
REMARK  status: ('A' for Active; 'I' for Inactive)
REMARK    1  A    between atoms: C_2  and  O_3
REMARK    2  A    between atoms: C_2  and  C_4
REMARK    3  A    between atoms: C_6  and  C_7
REMARK    4  A    between atoms: C_11  and  C_12
REMARK    5  A    between atoms: C_12  and  O_13
REMARK    6  A    between atoms: O_13  and  C_14
REMARK    7  A    between atoms: N_21  and  C_22
REMARK    8  A    between atoms: C_32  and  O_33
REMARK                            x       y       z     vdW  Elec       q    Type
REMARK                         _______ _______ _______ _____ _____    ______ ____
ROOT
ATOM      1  C   UNL     1       1.104   9.850  19.131  0.00  0.00    +0.000 A 
ATOM      2  C   UNL     1       1.857   9.670  17.969  0.00  0.00    +0.000 A 
ATOM      3  C   UNL     1       2.548   8.489  17.709  0.00  0.00    +0.000 A 
ATOM      4  C   UNL     1       2.498   7.442  18.627  0.00  0.00    +0.000 A 
ATOM      5  C   UNL     1       1.758   7.591  19.809  0.00  0.00    +0.000 A 
ATOM      6  C   UNL     1       1.092   8.790  20.060  0.00  0.00    +0.000 A 
ENDROOT
BRANCH   1   9
ATOM      7  C   UNL     1       0.220  13.532  19.525  0.00  0.00    +0.000 A 
ATOM      8  C   UNL     1       0.968  12.345  19.393  0.00  0.00    +0.000 A 
ATOM      9  C   UNL     1       0.340  11.087  19.385  0.00  0.00    +0.000 A 
ATOM     10  C   UNL     1      -1.051  11.048  19.585  0.00  0.00    +0.000 A 
ATOM     11  C   UNL     1      -1.800  12.216  19.754  0.00  0.00    +0.000 A 
ATOM     12  C   UNL     1      -1.165  13.451  19.698  0.00  0.00    +0.000 A 
BRANCH   7  14
ATOM     13  O   UNL     1       1.788  15.045  18.573  0.00  0.00    +0.000 OA
ATOM     14  C   UNL     1       0.967  14.817  19.442  0.00  0.00    +0.000 C 
BRANCH  14  15
ATOM     15  O   UNL     1       0.603  15.736  20.362  0.00  0.00    +0.000 OA
ATOM     16  H   UNL     1       0.667  16.652  20.009  0.00  0.00    +0.000 HD
ENDBRANCH  14  15
ENDBRANCH   7  14
BRANCH  12  17
ATOM     17  O   UNL     1      -1.922  14.591  19.784  0.00  0.00    +0.000 OA
ATOM     18  H   UNL     1      -2.836  14.338  20.017  0.00  0.00    +0.000 HD
ENDBRANCH  12  17
ENDBRANCH   1   9
BRANCH   5  19
ATOM     19  C   UNL     1       1.753   6.483  20.836  0.00  0.00    +0.000 C 
BRANCH  19  20
ATOM     20  O   UNL     1       1.184   5.250  20.334  0.00  0.00    +0.000 OA
BRANCH  20  21
ATOM     21  C   UNL     1       2.061   4.519  19.571  0.00  0.00    +0.000 A 
ATOM     22  C   UNL     1       1.561   3.894  18.412  0.00  0.00    +0.000 A 
ATOM     23  C   UNL     1       2.442   3.502  17.384  0.00  0.00    +0.000 A 
ATOM     24  C   UNL     1       3.794   3.658  17.624  0.00  0.00    +0.000 A 
ATOM     25  C   UNL     1       4.248   3.902  18.908  0.00  0.00    +0.000 A 
ATOM     26  C   UNL     1       3.417   4.436  19.860  0.00  0.00    +0.000 A 
ATOM     27  C   UNL     1       5.713   3.843  18.919  0.00  0.00    +0.000 C 
ATOM     28  N   UNL     1       6.014   4.366  17.610  0.00  0.00    +0.000 N 
ATOM     29  C   UNL     1       4.930   4.116  16.744  0.00  0.00    +0.000 C 
ATOM     30  O   UNL     1       4.832   4.362  15.561  0.00  0.00    +0.000 OA
BRANCH  28  31
ATOM     31  C   UNL     1       6.989   5.452  17.639  0.00  0.00    +0.000 C 
ATOM     32  C   UNL     1       6.274   6.749  17.268  0.00  0.00    +0.000 C 
ATOM     33  C   UNL     1       7.338   7.805  17.420  0.00  0.00    +0.000 C 
ATOM     34  C   UNL     1       8.209   7.316  18.575  0.00  0.00    +0.000 C 
ATOM     35  C   UNL     1       7.834   5.837  18.843  0.00  0.00    +0.000 C 
ENDBRANCH  28  31
ENDBRANCH  20  21
ENDBRANCH  19  20
ENDBRANCH   5  19
TORSDOF 8
ENDMDL
MODEL 9
REMARK VINA RESULT:      -8.7      1.940      3.244
REMARK  Name = 
REMARK  8 active torsions:
REMARK  status: ('A' for Active; 'I' for Inactive)
REMARK    1  A    between atoms: C_2  and  O_3
REMARK    2  A    between atoms: C_2  and  C_4
REMARK    3  A    between atoms: C_6  and  C_7
REMARK    4  A    between atoms: C_11  and  C_12
REMARK    5  A    between atoms: C_12  and  O_13
REMARK    6  A    between atoms: O_13  and  C_14
REMARK    7  A    between atoms: N_21  and  C_22
REMARK    8  A    between atoms: C_32  and  O_33
REMARK                            x       y       z     vdW  Elec       q    Type
REMARK                         _______ _______ _______ _____ _____    ______ ____
ROOT
ATOM      1  C   UNL     1       3.115   4.826  18.761  0.00  0.00    +0.000 A 
ATOM      2  C   UNL     1       2.313   3.686  18.835  0.00  0.00    +0.000 A 
ATOM      3  C   UNL     1       1.210   3.610  19.683  0.00  0.00    +0.000 A 
ATOM      4  C   UNL     1       0.882   4.696  20.491  0.00  0.00    +0.000 A 
ATOM      5  C   UNL     1       1.671   5.855  20.449  0.00  0.00    +0.000 A 
ATOM      6  C   UNL     1       2.783   5.902  19.609  0.00  0.00    +0.000 A 
ENDROOT
BRANCH   1   9
ATOM      7  C   UNL     1       6.475   5.796  17.256  0.00  0.00    +0.000 A 
ATOM      8  C   UNL     1       5.334   5.789  18.084  0.00  0.00    +0.000 A 
ATOM      9  C   UNL     1       4.258   4.919  17.833  0.00  0.00    +0.000 A 
ATOM     10  C   UNL     1       4.327   4.107  16.687  0.00  0.00    +0.000 A 
ATOM     11  C   UNL     1       5.436   4.130  15.837  0.00  0.00    +0.000 A 
ATOM     12  C   UNL     1       6.513   4.955  16.139  0.00  0.00    +0.000 A 
BRANCH   7  14
ATOM     13  O   UNL     1       8.118   6.650  18.747  0.00  0.00    +0.000 OA
ATOM     14  C   UNL     1       7.594   6.695  17.649  0.00  0.00    +0.000 C 
BRANCH  14  15
ATOM     15  O   UNL     1       8.029   7.510  16.666  0.00  0.00    +0.000 OA
ATOM     16  H   UNL     1       8.920   7.879  16.863  0.00  0.00    +0.000 HD
ENDBRANCH  14  15
ENDBRANCH   7  14
BRANCH  12  17
ATOM     17  O   UNL     1       7.628   4.909  15.343  0.00  0.00    +0.000 OA
ATOM     18  H   UNL     1       7.347   4.703  14.430  0.00  0.00    +0.000 HD
ENDBRANCH  12  17
ENDBRANCH   1   9
BRANCH   5  19
ATOM     19  C   UNL     1       1.357   7.011  21.368  0.00  0.00    +0.000 C 
BRANCH  19  20
ATOM     20  O   UNL     1       0.073   7.619  21.093  0.00  0.00    +0.000 OA
BRANCH  20  21
ATOM     21  C   UNL     1       0.104   8.992  21.123  0.00  0.00    +0.000 A 
ATOM     22  C   UNL     1       0.593   9.664  19.986  0.00  0.00    +0.000 A 
ATOM     23  C   UNL     1       0.269  11.018  19.772  0.00  0.00    +0.000 A 
ATOM     24  C   UNL     1      -0.438  11.659  20.770  0.00  0.00    +0.000 A 
ATOM     25  C   UNL     1      -0.552  11.081  22.022  0.00  0.00    +0.000 A 
ATOM     26  C   UNL     1      -0.391   9.729  22.191  0.00  0.00    +0.000 A 
ATOM     27  C   UNL     1      -1.184  12.037  22.938  0.00  0.00    +0.000 C 
ATOM     28  N   UNL     1      -2.082  12.717  22.039  0.00  0.00    +0.000 N 
ATOM     29  C   UNL     1      -1.569  12.656  20.727  0.00  0.00    +0.000 C 
ATOM     30  O   UNL     1      -2.015  13.152  19.715  0.00  0.00    +0.000 OA
BRANCH  28  31
ATOM     31  C   UNL     1      -3.455  12.765  22.531  0.00  0.00    +0.000 C 
ATOM     32  C   UNL     1      -3.459  12.311  23.990  0.00  0.00    +0.000 C 
ATOM     33  C   UNL     1      -4.892  12.489  24.420  0.00  0.00    +0.000 C 
ATOM     34  C   UNL     1      -5.384  13.706  23.642  0.00  0.00    +0.000 C 
ATOM     35  C   UNL     1      -4.340  14.002  22.536  0.00  0.00    +0.000 C 
ENDBRANCH  28  31
ENDBRANCH  20  21
ENDBRANCH  19  20
ENDBRANCH   5  19
TORSDOF 8
ENDMDL
