MODEL 1
REMARK VINA RESULT:      -8.1      0.000      0.000
REMARK  Name = 
REMARK  7 active torsions:
REMARK  status: ('A' for Active; 'I' for Inactive)
REMARK    1  A    between atoms: C_2  and  C_3
REMARK    2  A    between atoms: C_6  and  C_7
REMARK    3  A    between atoms: C_7  and  N_8
REMARK    4  A    between atoms: C_12  and  C_14
REMARK    5  A    between atoms: C_14  and  N_15
REMARK    6  A    between atoms: C_16  and  C_18
REMARK    7  A    between atoms: C_18  and  C_19
REMARK                            x       y       z     vdW  Elec       q    Type
REMARK                         _______ _______ _______ _____ _____    ______ ____
ROOT
ATOM      1  N   UNL     1      -0.207  10.954  19.476  0.00  0.00    +0.000 NA
ATOM      2  C   UNL     1       0.234  10.513  18.151  0.00  0.00    +0.000 C 
ATOM      3  C   UNL     1       1.671  10.038  18.362  0.00  0.00    +0.000 C 
ATOM      4  N   UNL     1       1.683   8.887  19.267  0.00  0.00    +0.000 N 
ATOM      5  C   UNL     1       2.269   7.715  18.821  0.00  0.00    +0.000 C 
ATOM      6  O   UNL     1       2.774   7.610  17.701  0.00  0.00    +0.000 OA
ATOM      7  C   UNL     1       0.981   9.119  20.553  0.00  0.00    +0.000 C 
ATOM      8  C   UNL     1      -0.409   9.801  20.360  0.00  0.00    +0.000 C 
ENDROOT
BRANCH   1   9
ATOM      9  C   UNL     1      -1.102  12.092  19.491  0.00  0.00    +0.000 C 
BRANCH   9  13
ATOM     10  C   UNL     1      -3.310  12.424  23.237  0.00  0.00    +0.000 A 
ATOM     11  C   UNL     1      -3.949  12.607  22.003  0.00  0.00    +0.000 A 
ATOM     12  C   UNL     1      -3.218  12.508  20.815  0.00  0.00    +0.000 A 
ATOM     13  C   UNL     1      -1.840  12.224  20.828  0.00  0.00    +0.000 A 
ATOM     14  C   UNL     1      -1.205  12.084  22.076  0.00  0.00    +0.000 A 
ATOM     15  C   UNL     1      -1.933  12.175  23.266  0.00  0.00    +0.000 A 
BRANCH  10  17
ATOM     16  N   UNL     1      -4.654  12.522  25.452  0.00  0.00    +0.000 NA
ATOM     17  C   UNL     1      -4.052  12.485  24.444  0.00  0.00    +0.000 C 
ENDBRANCH  10  17
ENDBRANCH   9  13
ENDBRANCH   1   9
BRANCH   5  18
ATOM     18  C   UNL     1       2.271   6.516  19.762  0.00  0.00    +0.000 C 
BRANCH  18  19
ATOM     19  N   UNL     1       3.516   5.780  19.691  0.00  0.00    +0.000 N 
ATOM     20  C   UNL     1       3.481   4.422  19.456  0.00  0.00    +0.000 C 
ATOM     21  O   UNL     1       2.422   3.808  19.360  0.00  0.00    +0.000 OA
ATOM     22  H   UNL     1       4.382   6.282  19.818  0.00  0.00    +0.000 HD
BRANCH  20  23
ATOM     23  C   UNL     1       4.843   3.737  19.364  0.00  0.00    +0.000 C 
BRANCH  23  24
ATOM     24  C   UNL     1       5.875   4.554  18.606  0.00  0.00    +0.000 A 
ATOM     25  C   UNL     1       6.728   5.374  19.371  0.00  0.00    +0.000 A 
ATOM     26  C   UNL     1       7.602   6.269  18.768  0.00  0.00    +0.000 A 
ATOM     27  C   UNL     1       7.657   6.350  17.382  0.00  0.00    +0.000 A 
ATOM     28  C   UNL     1       6.877   5.504  16.584  0.00  0.00    +0.000 A 
ATOM     29  C   UNL     1       6.993   5.582  15.187  0.00  0.00    +0.000 A 
ATOM     30  C   UNL     1       6.258   4.741  14.357  0.00  0.00    +0.000 A 
ATOM     31  C   UNL     1       5.392   3.811  14.918  0.00  0.00    +0.000 A 
ATOM     32  C   UNL     1       5.251   3.735  16.309  0.00  0.00    +0.000 A 
ATOM     33  C   UNL     1       5.978   4.578  17.183  0.00  0.00    +0.000 A 
ENDBRANCH  23  24
ENDBRANCH  20  23
ENDBRANCH  18  19
ENDBRANCH   5  18
TORSDOF 7
ENDMDL
MODEL 2
REMARK VINA RESULT:      -8.0      1.676      2.292
REMARK  Name = 
REMARK  7 active torsions:
REMARK  status: ('A' for Active; 'I' for Inactive)
REMARK    1  A    between atoms: C_2  and  C_3
REMARK    2  A    between atoms: C_6  and  C_7
REMARK    3  A    between atoms: C_7  and  N_8
REMARK    4  A    between atoms: C_12  and  C_14
REMARK    5  A    between atoms: C_14  and  N_15
REMARK    6  A    between atoms: C_16  and  C_18
REMARK    7  A    between atoms: C_18  and  C_19
REMARK                            x       y       z     vdW  Elec       q    Type
REMARK                         _______ _______ _______ _____ _____    ______ ____
ROOT
ATOM      1  N   UNL     1      -0.454  11.496  22.025  0.00  0.00    +0.000 NA
ATOM      2  C   UNL     1      -0.277  10.335  22.899  0.00  0.00    +0.000 C 
ATOM      3  C   UNL     1      -0.631   9.135  22.021  0.00  0.00    +0.000 C 
ATOM      4  N   UNL     1       0.319   9.036  20.912  0.00  0.00    +0.000 N 
ATOM      5  C   UNL     1       1.021   7.852  20.760  0.00  0.00    +0.000 C 
ATOM      6  O   UNL     1       0.874   6.892  21.519  0.00  0.00    +0.000 OA
ATOM      7  C   UNL     1       0.458  10.281  20.118  0.00  0.00    +0.000 C 
ATOM      8  C   UNL     1       0.611  11.548  21.017  0.00  0.00    +0.000 C 
ENDROOT
BRANCH   1   9
ATOM      9  C   UNL     1      -0.954  12.693  22.668  0.00  0.00    +0.000 C 
BRANCH   9  13
ATOM     10  C   UNL     1      -5.307  12.839  22.445  0.00  0.00    +0.000 A 
ATOM     11  C   UNL     1      -4.524  12.835  21.282  0.00  0.00    +0.000 A 
ATOM     12  C   UNL     1      -3.130  12.800  21.379  0.00  0.00    +0.000 A 
ATOM     13  C   UNL     1      -2.485  12.767  22.630  0.00  0.00    +0.000 A 
ATOM     14  C   UNL     1      -3.284  12.813  23.786  0.00  0.00    +0.000 A 
ATOM     15  C   UNL     1      -4.679  12.840  23.695  0.00  0.00    +0.000 A 
BRANCH  10  17
ATOM     16  N   UNL     1      -7.894  12.852  22.277  0.00  0.00    +0.000 NA
ATOM     17  C   UNL     1      -6.723  12.835  22.355  0.00  0.00    +0.000 C 
ENDBRANCH  10  17
ENDBRANCH   9  13
ENDBRANCH   1   9
BRANCH   5  18
ATOM     18  C   UNL     1       2.017   7.756  19.610  0.00  0.00    +0.000 C 
BRANCH  18  19
ATOM     19  N   UNL     1       2.904   6.623  19.763  0.00  0.00    +0.000 N 
ATOM     20  C   UNL     1       2.891   5.626  18.810  0.00  0.00    +0.000 C 
ATOM     21  O   UNL     1       2.110   5.646  17.864  0.00  0.00    +0.000 OA
ATOM     22  H   UNL     1       3.512   6.589  20.569  0.00  0.00    +0.000 HD
BRANCH  20  23
ATOM     23  C   UNL     1       3.884   4.488  19.037  0.00  0.00    +0.000 C 
BRANCH  23  24
ATOM     24  C   UNL     1       5.280   4.798  18.522  0.00  0.00    +0.000 A 
ATOM     25  C   UNL     1       6.211   5.291  19.457  0.00  0.00    +0.000 A 
ATOM     26  C   UNL     1       7.463   5.743  19.061  0.00  0.00    +0.000 A 
ATOM     27  C   UNL     1       7.819   5.696  17.718  0.00  0.00    +0.000 A 
ATOM     28  C   UNL     1       6.949   5.150  16.766  0.00  0.00    +0.000 A 
ATOM     29  C   UNL     1       7.362   5.075  15.425  0.00  0.00    +0.000 A 
ATOM     30  C   UNL     1       6.541   4.514  14.452  0.00  0.00    +0.000 A 
ATOM     31  C   UNL     1       5.292   4.023  14.809  0.00  0.00    +0.000 A 
ATOM     32  C   UNL     1       4.859   4.108  16.138  0.00  0.00    +0.000 A 
ATOM     33  C   UNL     1       5.664   4.677  17.153  0.00  0.00    +0.000 A 
ENDBRANCH  23  24
ENDBRANCH  20  23
ENDBRANCH  18  19
ENDBRANCH   5  18
TORSDOF 7
ENDMDL
MODEL 3
REMARK VINA RESULT:      -8.0      5.773      8.562
REMARK  Name = 
REMARK  7 active torsions:
REMARK  status: ('A' for Active; 'I' for Inactive)
REMARK    1  A    between atoms: C_2  and  C_3
REMARK    2  A    between atoms: C_6  and  C_7
REMARK    3  A    between atoms: C_7  and  N_8
REMARK    4  A    between atoms: C_12  and  C_14
REMARK    5  A    between atoms: C_14  and  N_15
REMARK    6  A    between atoms: C_16  and  C_18
REMARK    7  A    between atoms: C_18  and  C_19
REMARK                            x       y       z     vdW  Elec       q    Type
REMARK                         _______ _______ _______ _____ _____    ______ ____
ROOT
ATOM      1  N   UNL     1       1.326  12.228  19.359  0.00  0.00    +0.000 NA
ATOM      2  C   UNL     1       1.127  13.203  20.432  0.00  0.00    +0.000 C 
ATOM      3  C   UNL     1       2.539  13.627  20.834  0.00  0.00    +0.000 C 
ATOM      4  N   UNL     1       3.195  14.295  19.709  0.00  0.00    +0.000 N 
ATOM      5  C   UNL     1       3.679  15.578  19.906  0.00  0.00    +0.000 C 
ATOM      6  O   UNL     1       3.576  16.167  20.984  0.00  0.00    +0.000 OA
ATOM      7  C   UNL     1       3.189  13.511  18.450  0.00  0.00    +0.000 C 
ATOM      8  C   UNL     1       1.790  12.895  18.138  0.00  0.00    +0.000 C 
ENDROOT
BRANCH   1   9
ATOM      9  C   UNL     1       0.374  11.138  19.319  0.00  0.00    +0.000 C 
BRANCH   9  13
ATOM     10  C   UNL     1       2.257   7.209  19.511  0.00  0.00    +0.000 A 
ATOM     11  C   UNL     1       1.626   7.764  20.634  0.00  0.00    +0.000 A 
ATOM     12  C   UNL     1       1.040   9.030  20.551  0.00  0.00    +0.000 A 
ATOM     13  C   UNL     1       1.065   9.771  19.354  0.00  0.00    +0.000 A 
ATOM     14  C   UNL     1       1.737   9.218  18.250  0.00  0.00    +0.000 A 
ATOM     15  C   UNL     1       2.319   7.948  18.325  0.00  0.00    +0.000 A 
BRANCH  10  17
ATOM     16  N   UNL     1       3.297   4.837  19.613  0.00  0.00    +0.000 NA
ATOM     17  C   UNL     1       2.819   5.909  19.576  0.00  0.00    +0.000 C 
ENDBRANCH  10  17
ENDBRANCH   9  13
ENDBRANCH   1   9
BRANCH   5  18
ATOM     18  C   UNL     1       4.351  16.275  18.729  0.00  0.00    +0.000 C 
BRANCH  18  19
ATOM     19  N   UNL     1       5.786  16.358  18.903  0.00  0.00    +0.000 N 
ATOM     20  C   UNL     1       6.588  15.395  18.329  0.00  0.00    +0.000 C 
ATOM     21  O   UNL     1       6.119  14.439  17.719  0.00  0.00    +0.000 OA
ATOM     22  H   UNL     1       6.163  17.120  19.446  0.00  0.00    +0.000 HD
BRANCH  20  23
ATOM     23  C   UNL     1       8.090  15.583  18.538  0.00  0.00    +0.000 C 
BRANCH  23  24
ATOM     24  C   UNL     1       8.706  14.533  19.447  0.00  0.00    +0.000 A 
ATOM     25  C   UNL     1       8.295  14.535  20.795  0.00  0.00    +0.000 A 
ATOM     26  C   UNL     1       8.905  13.717  21.737  0.00  0.00    +0.000 A 
ATOM     27  C   UNL     1       9.930  12.863  21.347  0.00  0.00    +0.000 A 
ATOM     28  C   UNL     1      10.321  12.780  20.005  0.00  0.00    +0.000 A 
ATOM     29  C   UNL     1      11.328  11.870  19.640  0.00  0.00    +0.000 A 
ATOM     30  C   UNL     1      11.727  11.735  18.314  0.00  0.00    +0.000 A 
ATOM     31  C   UNL     1      11.124  12.513  17.335  0.00  0.00    +0.000 A 
ATOM     32  C   UNL     1      10.132  13.438  17.685  0.00  0.00    +0.000 A 
ATOM     33  C   UNL     1       9.705  13.606  19.024  0.00  0.00    +0.000 A 
ENDBRANCH  23  24
ENDBRANCH  20  23
ENDBRANCH  18  19
ENDBRANCH   5  18
TORSDOF 7
ENDMDL
MODEL 4
REMARK VINA RESULT:      -7.9      2.411      3.645
REMARK  Name = 
REMARK  7 active torsions:
REMARK  status: ('A' for Active; 'I' for Inactive)
REMARK    1  A    between atoms: C_2  and  C_3
REMARK    2  A    between atoms: C_6  and  C_7
REMARK    3  A    between atoms: C_7  and  N_8
REMARK    4  A    between atoms: C_12  and  C_14
REMARK    5  A    between atoms: C_14  and  N_15
REMARK    6  A    between atoms: C_16  and  C_18
REMARK    7  A    between atoms: C_18  and  C_19
REMARK                            x       y       z     vdW  Elec       q    Type
REMARK                         _______ _______ _______ _____ _____    ______ ____
ROOT
ATOM      1  N   UNL     1       0.201  10.986  19.944  0.00  0.00    +0.000 NA
ATOM      2  C   UNL     1       0.250  10.402  18.602  0.00  0.00    +0.000 C 
ATOM      3  C   UNL     1       1.625   9.742  18.519  0.00  0.00    +0.000 C 
ATOM      4  N   UNL     1       1.716   8.662  19.504  0.00  0.00    +0.000 N 
ATOM      5  C   UNL     1       2.029   7.392  19.050  0.00  0.00    +0.000 C 
ATOM      6  O   UNL     1       2.229   7.144  17.859  0.00  0.00    +0.000 OA
ATOM      7  C   UNL     1       1.383   9.074  20.889  0.00  0.00    +0.000 C 
ATOM      8  C   UNL     1       0.082   9.933  20.958  0.00  0.00    +0.000 C 
ENDROOT
BRANCH   1   9
ATOM      9  C   UNL     1      -0.516  12.238  20.056  0.00  0.00    +0.000 C 
BRANCH   9  13
ATOM     10  C   UNL     1       2.221  15.601  19.586  0.00  0.00    +0.000 A 
ATOM     11  C   UNL     1       2.492  14.571  20.499  0.00  0.00    +0.000 A 
ATOM     12  C   UNL     1       1.594  13.509  20.640  0.00  0.00    +0.000 A 
ATOM     13  C   UNL     1       0.411  13.447  19.880  0.00  0.00    +0.000 A 
ATOM     14  C   UNL     1       0.134  14.508  19.000  0.00  0.00    +0.000 A 
ATOM     15  C   UNL     1       1.032  15.569  18.849  0.00  0.00    +0.000 A 
BRANCH  10  17
ATOM     16  N   UNL     1       3.906  17.547  19.280  0.00  0.00    +0.000 NA
ATOM     17  C   UNL     1       3.146  16.662  19.409  0.00  0.00    +0.000 C 
ENDBRANCH  10  17
ENDBRANCH   9  13
ENDBRANCH   1   9
BRANCH   5  18
ATOM     18  C   UNL     1       2.112   6.268  20.076  0.00  0.00    +0.000 C 
BRANCH  18  19
ATOM     19  N   UNL     1       3.384   5.580  20.014  0.00  0.00    +0.000 N 
ATOM     20  C   UNL     1       3.454   4.352  19.389  0.00  0.00    +0.000 C 
ATOM     21  O   UNL     1       2.458   3.802  18.930  0.00  0.00    +0.000 OA
ATOM     22  H   UNL     1       4.191   6.016  20.435  0.00  0.00    +0.000 HD
BRANCH  20  23
ATOM     23  C   UNL     1       4.842   3.717  19.344  0.00  0.00    +0.000 C 
BRANCH  23  24
ATOM     24  C   UNL     1       5.862   4.557  18.593  0.00  0.00    +0.000 A 
ATOM     25  C   UNL     1       6.683   5.404  19.363  0.00  0.00    +0.000 A 
ATOM     26  C   UNL     1       7.541   6.318  18.764  0.00  0.00    +0.000 A 
ATOM     27  C   UNL     1       7.609   6.392  17.378  0.00  0.00    +0.000 A 
ATOM     28  C   UNL     1       6.861   5.521  16.576  0.00  0.00    +0.000 A 
ATOM     29  C   UNL     1       6.992   5.594  15.180  0.00  0.00    +0.000 A 
ATOM     30  C   UNL     1       6.289   4.728  14.347  0.00  0.00    +0.000 A 
ATOM     31  C   UNL     1       5.442   3.780  14.904  0.00  0.00    +0.000 A 
ATOM     32  C   UNL     1       5.286   3.708  16.293  0.00  0.00    +0.000 A 
ATOM     33  C   UNL     1       5.980   4.576  17.171  0.00  0.00    +0.000 A 
ENDBRANCH  23  24
ENDBRANCH  20  23
ENDBRANCH  18  19
ENDBRANCH   5  18
TORSDOF 7
ENDMDL
MODEL 5
REMARK VINA RESULT:      -7.9      5.644      8.508
REMARK  Name = 
REMARK  7 active torsions:
REMARK  status: ('A' for Active; 'I' for Inactive)
REMARK    1  A    between atoms: C_2  and  C_3
REMARK    2  A    between atoms: C_6  and  C_7
REMARK    3  A    between atoms: C_7  and  N_8
REMARK    4  A    between atoms: C_12  and  C_14
REMARK    5  A    between atoms: C_14  and  N_15
REMARK    6  A    between atoms: C_16  and  C_18
REMARK    7  A    between atoms: C_18  and  C_19
REMARK                            x       y       z     vdW  Elec       q    Type
REMARK                         _______ _______ _______ _____ _____    ______ ____
ROOT
ATOM      1  N   UNL     1       1.513  12.479  19.224  0.00  0.00    +0.000 NA
ATOM      2  C   UNL     1       1.401  13.384  20.369  0.00  0.00    +0.000 C 
ATOM      3  C   UNL     1       2.845  13.666  20.780  0.00  0.00    +0.000 C 
ATOM      4  N   UNL     1       3.540  14.364  19.697  0.00  0.00    +0.000 N 
ATOM      5  C   UNL     1       4.125  15.587  19.981  0.00  0.00    +0.000 C 
ATOM      6  O   UNL     1       4.078  16.100  21.101  0.00  0.00    +0.000 OA
ATOM      7  C   UNL     1       3.462  13.679  18.384  0.00  0.00    +0.000 C 
ATOM      8  C   UNL     1       2.015  13.199  18.048  0.00  0.00    +0.000 C 
ENDROOT
BRANCH   1   9
ATOM      9  C   UNL     1       0.478  11.473  19.117  0.00  0.00    +0.000 C 
BRANCH   9  13
ATOM     10  C   UNL     1       2.163   7.465  19.463  0.00  0.00    +0.000 A 
ATOM     11  C   UNL     1       2.193   8.159  18.245  0.00  0.00    +0.000 A 
ATOM     12  C   UNL     1       1.635   9.438  18.155  0.00  0.00    +0.000 A 
ATOM     13  C   UNL     1       1.039  10.055  19.272  0.00  0.00    +0.000 A 
ATOM     14  C   UNL     1       0.981   9.329  20.475  0.00  0.00    +0.000 A 
ATOM     15  C   UNL     1       1.543   8.052  20.572  0.00  0.00    +0.000 A 
BRANCH  10  17
ATOM     16  N   UNL     1       3.263   5.128  19.680  0.00  0.00    +0.000 NA
ATOM     17  C   UNL     1       2.761   6.183  19.572  0.00  0.00    +0.000 C 
ENDBRANCH  10  17
ENDBRANCH   9  13
ENDBRANCH   1   9
BRANCH   5  18
ATOM     18  C   UNL     1       4.838  16.316  18.849  0.00  0.00    +0.000 C 
BRANCH  18  19
ATOM     19  N   UNL     1       6.276  16.291  19.017  0.00  0.00    +0.000 N 
ATOM     20  C   UNL     1       7.028  15.439  18.236  0.00  0.00    +0.000 C 
ATOM     21  O   UNL     1       6.509  14.662  17.440  0.00  0.00    +0.000 OA
ATOM     22  H   UNL     1       6.693  16.898  19.707  0.00  0.00    +0.000 HD
BRANCH  20  23
ATOM     23  C   UNL     1       8.538  15.505  18.460  0.00  0.00    +0.000 C 
BRANCH  23  24
ATOM     24  C   UNL     1       9.175  14.141  18.660  0.00  0.00    +0.000 A 
ATOM     25  C   UNL     1       9.937  13.630  17.590  0.00  0.00    +0.000 A 
ATOM     26  C   UNL     1      10.436  12.334  17.613  0.00  0.00    +0.000 A 
ATOM     27  C   UNL     1      10.199  11.524  18.718  0.00  0.00    +0.000 A 
ATOM     28  C   UNL     1       9.506  12.016  19.831  0.00  0.00    +0.000 A 
ATOM     29  C   UNL     1       9.327  11.184  20.948  0.00  0.00    +0.000 A 
ATOM     30  C   UNL     1       8.669  11.642  22.086  0.00  0.00    +0.000 A 
ATOM     31  C   UNL     1       8.179  12.941  22.117  0.00  0.00    +0.000 A 
ATOM     32  C   UNL     1       8.332  13.776  21.004  0.00  0.00    +0.000 A 
ATOM     33  C   UNL     1       8.991  13.342  19.828  0.00  0.00    +0.000 A 
ENDBRANCH  23  24
ENDBRANCH  20  23
ENDBRANCH  18  19
ENDBRANCH   5  18
TORSDOF 7
ENDMDL
MODEL 6
REMARK VINA RESULT:      -7.9      4.411      6.930
REMARK  Name = 
REMARK  7 active torsions:
REMARK  status: ('A' for Active; 'I' for Inactive)
REMARK    1  A    between atoms: C_2  and  C_3
REMARK    2  A    between atoms: C_6  and  C_7
REMARK    3  A    between atoms: C_7  and  N_8
REMARK    4  A    between atoms: C_12  and  C_14
REMARK    5  A    between atoms: C_14  and  N_15
REMARK    6  A    between atoms: C_16  and  C_18
REMARK    7  A    between atoms: C_18  and  C_19
REMARK                            x       y       z     vdW  Elec       q    Type
REMARK                         _______ _______ _______ _____ _____    ______ ____
ROOT
ATOM      1  N   UNL     1       2.709  14.469  19.456  0.00  0.00    +0.000 NA
ATOM      2  C   UNL     1       2.212  13.956  20.734  0.00  0.00    +0.000 C 
ATOM      3  C   UNL     1       0.801  13.455  20.426  0.00  0.00    +0.000 C 
ATOM      4  N   UNL     1       0.866  12.349  19.469  0.00  0.00    +0.000 N 
ATOM      5  C   UNL     1       0.289  11.143  19.829  0.00  0.00    +0.000 C 
ATOM      6  O   UNL     1      -0.269  10.973  20.915  0.00  0.00    +0.000 OA
ATOM      7  C   UNL     1       1.627  12.659  18.234  0.00  0.00    +0.000 C 
ATOM      8  C   UNL     1       2.986  13.365  18.532  0.00  0.00    +0.000 C 
ENDROOT
BRANCH   1   9
ATOM      9  C   UNL     1       3.571  15.629  19.541  0.00  0.00    +0.000 C 
BRANCH   9  13
ATOM     10  C   UNL     1       7.732  14.579  18.764  0.00  0.00    +0.000 A 
ATOM     11  C   UNL     1       7.271  14.785  20.073  0.00  0.00    +0.000 A 
ATOM     12  C   UNL     1       5.936  15.133  20.296  0.00  0.00    +0.000 A 
ATOM     13  C   UNL     1       5.031  15.281  19.228  0.00  0.00    +0.000 A 
ATOM     14  C   UNL     1       5.520  15.112  17.920  0.00  0.00    +0.000 A 
ATOM     15  C   UNL     1       6.853  14.757  17.691  0.00  0.00    +0.000 A 
BRANCH  10  17
ATOM     16  N   UNL     1      10.194  13.874  18.358  0.00  0.00    +0.000 NA
ATOM     17  C   UNL     1       9.076  14.189  18.532  0.00  0.00    +0.000 C 
ENDBRANCH  10  17
ENDBRANCH   9  13
ENDBRANCH   1   9
BRANCH   5  18
ATOM     18  C   UNL     1       0.368   9.990  18.835  0.00  0.00    +0.000 C 
BRANCH  18  19
ATOM     19  N   UNL     1       1.175   8.900  19.341  0.00  0.00    +0.000 N 
ATOM     20  C   UNL     1       2.131   8.337  18.524  0.00  0.00    +0.000 C 
ATOM     21  O   UNL     1       2.283   8.697  17.361  0.00  0.00    +0.000 OA
ATOM     22  H   UNL     1       1.013   8.576  20.284  0.00  0.00    +0.000 HD
BRANCH  20  23
ATOM     23  C   UNL     1       2.955   7.216  19.155  0.00  0.00    +0.000 C 
BRANCH  23  24
ATOM     24  C   UNL     1       3.026   5.965  18.295  0.00  0.00    +0.000 A 
ATOM     25  C   UNL     1       1.906   5.111  18.318  0.00  0.00    +0.000 A 
ATOM     26  C   UNL     1       1.928   3.873  17.687  0.00  0.00    +0.000 A 
ATOM     27  C   UNL     1       3.068   3.471  17.001  0.00  0.00    +0.000 A 
ATOM     28  C   UNL     1       4.177   4.319  16.896  0.00  0.00    +0.000 A 
ATOM     29  C   UNL     1       5.293   3.897  16.154  0.00  0.00    +0.000 A 
ATOM     30  C   UNL     1       6.405   4.720  16.000  0.00  0.00    +0.000 A 
ATOM     31  C   UNL     1       6.414   5.976  16.590  0.00  0.00    +0.000 A 
ATOM     32  C   UNL     1       5.317   6.404  17.348  0.00  0.00    +0.000 A 
ATOM     33  C   UNL     1       4.172   5.591  17.531  0.00  0.00    +0.000 A 
ENDBRANCH  23  24
ENDBRANCH  20  23
ENDBRANCH  18  19
ENDBRANCH   5  18
TORSDOF 7
ENDMDL
MODEL 7
REMARK VINA RESULT:      -7.9      1.871      2.336
REMARK  Name = 
REMARK  7 active torsions:
REMARK  status: ('A' for Active; 'I' for Inactive)
REMARK    1  A    between atoms: C_2  and  C_3
REMARK    2  A    between atoms: C_6  and  C_7
REMARK    3  A    between atoms: C_7  and  N_8
REMARK    4  A    between atoms: C_12  and  C_14
REMARK    5  A    between atoms: C_14  and  N_15
REMARK    6  A    between atoms: C_16  and  C_18
REMARK    7  A    between atoms: C_18  and  C_19
REMARK                            x       y       z     vdW  Elec       q    Type
REMARK                         _______ _______ _______ _____ _____    ______ ____
ROOT
ATOM      1  N   UNL     1       0.229  11.208  19.600  0.00  0.00    +0.000 NA
ATOM      2  C   UNL     1       0.359  10.574  18.287  0.00  0.00    +0.000 C 
ATOM      3  C   UNL     1       1.728   9.895  18.322  0.00  0.00    +0.000 C 
ATOM      4  N   UNL     1       1.737   8.852  19.349  0.00  0.00    +0.000 N 
ATOM      5  C   UNL     1       2.061   7.562  18.964  0.00  0.00    +0.000 C 
ATOM      6  O   UNL     1       2.337   7.267  17.799  0.00  0.00    +0.000 OA
ATOM      7  C   UNL     1       1.318   9.320  20.692  0.00  0.00    +0.000 C 
ATOM      8  C   UNL     1       0.027  10.195  20.642  0.00  0.00    +0.000 C 
ENDROOT
BRANCH   1   9
ATOM      9  C   UNL     1      -0.476  12.472  19.618  0.00  0.00    +0.000 C 
BRANCH   9  13
ATOM     10  C   UNL     1      -4.719  11.865  18.812  0.00  0.00    +0.000 A 
ATOM     11  C   UNL     1      -3.744  11.487  17.877  0.00  0.00    +0.000 A 
ATOM     12  C   UNL     1      -2.391  11.703  18.153  0.00  0.00    +0.000 A 
ATOM     13  C   UNL     1      -1.977  12.295  19.360  0.00  0.00    +0.000 A 
ATOM     14  C   UNL     1      -2.968  12.706  20.269  0.00  0.00    +0.000 A 
ATOM     15  C   UNL     1      -4.323  12.486  20.002  0.00  0.00    +0.000 A 
BRANCH  10  17
ATOM     16  N   UNL     1      -7.223  11.386  18.347  0.00  0.00    +0.000 NA
ATOM     17  C   UNL     1      -6.091  11.614  18.557  0.00  0.00    +0.000 C 
ENDBRANCH  10  17
ENDBRANCH   9  13
ENDBRANCH   1   9
BRANCH   5  18
ATOM     18  C   UNL     1       2.060   6.477  20.034  0.00  0.00    +0.000 C 
BRANCH  18  19
ATOM     19  N   UNL     1       3.297   5.725  20.037  0.00  0.00    +0.000 N 
ATOM     20  C   UNL     1       3.337   4.496  19.413  0.00  0.00    +0.000 C 
ATOM     21  O   UNL     1       2.340   3.997  18.901  0.00  0.00    +0.000 OA
ATOM     22  H   UNL     1       4.102   6.120  20.501  0.00  0.00    +0.000 HD
BRANCH  20  23
ATOM     23  C   UNL     1       4.692   3.792  19.438  0.00  0.00    +0.000 C 
BRANCH  23  24
ATOM     24  C   UNL     1       5.776   4.549  18.688  0.00  0.00    +0.000 A 
ATOM     25  C   UNL     1       6.673   5.311  19.462  0.00  0.00    +0.000 A 
ATOM     26  C   UNL     1       7.603   6.155  18.867  0.00  0.00    +0.000 A 
ATOM     27  C   UNL     1       7.668   6.240  17.482  0.00  0.00    +0.000 A 
ATOM     28  C   UNL     1       6.841   5.448  16.676  0.00  0.00    +0.000 A 
ATOM     29  C   UNL     1       6.969   5.526  15.279  0.00  0.00    +0.000 A 
ATOM     30  C   UNL     1       6.187   4.736  14.442  0.00  0.00    +0.000 A 
ATOM     31  C   UNL     1       5.264   3.858  14.994  0.00  0.00    +0.000 A 
ATOM     32  C   UNL     1       5.112   3.783  16.384  0.00  0.00    +0.000 A 
ATOM     33  C   UNL     1       5.886   4.575  17.266  0.00  0.00    +0.000 A 
ENDBRANCH  23  24
ENDBRANCH  20  23
ENDBRANCH  18  19
ENDBRANCH   5  18
TORSDOF 7
ENDMDL
MODEL 8
REMARK VINA RESULT:      -7.9      3.513      5.342
REMARK  Name = 
REMARK  7 active torsions:
REMARK  status: ('A' for Active; 'I' for Inactive)
REMARK    1  A    between atoms: C_2  and  C_3
REMARK    2  A    between atoms: C_6  and  C_7
REMARK    3  A    between atoms: C_7  and  N_8
REMARK    4  A    between atoms: C_12  and  C_14
REMARK    5  A    between atoms: C_14  and  N_15
REMARK    6  A    between atoms: C_16  and  C_18
REMARK    7  A    between atoms: C_18  and  C_19
REMARK                            x       y       z     vdW  Elec       q    Type
REMARK                         _______ _______ _______ _____ _____    ______ ____
ROOT
ATOM      1  N   UNL     1      -0.138  12.827  19.634  0.00  0.00    +0.000 NA
ATOM      2  C   UNL     1       0.390  12.947  20.994  0.00  0.00    +0.000 C 
ATOM      3  C   UNL     1      -0.385  11.905  21.801  0.00  0.00    +0.000 C 
ATOM      4  N   UNL     1      -0.082  10.565  21.297  0.00  0.00    +0.000 N 
ATOM      5  C   UNL     1       0.417   9.631  22.189  0.00  0.00    +0.000 C 
ATOM      6  O   UNL     1       0.613   9.890  23.379  0.00  0.00    +0.000 OA
ATOM      7  C   UNL     1      -0.292  10.403  19.837  0.00  0.00    +0.000 C 
ATOM      8  C   UNL     1       0.319  11.579  19.013  0.00  0.00    +0.000 C 
ENDROOT
BRANCH   1   9
ATOM      9  C   UNL     1      -0.226  14.064  18.885  0.00  0.00    +0.000 C 
BRANCH   9  13
ATOM     10  C   UNL     1       3.564  16.220  18.847  0.00  0.00    +0.000 A 
ATOM     11  C   UNL     1       2.410  16.797  19.398  0.00  0.00    +0.000 A 
ATOM     12  C   UNL     1       1.204  16.090  19.388  0.00  0.00    +0.000 A 
ATOM     13  C   UNL     1       1.117  14.800  18.833  0.00  0.00    +0.000 A 
ATOM     14  C   UNL     1       2.273  14.253  18.248  0.00  0.00    +0.000 A 
ATOM     15  C   UNL     1       3.485  14.952  18.262  0.00  0.00    +0.000 A 
BRANCH  10  17
ATOM     16  N   UNL     1       5.833  17.471  18.918  0.00  0.00    +0.000 NA
ATOM     17  C   UNL     1       4.800  16.914  18.888  0.00  0.00    +0.000 C 
ENDBRANCH  10  17
ENDBRANCH   9  13
ENDBRANCH   1   9
BRANCH   5  18
ATOM     18  C   UNL     1       0.740   8.240  21.659  0.00  0.00    +0.000 C 
BRANCH  18  19
ATOM     19  N   UNL     1       1.412   8.296  20.378  0.00  0.00    +0.000 N 
ATOM     20  C   UNL     1       2.020   7.160  19.888  0.00  0.00    +0.000 C 
ATOM     21  O   UNL     1       2.054   6.115  20.531  0.00  0.00    +0.000 OA
ATOM     22  H   UNL     1       1.421   9.172  19.876  0.00  0.00    +0.000 HD
BRANCH  20  23
ATOM     23  C   UNL     1       2.674   7.307  18.516  0.00  0.00    +0.000 C 
BRANCH  23  24
ATOM     24  C   UNL     1       3.075   5.978  17.897  0.00  0.00    +0.000 A 
ATOM     25  C   UNL     1       2.086   4.977  17.837  0.00  0.00    +0.000 A 
ATOM     26  C   UNL     1       2.390   3.684  17.429  0.00  0.00    +0.000 A 
ATOM     27  C   UNL     1       3.690   3.369  17.054  0.00  0.00    +0.000 A 
ATOM     28  C   UNL     1       4.688   4.351  17.033  0.00  0.00    +0.000 A 
ATOM     29  C   UNL     1       5.980   4.006  16.603  0.00  0.00    +0.000 A 
ATOM     30  C   UNL     1       6.994   4.957  16.540  0.00  0.00    +0.000 A 
ATOM     31  C   UNL     1       6.727   6.268  16.911  0.00  0.00    +0.000 A 
ATOM     32  C   UNL     1       5.449   6.623  17.361  0.00  0.00    +0.000 A 
ATOM     33  C   UNL     1       4.395   5.681  17.443  0.00  0.00    +0.000 A 
ENDBRANCH  23  24
ENDBRANCH  20  23
ENDBRANCH  18  19
ENDBRANCH   5  18
TORSDOF 7
ENDMDL
MODEL 9
REMARK VINA RESULT:      -7.9      5.648      8.237
REMARK  Name = 
REMARK  7 active torsions:
REMARK  status: ('A' for Active; 'I' for Inactive)
REMARK    1  A    between atoms: C_2  and  C_3
REMARK    2  A    between atoms: C_6  and  C_7
REMARK    3  A    between atoms: C_7  and  N_8
REMARK    4  A    between atoms: C_12  and  C_14
REMARK    5  A    between atoms: C_14  and  N_15
REMARK    6  A    between atoms: C_16  and  C_18
REMARK    7  A    between atoms: C_18  and  C_19
REMARK                            x       y       z     vdW  Elec       q    Type
REMARK                         _______ _______ _______ _____ _____    ______ ____
ROOT
ATOM      1  N   UNL     1       1.500  12.247  19.152  0.00  0.00    +0.000 NA
ATOM      2  C   UNL     1       2.501  12.310  18.086  0.00  0.00    +0.000 C 
ATOM      3  C   UNL     1       2.785  13.801  17.912  0.00  0.00    +0.000 C 
ATOM      4  N   UNL     1       3.372  14.340  19.139  0.00  0.00    +0.000 N 
ATOM      5  C   UNL     1       4.601  14.972  19.050  0.00  0.00    +0.000 C 
ATOM      6  O   UNL     1       5.208  15.093  17.984  0.00  0.00    +0.000 OA
ATOM      7  C   UNL     1       2.579  14.067  20.363  0.00  0.00    +0.000 C 
ATOM      8  C   UNL     1       2.104  12.583  20.446  0.00  0.00    +0.000 C 
ENDROOT
BRANCH   1   9
ATOM      9  C   UNL     1       0.511  11.197  19.021  0.00  0.00    +0.000 C 
BRANCH   9  13
ATOM     10  C   UNL     1       2.208   7.201  19.436  0.00  0.00    +0.000 A 
ATOM     11  C   UNL     1       1.609   7.848  20.526  0.00  0.00    +0.000 A 
ATOM     12  C   UNL     1       1.083   9.134  20.372  0.00  0.00    +0.000 A 
ATOM     13  C   UNL     1       1.138   9.803  19.134  0.00  0.00    +0.000 A 
ATOM     14  C   UNL     1       1.778   9.156  18.062  0.00  0.00    +0.000 A 
ATOM     15  C   UNL     1       2.299   7.866  18.209  0.00  0.00    +0.000 A 
BRANCH  10  17
ATOM     16  N   UNL     1       3.105   4.782  19.690  0.00  0.00    +0.000 NA
ATOM     17  C   UNL     1       2.709   5.881  19.574  0.00  0.00    +0.000 C 
ENDBRANCH  10  17
ENDBRANCH   9  13
ENDBRANCH   1   9
BRANCH   5  18
ATOM     18  C   UNL     1       5.214  15.523  20.331  0.00  0.00    +0.000 C 
BRANCH  18  19
ATOM     19  N   UNL     1       6.653  15.367  20.348  0.00  0.00    +0.000 N 
ATOM     20  C   UNL     1       7.236  14.619  21.349  0.00  0.00    +0.000 C 
ATOM     21  O   UNL     1       6.575  14.126  22.258  0.00  0.00    +0.000 OA
ATOM     22  H   UNL     1       7.196  15.814  19.624  0.00  0.00    +0.000 HD
BRANCH  20  23
ATOM     23  C   UNL     1       8.754  14.481  21.265  0.00  0.00    +0.000 C 
BRANCH  23  24
ATOM     24  C   UNL     1       9.204  13.269  20.467  0.00  0.00    +0.000 A 
ATOM     25  C   UNL     1       8.958  12.003  21.035  0.00  0.00    +0.000 A 
ATOM     26  C   UNL     1       9.460  10.843  20.460  0.00  0.00    +0.000 A 
ATOM     27  C   UNL     1      10.206  10.922  19.290  0.00  0.00    +0.000 A 
ATOM     28  C   UNL     1      10.416  12.153  18.656  0.00  0.00    +0.000 A 
ATOM     29  C   UNL     1      11.134  12.187  17.450  0.00  0.00    +0.000 A 
ATOM     30  C   UNL     1      11.341  13.385  16.771  0.00  0.00    +0.000 A 
ATOM     31  C   UNL     1      10.832  14.565  17.296  0.00  0.00    +0.000 A 
ATOM     32  C   UNL     1      10.130  14.550  18.507  0.00  0.00    +0.000 A 
ATOM     33  C   UNL     1       9.906  13.351  19.227  0.00  0.00    +0.000 A 
ENDBRANCH  23  24
ENDBRANCH  20  23
ENDBRANCH  18  19
ENDBRANCH   5  18
TORSDOF 7
ENDMDL
