MODEL 1
REMARK VINA RESULT:      -6.8      0.000      0.000
REMARK  Name = 
REMARK  10 active torsions:
REMARK  status: ('A' for Active; 'I' for Inactive)
REMARK    1  A    between atoms: C_1  and  C_2
REMARK    2  A    between atoms: C_2  and  O_3
REMARK    3  A    between atoms: O_3  and  C_4
REMARK    4  A    between atoms: C_7  and  N_8
REMARK    5  A    between atoms: N_8  and  S_9
REMARK    6  A    between atoms: S_9  and  C_12
REMARK    7  A    between atoms: C_13  and  C_14
REMARK    8  A    between atoms: C_23  and  C_24
REMARK    9  A    between atoms: N_25  and  C_26
REMARK   10  A    between atoms: C_27  and  C_28
REMARK                            x       y       z     vdW  Elec       q    Type
REMARK                         _______ _______ _______ _____ _____    ______ ____
ROOT
ATOM      1  C   UNL     1       4.143   5.717  17.381  0.00  0.00    +0.000 A 
ATOM      2  C   UNL     1       4.050   4.366  16.854  0.00  0.00    +0.000 A 
ATOM      3  C   UNL     1       5.231   4.170  16.135  0.00  0.00    +0.000 A 
ATOM      4  C   UNL     1       5.790   2.952  15.477  0.00  0.00    +0.000 C 
ATOM      5  N   UNL     1       5.958   5.351  16.152  0.00  0.00    +0.000 N 
ATOM      6  C   UNL     1       7.256   5.551  15.533  0.00  0.00    +0.000 C 
ATOM      7  C   UNL     1       5.325   6.294  16.931  0.00  0.00    +0.000 A 
ATOM      8  C   UNL     1       5.911   7.636  17.215  0.00  0.00    +0.000 C 
ENDROOT
BRANCH   2   9
ATOM      9  C   UNL     1       3.028   3.362  17.232  0.00  0.00    +0.000 C 
ATOM     10  O   UNL     1       2.209   3.046  16.366  0.00  0.00    +0.000 OA
ATOM     11  N   UNL     1       2.940   2.834  18.547  0.00  0.00    +0.000 N 
ATOM     12  C   UNL     1       1.834   1.909  18.823  0.00  0.00    +0.000 C 
ATOM     13  C   UNL     1       0.765   2.528  19.725  0.00  0.00    +0.000 C 
ATOM     14  C   UNL     1       1.148   2.591  21.200  0.00  0.00    +0.000 C 
ATOM     15  C   UNL     1       2.416   3.394  21.481  0.00  0.00    +0.000 C 
ATOM     16  C   UNL     1       3.687   2.693  20.999  0.00  0.00    +0.000 C 
ATOM     17  C   UNL     1       4.050   2.792  19.502  0.00  0.00    +0.000 C 
ENDBRANCH   2   9
BRANCH   1  18
ATOM     18  S   UNL     1       2.981   6.470  18.461  0.00  0.00    +0.000 S 
ATOM     19  O   UNL     1       3.597   6.330  19.761  0.00  0.00    +0.000 OA
ATOM     20  O   UNL     1       1.702   5.845  18.176  0.00  0.00    +0.000 OA
BRANCH  18  21
ATOM     21  N   UNL     1       2.874   8.125  18.102  0.00  0.00    +0.000 N 
ATOM     22  H   UNL     1       2.906   8.212  17.077  0.00  0.00    +0.000 HD
BRANCH  21  26
ATOM     23  C   UNL     1      -0.240  10.335  19.957  0.00  0.00    +0.000 A 
ATOM     24  C   UNL     1      -0.056  10.383  18.572  0.00  0.00    +0.000 A 
ATOM     25  C   UNL     1       0.969   9.658  17.964  0.00  0.00    +0.000 A 
ATOM     26  C   UNL     1       1.813   8.852  18.729  0.00  0.00    +0.000 A 
ATOM     27  C   UNL     1       1.643   8.802  20.110  0.00  0.00    +0.000 A 
ATOM     28  C   UNL     1       0.622   9.542  20.721  0.00  0.00    +0.000 A 
BRANCH  23  29
ATOM     29  O   UNL     1      -1.206  11.017  20.656  0.00  0.00    +0.000 OA
BRANCH  29  31
ATOM     30  C   UNL     1      -1.572  11.385  23.021  0.00  0.00    +0.000 C 
ATOM     31  C   UNL     1      -0.745  11.740  21.800  0.00  0.00    +0.000 C 
ENDBRANCH  29  31
ENDBRANCH  23  29
ENDBRANCH  21  26
ENDBRANCH  18  21
ENDBRANCH   1  18
TORSDOF 6
ENDMDL
MODEL 2
REMARK VINA RESULT:      -6.8      0.893      1.469
REMARK  Name = 
REMARK  10 active torsions:
REMARK  status: ('A' for Active; 'I' for Inactive)
REMARK    1  A    between atoms: C_1  and  C_2
REMARK    2  A    between atoms: C_2  and  O_3
REMARK    3  A    between atoms: O_3  and  C_4
REMARK    4  A    between atoms: C_7  and  N_8
REMARK    5  A    between atoms: N_8  and  S_9
REMARK    6  A    between atoms: S_9  and  C_12
REMARK    7  A    between atoms: C_13  and  C_14
REMARK    8  A    between atoms: C_23  and  C_24
REMARK    9  A    between atoms: N_25  and  C_26
REMARK   10  A    between atoms: C_27  and  C_28
REMARK                            x       y       z     vdW  Elec       q    Type
REMARK                         _______ _______ _______ _____ _____    ______ ____
ROOT
ATOM      1  C   UNL     1       4.146   5.737  17.430  0.00  0.00    +0.000 A 
ATOM      2  C   UNL     1       4.015   4.395  16.887  0.00  0.00    +0.000 A 
ATOM      3  C   UNL     1       5.186   4.180  16.157  0.00  0.00    +0.000 A 
ATOM      4  C   UNL     1       5.710   2.957  15.480  0.00  0.00    +0.000 C 
ATOM      5  N   UNL     1       5.942   5.342  16.184  0.00  0.00    +0.000 N 
ATOM      6  C   UNL     1       7.240   5.519  15.557  0.00  0.00    +0.000 C 
ATOM      7  C   UNL     1       5.338   6.291  16.978  0.00  0.00    +0.000 A 
ATOM      8  C   UNL     1       5.959   7.614  17.276  0.00  0.00    +0.000 C 
ENDROOT
BRANCH   2   9
ATOM      9  C   UNL     1       2.971   3.413  17.260  0.00  0.00    +0.000 C 
ATOM     10  O   UNL     1       2.128   3.141  16.402  0.00  0.00    +0.000 OA
ATOM     11  N   UNL     1       2.892   2.856  18.564  0.00  0.00    +0.000 N 
ATOM     12  C   UNL     1       1.763   1.957  18.839  0.00  0.00    +0.000 C 
ATOM     13  C   UNL     1       0.729   2.584  19.774  0.00  0.00    +0.000 C 
ATOM     14  C   UNL     1       1.140   2.601  21.243  0.00  0.00    +0.000 C 
ATOM     15  C   UNL     1       2.435   3.360  21.519  0.00  0.00    +0.000 C 
ATOM     16  C   UNL     1       3.677   2.636  20.998  0.00  0.00    +0.000 C 
ATOM     17  C   UNL     1       4.016   2.760  19.498  0.00  0.00    +0.000 C 
ENDBRANCH   2   9
BRANCH   1  18
ATOM     18  S   UNL     1       3.010   6.505  18.529  0.00  0.00    +0.000 S 
ATOM     19  O   UNL     1       3.591   6.261  19.830  0.00  0.00    +0.000 OA
ATOM     20  O   UNL     1       1.702   5.975  18.191  0.00  0.00    +0.000 OA
BRANCH  18  21
ATOM     21  N   UNL     1       3.011   8.180  18.255  0.00  0.00    +0.000 N 
ATOM     22  H   UNL     1       3.302   8.322  17.278  0.00  0.00    +0.000 HD
BRANCH  21  26
ATOM     23  C   UNL     1      -0.519  10.244  19.395  0.00  0.00    +0.000 A 
ATOM     24  C   UNL     1       0.282   9.615  20.352  0.00  0.00    +0.000 A 
ATOM     25  C   UNL     1       1.441   8.935  19.975  0.00  0.00    +0.000 A 
ATOM     26  C   UNL     1       1.832   8.894  18.636  0.00  0.00    +0.000 A 
ATOM     27  C   UNL     1       1.039   9.512  17.673  0.00  0.00    +0.000 A 
ATOM     28  C   UNL     1      -0.133  10.182  18.051  0.00  0.00    +0.000 A 
BRANCH  23  29
ATOM     29  O   UNL     1      -1.682  10.927  19.654  0.00  0.00    +0.000 OA
BRANCH  29  31
ATOM     30  C   UNL     1      -3.597  11.363  18.237  0.00  0.00    +0.000 C 
ATOM     31  C   UNL     1      -2.170  11.742  18.585  0.00  0.00    +0.000 C 
ENDBRANCH  29  31
ENDBRANCH  23  29
ENDBRANCH  21  26
ENDBRANCH  18  21
ENDBRANCH   1  18
TORSDOF 6
ENDMDL
MODEL 3
REMARK VINA RESULT:      -6.7      3.509      9.315
REMARK  Name = 
REMARK  10 active torsions:
REMARK  status: ('A' for Active; 'I' for Inactive)
REMARK    1  A    between atoms: C_1  and  C_2
REMARK    2  A    between atoms: C_2  and  O_3
REMARK    3  A    between atoms: O_3  and  C_4
REMARK    4  A    between atoms: C_7  and  N_8
REMARK    5  A    between atoms: N_8  and  S_9
REMARK    6  A    between atoms: S_9  and  C_12
REMARK    7  A    between atoms: C_13  and  C_14
REMARK    8  A    between atoms: C_23  and  C_24
REMARK    9  A    between atoms: N_25  and  C_26
REMARK   10  A    between atoms: C_27  and  C_28
REMARK                            x       y       z     vdW  Elec       q    Type
REMARK                         _______ _______ _______ _____ _____    ______ ____
ROOT
ATOM      1  C   UNL     1      -0.183  10.811  18.635  0.00  0.00    +0.000 A 
ATOM      2  C   UNL     1      -0.084  11.952  19.530  0.00  0.00    +0.000 A 
ATOM      3  C   UNL     1      -1.385  12.448  19.637  0.00  0.00    +0.000 A 
ATOM      4  C   UNL     1      -1.961  13.516  20.506  0.00  0.00    +0.000 C 
ATOM      5  N   UNL     1      -2.208  11.711  18.798  0.00  0.00    +0.000 N 
ATOM      6  C   UNL     1      -3.638  11.903  18.637  0.00  0.00    +0.000 C 
ATOM      7  C   UNL     1      -1.498  10.691  18.202  0.00  0.00    +0.000 A 
ATOM      8  C   UNL     1      -2.132   9.672  17.316  0.00  0.00    +0.000 C 
ENDROOT
BRANCH   2   9
ATOM      9  C   UNL     1       1.106  12.318  20.332  0.00  0.00    +0.000 C 
ATOM     10  O   UNL     1       1.337  11.636  21.333  0.00  0.00    +0.000 OA
ATOM     11  N   UNL     1       1.913  13.442  20.013  0.00  0.00    +0.000 N 
ATOM     12  C   UNL     1       3.017  13.754  20.929  0.00  0.00    +0.000 C 
ATOM     13  C   UNL     1       2.760  15.019  21.748  0.00  0.00    +0.000 C 
ATOM     14  C   UNL     1       2.964  16.319  20.977  0.00  0.00    +0.000 C 
ATOM     15  C   UNL     1       2.076  16.458  19.744  0.00  0.00    +0.000 C 
ATOM     16  C   UNL     1       2.476  15.515  18.608  0.00  0.00    +0.000 C 
ATOM     17  C   UNL     1       2.008  14.047  18.682  0.00  0.00    +0.000 C 
ENDBRANCH   2   9
BRANCH   1  18
ATOM     18  S   UNL     1       1.135   9.726  18.222  0.00  0.00    +0.000 S 
ATOM     19  O   UNL     1       2.142  10.615  17.687  0.00  0.00    +0.000 OA
ATOM     20  O   UNL     1       0.554   8.683  17.396  0.00  0.00    +0.000 OA
BRANCH  18  21
ATOM     21  N   UNL     1       1.749   9.024  19.640  0.00  0.00    +0.000 N 
ATOM     22  H   UNL     1       1.130   9.314  20.409  0.00  0.00    +0.000 HD
BRANCH  21  26
ATOM     23  C   UNL     1       2.618   4.870  19.552  0.00  0.00    +0.000 A 
ATOM     24  C   UNL     1       1.840   5.416  20.577  0.00  0.00    +0.000 A 
ATOM     25  C   UNL     1       1.558   6.782  20.605  0.00  0.00    +0.000 A 
ATOM     26  C   UNL     1       2.027   7.621  19.594  0.00  0.00    +0.000 A 
ATOM     27  C   UNL     1       2.808   7.089  18.572  0.00  0.00    +0.000 A 
ATOM     28  C   UNL     1       3.104   5.720  18.553  0.00  0.00    +0.000 A 
BRANCH  23  29
ATOM     29  O   UNL     1       2.966   3.546  19.436  0.00  0.00    +0.000 OA
BRANCH  29  31
ATOM     30  C   UNL     1       0.908   2.453  18.775  0.00  0.00    +0.000 C 
ATOM     31  C   UNL     1       1.969   2.608  19.849  0.00  0.00    +0.000 C 
ENDBRANCH  29  31
ENDBRANCH  23  29
ENDBRANCH  21  26
ENDBRANCH  18  21
ENDBRANCH   1  18
TORSDOF 6
ENDMDL
MODEL 4
REMARK VINA RESULT:      -6.4      4.002     10.185
REMARK  Name = 
REMARK  10 active torsions:
REMARK  status: ('A' for Active; 'I' for Inactive)
REMARK    1  A    between atoms: C_1  and  C_2
REMARK    2  A    between atoms: C_2  and  O_3
REMARK    3  A    between atoms: O_3  and  C_4
REMARK    4  A    between atoms: C_7  and  N_8
REMARK    5  A    between atoms: N_8  and  S_9
REMARK    6  A    between atoms: S_9  and  C_12
REMARK    7  A    between atoms: C_13  and  C_14
REMARK    8  A    between atoms: C_23  and  C_24
REMARK    9  A    between atoms: N_25  and  C_26
REMARK   10  A    between atoms: C_27  and  C_28
REMARK                            x       y       z     vdW  Elec       q    Type
REMARK                         _______ _______ _______ _____ _____    ______ ____
ROOT
ATOM      1  C   UNL     1      -2.808  11.879  19.014  0.00  0.00    +0.000 A 
ATOM      2  C   UNL     1      -2.416  12.749  20.111  0.00  0.00    +0.000 A 
ATOM      3  C   UNL     1      -3.614  13.223  20.649  0.00  0.00    +0.000 A 
ATOM      4  C   UNL     1      -3.887  14.041  21.868  0.00  0.00    +0.000 C 
ATOM      5  N   UNL     1      -4.663  12.741  19.881  0.00  0.00    +0.000 N 
ATOM      6  C   UNL     1      -6.072  12.992  20.125  0.00  0.00    +0.000 C 
ATOM      7  C   UNL     1      -4.193  11.898  18.899  0.00  0.00    +0.000 A 
ATOM      8  C   UNL     1      -5.093  11.152  17.971  0.00  0.00    +0.000 C 
ENDROOT
BRANCH   2   9
ATOM      9  C   UNL     1      -1.047  12.876  20.663  0.00  0.00    +0.000 C 
ATOM     10  O   UNL     1      -0.703  12.038  21.500  0.00  0.00    +0.000 OA
ATOM     11  N   UNL     1      -0.187  13.948  20.306  0.00  0.00    +0.000 N 
ATOM     12  C   UNL     1       1.115  14.013  20.982  0.00  0.00    +0.000 C 
ATOM     13  C   UNL     1       1.199  15.168  21.981  0.00  0.00    +0.000 C 
ATOM     14  C   UNL     1       1.403  16.538  21.342  0.00  0.00    +0.000 C 
ATOM     15  C   UNL     1       0.303  16.940  20.364  0.00  0.00    +0.000 C 
ATOM     16  C   UNL     1       0.333  16.134  19.065  0.00  0.00    +0.000 C 
ATOM     17  C   UNL     1      -0.294  14.724  19.068  0.00  0.00    +0.000 C 
ENDBRANCH   2   9
BRANCH   1  18
ATOM     18  S   UNL     1      -1.711  10.915  18.038  0.00  0.00    +0.000 S 
ATOM     19  O   UNL     1      -1.849  11.489  16.719  0.00  0.00    +0.000 OA
ATOM     20  O   UNL     1      -2.066   9.529  18.284  0.00  0.00    +0.000 OA
BRANCH  18  21
ATOM     21  N   UNL     1      -0.118  11.175  18.564  0.00  0.00    +0.000 N 
ATOM     22  H   UNL     1      -0.167  11.836  19.351  0.00  0.00    +0.000 HD
BRANCH  21  26
ATOM     23  C   UNL     1       2.190   7.683  19.272  0.00  0.00    +0.000 A 
ATOM     24  C   UNL     1       2.122   8.249  17.995  0.00  0.00    +0.000 A 
ATOM     25  C   UNL     1       1.361   9.395  17.764  0.00  0.00    +0.000 A 
ATOM     26  C   UNL     1       0.675  10.010  18.812  0.00  0.00    +0.000 A 
ATOM     27  C   UNL     1       0.731   9.453  20.086  0.00  0.00    +0.000 A 
ATOM     28  C   UNL     1       1.484   8.293  20.314  0.00  0.00    +0.000 A 
BRANCH  23  29
ATOM     29  O   UNL     1       2.896   6.553  19.605  0.00  0.00    +0.000 OA
BRANCH  29  31
ATOM     30  C   UNL     1       1.989   4.695  20.866  0.00  0.00    +0.000 C 
ATOM     31  C   UNL     1       2.177   5.322  19.497  0.00  0.00    +0.000 C 
ENDBRANCH  29  31
ENDBRANCH  23  29
ENDBRANCH  21  26
ENDBRANCH  18  21
ENDBRANCH   1  18
TORSDOF 6
ENDMDL
MODEL 5
REMARK VINA RESULT:      -6.4      3.546      9.602
REMARK  Name = 
REMARK  10 active torsions:
REMARK  status: ('A' for Active; 'I' for Inactive)
REMARK    1  A    between atoms: C_1  and  C_2
REMARK    2  A    between atoms: C_2  and  O_3
REMARK    3  A    between atoms: O_3  and  C_4
REMARK    4  A    between atoms: C_7  and  N_8
REMARK    5  A    between atoms: N_8  and  S_9
REMARK    6  A    between atoms: S_9  and  C_12
REMARK    7  A    between atoms: C_13  and  C_14
REMARK    8  A    between atoms: C_23  and  C_24
REMARK    9  A    between atoms: N_25  and  C_26
REMARK   10  A    between atoms: C_27  and  C_28
REMARK                            x       y       z     vdW  Elec       q    Type
REMARK                         _______ _______ _______ _____ _____    ______ ____
ROOT
ATOM      1  C   UNL     1      -0.412  11.018  18.899  0.00  0.00    +0.000 A 
ATOM      2  C   UNL     1      -0.220  12.130  19.814  0.00  0.00    +0.000 A 
ATOM      3  C   UNL     1      -1.501  12.625  20.065  0.00  0.00    +0.000 A 
ATOM      4  C   UNL     1      -1.982  13.667  21.020  0.00  0.00    +0.000 C 
ATOM      5  N   UNL     1      -2.406  11.917  19.289  0.00  0.00    +0.000 N 
ATOM      6  C   UNL     1      -3.844  12.116  19.277  0.00  0.00    +0.000 C 
ATOM      7  C   UNL     1      -1.765  10.915  18.595  0.00  0.00    +0.000 A 
ATOM      8  C   UNL     1      -2.488   9.926  17.745  0.00  0.00    +0.000 C 
ENDROOT
BRANCH   2   9
ATOM      9  C   UNL     1       1.047  12.469  20.505  0.00  0.00    +0.000 C 
ATOM     10  O   UNL     1       1.394  11.729  21.428  0.00  0.00    +0.000 OA
ATOM     11  N   UNL     1       1.798  13.628  20.175  0.00  0.00    +0.000 N 
ATOM     12  C   UNL     1       2.992  13.902  20.985  0.00  0.00    +0.000 C 
ATOM     13  C   UNL     1       2.808  15.107  21.909  0.00  0.00    +0.000 C 
ATOM     14  C   UNL     1       2.910  16.458  21.208  0.00  0.00    +0.000 C 
ATOM     15  C   UNL     1       1.890  16.657  20.090  0.00  0.00    +0.000 C 
ATOM     16  C   UNL     1       2.176  15.797  18.858  0.00  0.00    +0.000 C 
ATOM     17  C   UNL     1       1.739  14.318  18.885  0.00  0.00    +0.000 C 
ENDBRANCH   2   9
BRANCH   1  18
ATOM     18  S   UNL     1       0.853   9.944  18.323  0.00  0.00    +0.000 S 
ATOM     19  O   UNL     1       1.924  10.850  17.974  0.00  0.00    +0.000 OA
ATOM     20  O   UNL     1       0.237   9.102  17.313  0.00  0.00    +0.000 OA
BRANCH  18  21
ATOM     21  N   UNL     1       1.383   8.966  19.604  0.00  0.00    +0.000 N 
ATOM     22  H   UNL     1       0.561   8.773  20.193  0.00  0.00    +0.000 HD
BRANCH  21  26
ATOM     23  C   UNL     1       3.616   5.520  18.525  0.00  0.00    +0.000 A 
ATOM     24  C   UNL     1       3.617   6.657  17.711  0.00  0.00    +0.000 A 
ATOM     25  C   UNL     1       2.881   7.787  18.066  0.00  0.00    +0.000 A 
ATOM     26  C   UNL     1       2.150   7.810  19.255  0.00  0.00    +0.000 A 
ATOM     27  C   UNL     1       2.136   6.681  20.070  0.00  0.00    +0.000 A 
ATOM     28  C   UNL     1       2.864   5.541  19.705  0.00  0.00    +0.000 A 
BRANCH  23  29
ATOM     29  O   UNL     1       4.292   4.353  18.264  0.00  0.00    +0.000 OA
BRANCH  29  31
ATOM     30  C   UNL     1       5.895   4.109  16.465  0.00  0.00    +0.000 C 
ATOM     31  C   UNL     1       4.438   4.021  16.881  0.00  0.00    +0.000 C 
ENDBRANCH  29  31
ENDBRANCH  23  29
ENDBRANCH  21  26
ENDBRANCH  18  21
ENDBRANCH   1  18
TORSDOF 6
ENDMDL
MODEL 6
REMARK VINA RESULT:      -6.3      4.536     10.547
REMARK  Name = 
REMARK  10 active torsions:
REMARK  status: ('A' for Active; 'I' for Inactive)
REMARK    1  A    between atoms: C_1  and  C_2
REMARK    2  A    between atoms: C_2  and  O_3
REMARK    3  A    between atoms: O_3  and  C_4
REMARK    4  A    between atoms: C_7  and  N_8
REMARK    5  A    between atoms: N_8  and  S_9
REMARK    6  A    between atoms: S_9  and  C_12
REMARK    7  A    between atoms: C_13  and  C_14
REMARK    8  A    between atoms: C_23  and  C_24
REMARK    9  A    between atoms: N_25  and  C_26
REMARK   10  A    between atoms: C_27  and  C_28
REMARK                            x       y       z     vdW  Elec       q    Type
REMARK                         _______ _______ _______ _____ _____    ______ ____
ROOT
ATOM      1  C   UNL     1      -0.149  13.581  20.715  0.00  0.00    +0.000 A 
ATOM      2  C   UNL     1      -0.200  15.032  20.648  0.00  0.00    +0.000 A 
ATOM      3  C   UNL     1      -0.753  15.436  21.865  0.00  0.00    +0.000 A 
ATOM      4  C   UNL     1      -0.939  16.794  22.457  0.00  0.00    +0.000 C 
ATOM      5  N   UNL     1      -1.094  14.305  22.591  0.00  0.00    +0.000 N 
ATOM      6  C   UNL     1      -1.680  14.299  23.919  0.00  0.00    +0.000 C 
ATOM      7  C   UNL     1      -0.707  13.167  21.919  0.00  0.00    +0.000 A 
ATOM      8  C   UNL     1      -0.857  11.797  22.490  0.00  0.00    +0.000 C 
ENDROOT
BRANCH   2   9
ATOM      9  C   UNL     1       0.439  15.870  19.607  0.00  0.00    +0.000 C 
ATOM     10  O   UNL     1      -0.296  16.326  18.728  0.00  0.00    +0.000 OA
ATOM     11  N   UNL     1       1.842  16.087  19.571  0.00  0.00    +0.000 N 
ATOM     12  C   UNL     1       2.368  16.866  18.442  0.00  0.00    +0.000 C 
ATOM     13  C   UNL     1       3.156  16.006  17.453  0.00  0.00    +0.000 C 
ATOM     14  C   UNL     1       4.560  15.637  17.921  0.00  0.00    +0.000 C 
ATOM     15  C   UNL     1       4.595  14.862  19.235  0.00  0.00    +0.000 C 
ATOM     16  C   UNL     1       4.227  15.720  20.447  0.00  0.00    +0.000 C 
ATOM     17  C   UNL     1       2.732  15.976  20.729  0.00  0.00    +0.000 C 
ENDBRANCH   2   9
BRANCH   1  18
ATOM     18  S   UNL     1       0.560  12.531  19.498  0.00  0.00    +0.000 S 
ATOM     19  O   UNL     1       1.923  12.372  19.951  0.00  0.00    +0.000 OA
ATOM     20  O   UNL     1       0.273  13.149  18.216  0.00  0.00    +0.000 OA
BRANCH  18  21
ATOM     21  N   UNL     1      -0.198  11.014  19.557  0.00  0.00    +0.000 N 
ATOM     22  H   UNL     1      -0.976  11.042  18.885  0.00  0.00    +0.000 HD
BRANCH  21  26
ATOM     23  C   UNL     1       2.268   7.578  19.186  0.00  0.00    +0.000 A 
ATOM     24  C   UNL     1       1.978   8.374  18.074  0.00  0.00    +0.000 A 
ATOM     25  C   UNL     1       1.166   9.501  18.197  0.00  0.00    +0.000 A 
ATOM     26  C   UNL     1       0.649   9.867  19.441  0.00  0.00    +0.000 A 
ATOM     27  C   UNL     1       0.926   9.079  20.554  0.00  0.00    +0.000 A 
ATOM     28  C   UNL     1       1.731   7.938  20.426  0.00  0.00    +0.000 A 
BRANCH  23  29
ATOM     29  O   UNL     1       3.043   6.444  19.173  0.00  0.00    +0.000 OA
BRANCH  29  31
ATOM     30  C   UNL     1       2.606   4.509  17.784  0.00  0.00    +0.000 C 
ATOM     31  C   UNL     1       3.273   5.869  17.884  0.00  0.00    +0.000 C 
ENDBRANCH  29  31
ENDBRANCH  23  29
ENDBRANCH  21  26
ENDBRANCH  18  21
ENDBRANCH   1  18
TORSDOF 6
ENDMDL
MODEL 7
REMARK VINA RESULT:      -6.3      3.419      9.408
REMARK  Name = 
REMARK  10 active torsions:
REMARK  status: ('A' for Active; 'I' for Inactive)
REMARK    1  A    between atoms: C_1  and  C_2
REMARK    2  A    between atoms: C_2  and  O_3
REMARK    3  A    between atoms: O_3  and  C_4
REMARK    4  A    between atoms: C_7  and  N_8
REMARK    5  A    between atoms: N_8  and  S_9
REMARK    6  A    between atoms: S_9  and  C_12
REMARK    7  A    between atoms: C_13  and  C_14
REMARK    8  A    between atoms: C_23  and  C_24
REMARK    9  A    between atoms: N_25  and  C_26
REMARK   10  A    between atoms: C_27  and  C_28
REMARK                            x       y       z     vdW  Elec       q    Type
REMARK                         _______ _______ _______ _____ _____    ______ ____
ROOT
ATOM      1  C   UNL     1       0.339  12.236  19.203  0.00  0.00    +0.000 A 
ATOM      2  C   UNL     1      -0.673  13.138  19.726  0.00  0.00    +0.000 A 
ATOM      3  C   UNL     1      -0.179  14.422  19.489  0.00  0.00    +0.000 A 
ATOM      4  C   UNL     1      -0.805  15.765  19.670  0.00  0.00    +0.000 C 
ATOM      5  N   UNL     1       1.087  14.310  18.933  0.00  0.00    +0.000 N 
ATOM      6  C   UNL     1       1.929  15.419  18.523  0.00  0.00    +0.000 C 
ATOM      7  C   UNL     1       1.406  12.987  18.724  0.00  0.00    +0.000 A 
ATOM      8  C   UNL     1       2.666  12.552  18.055  0.00  0.00    +0.000 C 
ENDROOT
BRANCH   2   9
ATOM      9  C   UNL     1      -2.029  12.745  20.174  0.00  0.00    +0.000 C 
ATOM     10  O   UNL     1      -2.775  12.246  19.327  0.00  0.00    +0.000 OA
ATOM     11  N   UNL     1      -2.487  12.990  21.495  0.00  0.00    +0.000 N 
ATOM     12  C   UNL     1      -3.879  12.631  21.797  0.00  0.00    +0.000 C 
ATOM     13  C   UNL     1      -4.773  13.857  21.982  0.00  0.00    +0.000 C 
ATOM     14  C   UNL     1      -4.608  14.559  23.326  0.00  0.00    +0.000 C 
ATOM     15  C   UNL     1      -3.191  15.057  23.599  0.00  0.00    +0.000 C 
ATOM     16  C   UNL     1      -2.199  13.924  23.868  0.00  0.00    +0.000 C 
ATOM     17  C   UNL     1      -1.615  13.165  22.659  0.00  0.00    +0.000 C 
ENDBRANCH   2   9
BRANCH   1  18
ATOM     18  S   UNL     1       0.202  10.486  19.130  0.00  0.00    +0.000 S 
ATOM     19  O   UNL     1      -0.574  10.263  17.931  0.00  0.00    +0.000 OA
ATOM     20  O   UNL     1      -0.300  10.067  20.426  0.00  0.00    +0.000 OA
BRANCH  18  21
ATOM     21  N   UNL     1       1.743   9.813  18.894  0.00  0.00    +0.000 N 
ATOM     22  H   UNL     1       2.405  10.387  19.434  0.00  0.00    +0.000 HD
BRANCH  21  26
ATOM     23  C   UNL     1       2.169   5.640  19.545  0.00  0.00    +0.000 A 
ATOM     24  C   UNL     1       1.789   6.491  20.587  0.00  0.00    +0.000 A 
ATOM     25  C   UNL     1       1.652   7.863  20.372  0.00  0.00    +0.000 A 
ATOM     26  C   UNL     1       1.867   8.404  19.104  0.00  0.00    +0.000 A 
ATOM     27  C   UNL     1       2.252   7.567  18.060  0.00  0.00    +0.000 A 
ATOM     28  C   UNL     1       2.404   6.191  18.281  0.00  0.00    +0.000 A 
BRANCH  23  29
ATOM     29  O   UNL     1       2.346   4.282  19.651  0.00  0.00    +0.000 OA
BRANCH  29  31
ATOM     30  C   UNL     1       1.559   2.809  21.405  0.00  0.00    +0.000 C 
ATOM     31  C   UNL     1       1.214   3.548  20.125  0.00  0.00    +0.000 C 
ENDBRANCH  29  31
ENDBRANCH  23  29
ENDBRANCH  21  26
ENDBRANCH  18  21
ENDBRANCH   1  18
TORSDOF 6
ENDMDL
MODEL 8
REMARK VINA RESULT:      -6.3      4.161     10.049
REMARK  Name = 
REMARK  10 active torsions:
REMARK  status: ('A' for Active; 'I' for Inactive)
REMARK    1  A    between atoms: C_1  and  C_2
REMARK    2  A    between atoms: C_2  and  O_3
REMARK    3  A    between atoms: O_3  and  C_4
REMARK    4  A    between atoms: C_7  and  N_8
REMARK    5  A    between atoms: N_8  and  S_9
REMARK    6  A    between atoms: S_9  and  C_12
REMARK    7  A    between atoms: C_13  and  C_14
REMARK    8  A    between atoms: C_23  and  C_24
REMARK    9  A    between atoms: N_25  and  C_26
REMARK   10  A    between atoms: C_27  and  C_28
REMARK                            x       y       z     vdW  Elec       q    Type
REMARK                         _______ _______ _______ _____ _____    ______ ____
ROOT
ATOM      1  C   UNL     1       0.826  14.402  19.554  0.00  0.00    +0.000 A 
ATOM      2  C   UNL     1      -0.501  14.652  20.092  0.00  0.00    +0.000 A 
ATOM      3  C   UNL     1      -0.804  15.965  19.727  0.00  0.00    +0.000 A 
ATOM      4  C   UNL     1      -2.062  16.757  19.864  0.00  0.00    +0.000 C 
ATOM      5  N   UNL     1       0.297  16.508  19.081  0.00  0.00    +0.000 N 
ATOM      6  C   UNL     1       0.375  17.848  18.529  0.00  0.00    +0.000 C 
ATOM      7  C   UNL     1       1.288  15.561  18.941  0.00  0.00    +0.000 A 
ATOM      8  C   UNL     1       2.559  15.821  18.205  0.00  0.00    +0.000 C 
ENDROOT
BRANCH   2   9
ATOM      9  C   UNL     1      -1.401  13.629  20.673  0.00  0.00    +0.000 C 
ATOM     10  O   UNL     1      -1.900  12.815  19.892  0.00  0.00    +0.000 OA
ATOM     11  N   UNL     1      -1.739  13.618  22.052  0.00  0.00    +0.000 N 
ATOM     12  C   UNL     1      -2.707  12.606  22.495  0.00  0.00    +0.000 C 
ATOM     13  C   UNL     1      -4.062  13.212  22.859  0.00  0.00    +0.000 C 
ATOM     14  C   UNL     1      -4.094  13.911  24.215  0.00  0.00    +0.000 C 
ATOM     15  C   UNL     1      -3.099  15.060  24.347  0.00  0.00    +0.000 C 
ATOM     16  C   UNL     1      -1.646  14.588  24.427  0.00  0.00    +0.000 C 
ATOM     17  C   UNL     1      -0.927  14.220  23.112  0.00  0.00    +0.000 C 
ENDBRANCH   2   9
BRANCH   1  18
ATOM     18  S   UNL     1       1.676  12.866  19.615  0.00  0.00    +0.000 S 
ATOM     19  O   UNL     1       1.941  12.690  21.025  0.00  0.00    +0.000 OA
ATOM     20  O   UNL     1       2.768  12.972  18.664  0.00  0.00    +0.000 OA
BRANCH  18  21
ATOM     21  N   UNL     1       0.631  11.627  19.114  0.00  0.00    +0.000 N 
ATOM     22  H   UNL     1       0.246  11.910  18.202  0.00  0.00    +0.000 HD
BRANCH  21  26
ATOM     23  C   UNL     1       2.115   7.651  19.201  0.00  0.00    +0.000 A 
ATOM     24  C   UNL     1       2.211   8.425  18.041  0.00  0.00    +0.000 A 
ATOM     25  C   UNL     1       1.721   9.730  18.014  0.00  0.00    +0.000 A 
ATOM     26  C   UNL     1       1.148  10.294  19.155  0.00  0.00    +0.000 A 
ATOM     27  C   UNL     1       1.041   9.530  20.314  0.00  0.00    +0.000 A 
ATOM     28  C   UNL     1       1.521   8.214  20.336  0.00  0.00    +0.000 A 
BRANCH  23  29
ATOM     29  O   UNL     1       2.551   6.355  19.333  0.00  0.00    +0.000 OA
BRANCH  29  31
ATOM     30  C   UNL     1       4.098   5.198  17.871  0.00  0.00    +0.000 C 
ATOM     31  C   UNL     1       2.659   5.614  18.114  0.00  0.00    +0.000 C 
ENDBRANCH  29  31
ENDBRANCH  23  29
ENDBRANCH  21  26
ENDBRANCH  18  21
ENDBRANCH   1  18
TORSDOF 6
ENDMDL
MODEL 9
REMARK VINA RESULT:      -6.2      4.249     10.581
REMARK  Name = 
REMARK  10 active torsions:
REMARK  status: ('A' for Active; 'I' for Inactive)
REMARK    1  A    between atoms: C_1  and  C_2
REMARK    2  A    between atoms: C_2  and  O_3
REMARK    3  A    between atoms: O_3  and  C_4
REMARK    4  A    between atoms: C_7  and  N_8
REMARK    5  A    between atoms: N_8  and  S_9
REMARK    6  A    between atoms: S_9  and  C_12
REMARK    7  A    between atoms: C_13  and  C_14
REMARK    8  A    between atoms: C_23  and  C_24
REMARK    9  A    between atoms: N_25  and  C_26
REMARK   10  A    between atoms: C_27  and  C_28
REMARK                            x       y       z     vdW  Elec       q    Type
REMARK                         _______ _______ _______ _____ _____    ______ ____
ROOT
ATOM      1  C   UNL     1      -3.345  11.983  19.092  0.00  0.00    +0.000 A 
ATOM      2  C   UNL     1      -3.373  12.709  20.350  0.00  0.00    +0.000 A 
ATOM      3  C   UNL     1      -4.716  13.026  20.562  0.00  0.00    +0.000 A 
ATOM      4  C   UNL     1      -5.407  13.643  21.732  0.00  0.00    +0.000 C 
ATOM      5  N   UNL     1      -5.448  12.595  19.466  0.00  0.00    +0.000 N 
ATOM      6  C   UNL     1      -6.886  12.720  19.309  0.00  0.00    +0.000 C 
ATOM      7  C   UNL     1      -4.635  11.931  18.574  0.00  0.00    +0.000 A 
ATOM      8  C   UNL     1      -5.151  11.272  17.340  0.00  0.00    +0.000 C 
ENDROOT
BRANCH   2   9
ATOM      9  C   UNL     1      -2.239  12.841  21.294  0.00  0.00    +0.000 C 
ATOM     10  O   UNL     1      -1.958  11.849  21.972  0.00  0.00    +0.000 OA
ATOM     11  N   UNL     1      -1.544  14.066  21.471  0.00  0.00    +0.000 N 
ATOM     12  C   UNL     1      -0.492  14.096  22.496  0.00  0.00    +0.000 C 
ATOM     13  C   UNL     1      -0.890  14.922  23.719  0.00  0.00    +0.000 C 
ATOM     14  C   UNL     1      -0.804  16.431  23.513  0.00  0.00    +0.000 C 
ATOM     15  C   UNL     1      -1.680  16.956  22.379  0.00  0.00    +0.000 C 
ATOM     16  C   UNL     1      -1.167  16.560  20.994  0.00  0.00    +0.000 C 
ATOM     17  C   UNL     1      -1.487  15.141  20.478  0.00  0.00    +0.000 C 
ENDBRANCH   2   9
BRANCH   1  18
ATOM     18  S   UNL     1      -1.924  11.238  18.378  0.00  0.00    +0.000 S 
ATOM     19  O   UNL     1      -1.620  12.105  17.262  0.00  0.00    +0.000 OA
ATOM     20  O   UNL     1      -2.266   9.844  18.161  0.00  0.00    +0.000 OA
BRANCH  18  21
ATOM     21  N   UNL     1      -0.635  11.321  19.479  0.00  0.00    +0.000 N 
ATOM     22  H   UNL     1      -1.037  11.574  20.391  0.00  0.00    +0.000 HD
BRANCH  21  26
ATOM     23  C   UNL     1       1.972   7.971  19.535  0.00  0.00    +0.000 A 
ATOM     24  C   UNL     1       1.846   8.760  18.388  0.00  0.00    +0.000 A 
ATOM     25  C   UNL     1       0.987   9.859  18.371  0.00  0.00    +0.000 A 
ATOM     26  C   UNL     1       0.258  10.204  19.509  0.00  0.00    +0.000 A 
ATOM     27  C   UNL     1       0.370   9.422  20.656  0.00  0.00    +0.000 A 
ATOM     28  C   UNL     1       1.222   8.310  20.667  0.00  0.00    +0.000 A 
BRANCH  23  29
ATOM     29  O   UNL     1       2.775   6.864  19.656  0.00  0.00    +0.000 OA
BRANCH  29  31
ATOM     30  C   UNL     1       2.456   5.129  17.996  0.00  0.00    +0.000 C 
ATOM     31  C   UNL     1       2.138   5.609  19.400  0.00  0.00    +0.000 C 
ENDBRANCH  29  31
ENDBRANCH  23  29
ENDBRANCH  21  26
ENDBRANCH  18  21
ENDBRANCH   1  18
TORSDOF 6
ENDMDL
