MODEL 1
REMARK VINA RESULT:      -7.8      0.000      0.000
REMARK  Name = 
REMARK  10 active torsions:
REMARK  status: ('A' for Active; 'I' for Inactive)
REMARK    1  A    between atoms: C_1  and  C_2
REMARK    2  A    between atoms: C_2  and  C_3
REMARK    3  A    between atoms: C_2  and  C_4
REMARK    4  A    between atoms: C_2  and  C_5
REMARK    5  A    between atoms: C_8  and  O_9
REMARK    6  A    between atoms: O_9  and  C_10
REMARK    7  A    between atoms: C_10  and  C_11
REMARK    8  A    between atoms: C_11  and  C_12
REMARK    9  A    between atoms: C_12  and  O_13
REMARK   10  A    between atoms: O_13  and  N_14
REMARK                            x       y       z     vdW  Elec       q    Type
REMARK                         _______ _______ _______ _____ _____    ______ ____
ROOT
ATOM      1  N   UNL     1       6.790   5.523  18.147  0.00  0.00    +0.000 N 
ATOM      2  C   UNL     1       7.819   6.023  19.032  0.00  0.00    +0.000 C 
ATOM      3  N   UNL     1       8.394   5.219  20.054  0.00  0.00    +0.000 N 
ATOM      4  N   UNL     1       8.265   7.220  18.887  0.00  0.00    +0.000 NA
ATOM      5  C   UNL     1       7.809   8.055  17.844  0.00  0.00    +0.000 C 
ATOM      6  N   UNL     1       8.232   9.404  17.790  0.00  0.00    +0.000 N 
ATOM      7  N   UNL     1       7.073   7.578  16.904  0.00  0.00    +0.000 NA
ATOM      8  C   UNL     1       6.609   6.198  16.836  0.00  0.00    +0.000 C 
ATOM      9  C   UNL     1       5.126   6.262  16.382  0.00  0.00    +0.000 C 
ATOM     10  C   UNL     1       4.511   4.920  15.949  0.00  0.00    +0.000 C 
ATOM     11  S   UNL     1       5.377   4.213  14.510  0.00  0.00    +0.000 S 
ATOM     12  C   UNL     1       6.996   4.114  15.336  0.00  0.00    +0.000 C 
ATOM     13  C   UNL     1       7.473   5.508  15.746  0.00  0.00    +0.000 C 
ATOM     14  H   UNL     1       8.208   4.210  20.123  0.00  0.00    +0.000 HD
ATOM     15  H   UNL     1       9.093   5.625  20.694  0.00  0.00    +0.000 HD
ATOM     16  H   UNL     1       8.848   9.783  18.525  0.00  0.00    +0.000 HD
ATOM     17  H   UNL     1       7.941  10.014  17.013  0.00  0.00    +0.000 HD
ENDROOT
BRANCH   1  18
ATOM     18  O   UNL     1       6.234   4.304  18.361  0.00  0.00    +0.000 OA
BRANCH  18  19
ATOM     19  C   UNL     1       5.195   4.390  19.341  0.00  0.00    +0.000 C 
BRANCH  19  20
ATOM     20  C   UNL     1       3.821   3.808  18.949  0.00  0.00    +0.000 C 
BRANCH  20  21
ATOM     21  C   UNL     1       2.716   4.732  19.506  0.00  0.00    +0.000 C 
BRANCH  21  22
ATOM     22  O   UNL     1       3.175   6.019  19.743  0.00  0.00    +0.000 OA
BRANCH  22  26
ATOM     23  C   UNL     1       0.843   9.523  19.359  0.00  0.00    +0.000 A 
ATOM     24  C   UNL     1       0.909   8.832  20.589  0.00  0.00    +0.000 A 
ATOM     25  C   UNL     1       1.678   7.669  20.729  0.00  0.00    +0.000 A 
ATOM     26  C   UNL     1       2.406   7.146  19.641  0.00  0.00    +0.000 A 
ATOM     27  C   UNL     1       2.337   7.817  18.415  0.00  0.00    +0.000 A 
ATOM     28  C   UNL     1       1.569   8.983  18.273  0.00  0.00    +0.000 A 
BRANCH  23  30
ATOM     29  C   UNL     1       0.887  12.060  18.816  0.00  0.00    +0.000 C 
ATOM     30  C   UNL     1       0.016  10.821  19.168  0.00  0.00    +0.000 C 
ATOM     31  C   UNL     1      -0.743  11.148  20.468  0.00  0.00    +0.000 C 
ATOM     32  C   UNL     1      -0.996  10.633  18.017  0.00  0.00    +0.000 C 
ENDBRANCH  23  30
ENDBRANCH  22  26
ENDBRANCH  21  22
ENDBRANCH  20  21
ENDBRANCH  19  20
ENDBRANCH  18  19
ENDBRANCH   1  18
TORSDOF 7
ENDMDL
MODEL 2
REMARK VINA RESULT:      -7.5      0.543      1.071
REMARK  Name = 
REMARK  10 active torsions:
REMARK  status: ('A' for Active; 'I' for Inactive)
REMARK    1  A    between atoms: C_1  and  C_2
REMARK    2  A    between atoms: C_2  and  C_3
REMARK    3  A    between atoms: C_2  and  C_4
REMARK    4  A    between atoms: C_2  and  C_5
REMARK    5  A    between atoms: C_8  and  O_9
REMARK    6  A    between atoms: O_9  and  C_10
REMARK    7  A    between atoms: C_10  and  C_11
REMARK    8  A    between atoms: C_11  and  C_12
REMARK    9  A    between atoms: C_12  and  O_13
REMARK   10  A    between atoms: O_13  and  N_14
REMARK                            x       y       z     vdW  Elec       q    Type
REMARK                         _______ _______ _______ _____ _____    ______ ____
ROOT
ATOM      1  N   UNL     1       6.799   5.509  18.180  0.00  0.00    +0.000 N 
ATOM      2  C   UNL     1       7.817   6.014  19.074  0.00  0.00    +0.000 C 
ATOM      3  N   UNL     1       8.376   5.219  20.111  0.00  0.00    +0.000 N 
ATOM      4  N   UNL     1       8.267   7.209  18.924  0.00  0.00    +0.000 NA
ATOM      5  C   UNL     1       7.826   8.036  17.869  0.00  0.00    +0.000 C 
ATOM      6  N   UNL     1       8.253   9.384  17.809  0.00  0.00    +0.000 N 
ATOM      7  N   UNL     1       7.102   7.553  16.923  0.00  0.00    +0.000 NA
ATOM      8  C   UNL     1       6.636   6.173  16.861  0.00  0.00    +0.000 C 
ATOM      9  C   UNL     1       5.159   6.236  16.386  0.00  0.00    +0.000 C 
ATOM     10  C   UNL     1       4.547   4.892  15.957  0.00  0.00    +0.000 C 
ATOM     11  S   UNL     1       5.431   4.171  14.536  0.00  0.00    +0.000 S 
ATOM     12  C   UNL     1       7.039   4.075  15.384  0.00  0.00    +0.000 C 
ATOM     13  C   UNL     1       7.513   5.472  15.788  0.00  0.00    +0.000 C 
ATOM     14  H   UNL     1       8.187   4.211  20.186  0.00  0.00    +0.000 HD
ATOM     15  H   UNL     1       9.067   5.628  20.756  0.00  0.00    +0.000 HD
ATOM     16  H   UNL     1       8.861   9.768  18.548  0.00  0.00    +0.000 HD
ATOM     17  H   UNL     1       7.974   9.988  17.023  0.00  0.00    +0.000 HD
ENDROOT
BRANCH   1  18
ATOM     18  O   UNL     1       6.237   4.294  18.397  0.00  0.00    +0.000 OA
BRANCH  18  19
ATOM     19  C   UNL     1       5.166   4.394  19.341  0.00  0.00    +0.000 C 
BRANCH  19  20
ATOM     20  C   UNL     1       3.936   3.497  19.094  0.00  0.00    +0.000 C 
BRANCH  20  21
ATOM     21  C   UNL     1       2.669   4.380  19.113  0.00  0.00    +0.000 C 
BRANCH  21  22
ATOM     22  O   UNL     1       2.726   5.363  20.089  0.00  0.00    +0.000 OA
BRANCH  22  26
ATOM     23  C   UNL     1       1.171   9.272  19.683  0.00  0.00    +0.000 A 
ATOM     24  C   UNL     1       1.971   8.705  18.666  0.00  0.00    +0.000 A 
ATOM     25  C   UNL     1       2.493   7.410  18.789  0.00  0.00    +0.000 A 
ATOM     26  C   UNL     1       2.241   6.634  19.938  0.00  0.00    +0.000 A 
ATOM     27  C   UNL     1       1.460   7.191  20.956  0.00  0.00    +0.000 A 
ATOM     28  C   UNL     1       0.934   8.486  20.835  0.00  0.00    +0.000 A 
BRANCH  23  30
ATOM     29  C   UNL     1       1.082  11.498  18.354  0.00  0.00    +0.000 C 
ATOM     30  C   UNL     1       0.562  10.695  19.578  0.00  0.00    +0.000 C 
ATOM     31  C   UNL     1       0.915  11.503  20.841  0.00  0.00    +0.000 C 
ATOM     32  C   UNL     1      -0.973  10.599  19.443  0.00  0.00    +0.000 C 
ENDBRANCH  23  30
ENDBRANCH  22  26
ENDBRANCH  21  22
ENDBRANCH  20  21
ENDBRANCH  19  20
ENDBRANCH  18  19
ENDBRANCH   1  18
TORSDOF 7
ENDMDL
MODEL 3
REMARK VINA RESULT:      -7.5      2.677      4.460
REMARK  Name = 
REMARK  10 active torsions:
REMARK  status: ('A' for Active; 'I' for Inactive)
REMARK    1  A    between atoms: C_1  and  C_2
REMARK    2  A    between atoms: C_2  and  C_3
REMARK    3  A    between atoms: C_2  and  C_4
REMARK    4  A    between atoms: C_2  and  C_5
REMARK    5  A    between atoms: C_8  and  O_9
REMARK    6  A    between atoms: O_9  and  C_10
REMARK    7  A    between atoms: C_10  and  C_11
REMARK    8  A    between atoms: C_11  and  C_12
REMARK    9  A    between atoms: C_12  and  O_13
REMARK   10  A    between atoms: O_13  and  N_14
REMARK                            x       y       z     vdW  Elec       q    Type
REMARK                         _______ _______ _______ _____ _____    ______ ____
ROOT
ATOM      1  N   UNL     1       4.422   4.510  18.545  0.00  0.00    +0.000 N 
ATOM      2  C   UNL     1       5.841   4.748  18.402  0.00  0.00    +0.000 C 
ATOM      3  N   UNL     1       6.649   5.179  19.489  0.00  0.00    +0.000 N 
ATOM      4  N   UNL     1       6.416   4.539  17.271  0.00  0.00    +0.000 NA
ATOM      5  C   UNL     1       5.704   4.032  16.164  0.00  0.00    +0.000 C 
ATOM      6  N   UNL     1       6.342   3.931  14.905  0.00  0.00    +0.000 N 
ATOM      7  N   UNL     1       4.505   3.591  16.309  0.00  0.00    +0.000 NA
ATOM      8  C   UNL     1       3.763   3.609  17.564  0.00  0.00    +0.000 C 
ATOM      9  C   UNL     1       2.317   4.047  17.206  0.00  0.00    +0.000 C 
ATOM     10  C   UNL     1       1.275   3.849  18.319  0.00  0.00    +0.000 C 
ATOM     11  S   UNL     1       1.097   2.094  18.774  0.00  0.00    +0.000 S 
ATOM     12  C   UNL     1       2.836   1.885  19.270  0.00  0.00    +0.000 C 
ATOM     13  C   UNL     1       3.765   2.145  18.084  0.00  0.00    +0.000 C 
ATOM     14  H   UNL     1       6.294   5.207  20.454  0.00  0.00    +0.000 HD
ATOM     15  H   UNL     1       7.648   5.381  19.338  0.00  0.00    +0.000 HD
ATOM     16  H   UNL     1       7.315   4.253  14.792  0.00  0.00    +0.000 HD
ATOM     17  H   UNL     1       5.849   3.524  14.098  0.00  0.00    +0.000 HD
ENDROOT
BRANCH   1  18
ATOM     18  O   UNL     1       3.785   4.832  19.698  0.00  0.00    +0.000 OA
BRANCH  18  19
ATOM     19  C   UNL     1       3.338   6.191  19.664  0.00  0.00    +0.000 C 
BRANCH  19  20
ATOM     20  C   UNL     1       1.975   6.491  20.321  0.00  0.00    +0.000 C 
BRANCH  20  21
ATOM     21  C   UNL     1       1.748   8.018  20.313  0.00  0.00    +0.000 C 
BRANCH  21  22
ATOM     22  O   UNL     1       1.493   8.520  21.579  0.00  0.00    +0.000 OA
BRANCH  22  26
ATOM     23  C   UNL     1      -1.096  11.751  22.432  0.00  0.00    +0.000 A 
ATOM     24  C   UNL     1      -0.185  11.822  21.355  0.00  0.00    +0.000 A 
ATOM     25  C   UNL     1       0.679  10.758  21.063  0.00  0.00    +0.000 A 
ATOM     26  C   UNL     1       0.671   9.583  21.841  0.00  0.00    +0.000 A 
ATOM     27  C   UNL     1      -0.219   9.507  22.917  0.00  0.00    +0.000 A 
ATOM     28  C   UNL     1      -1.087  10.571  23.211  0.00  0.00    +0.000 A 
BRANCH  23  30
ATOM     29  C   UNL     1      -3.283  12.439  23.646  0.00  0.00    +0.000 C 
ATOM     30  C   UNL     1      -2.078  12.900  22.779  0.00  0.00    +0.000 C 
ATOM     31  C   UNL     1      -2.649  13.502  21.482  0.00  0.00    +0.000 C 
ATOM     32  C   UNL     1      -1.338  13.999  23.573  0.00  0.00    +0.000 C 
ENDBRANCH  23  30
ENDBRANCH  22  26
ENDBRANCH  21  22
ENDBRANCH  20  21
ENDBRANCH  19  20
ENDBRANCH  18  19
ENDBRANCH   1  18
TORSDOF 7
ENDMDL
MODEL 4
REMARK VINA RESULT:      -7.4      2.700      4.368
REMARK  Name = 
REMARK  10 active torsions:
REMARK  status: ('A' for Active; 'I' for Inactive)
REMARK    1  A    between atoms: C_1  and  C_2
REMARK    2  A    between atoms: C_2  and  C_3
REMARK    3  A    between atoms: C_2  and  C_4
REMARK    4  A    between atoms: C_2  and  C_5
REMARK    5  A    between atoms: C_8  and  O_9
REMARK    6  A    between atoms: O_9  and  C_10
REMARK    7  A    between atoms: C_10  and  C_11
REMARK    8  A    between atoms: C_11  and  C_12
REMARK    9  A    between atoms: C_12  and  O_13
REMARK   10  A    between atoms: O_13  and  N_14
REMARK                            x       y       z     vdW  Elec       q    Type
REMARK                         _______ _______ _______ _____ _____    ______ ____
ROOT
ATOM      1  N   UNL     1       4.371   4.548  18.610  0.00  0.00    +0.000 N 
ATOM      2  C   UNL     1       5.794   4.786  18.507  0.00  0.00    +0.000 C 
ATOM      3  N   UNL     1       6.570   5.224  19.615  0.00  0.00    +0.000 N 
ATOM      4  N   UNL     1       6.402   4.570  17.395  0.00  0.00    +0.000 NA
ATOM      5  C   UNL     1       5.722   4.055  16.271  0.00  0.00    +0.000 C 
ATOM      6  N   UNL     1       6.398   3.946  15.032  0.00  0.00    +0.000 N 
ATOM      7  N   UNL     1       4.520   3.615  16.383  0.00  0.00    +0.000 NA
ATOM      8  C   UNL     1       3.742   3.641  17.616  0.00  0.00    +0.000 C 
ATOM      9  C   UNL     1       2.307   4.076  17.213  0.00  0.00    +0.000 C 
ATOM     10  C   UNL     1       1.232   3.886  18.296  0.00  0.00    +0.000 C 
ATOM     11  S   UNL     1       1.041   2.133  18.758  0.00  0.00    +0.000 S 
ATOM     12  C   UNL     1       2.765   1.928  19.306  0.00  0.00    +0.000 C 
ATOM     13  C   UNL     1       3.729   2.181  18.146  0.00  0.00    +0.000 C 
ATOM     14  H   UNL     1       6.187   5.258  20.569  0.00  0.00    +0.000 HD
ATOM     15  H   UNL     1       7.573   5.426  19.491  0.00  0.00    +0.000 HD
ATOM     16  H   UNL     1       7.373   4.268  14.945  0.00  0.00    +0.000 HD
ATOM     17  H   UNL     1       5.928   3.534  14.214  0.00  0.00    +0.000 HD
ENDROOT
BRANCH   1  18
ATOM     18  O   UNL     1       3.701   4.878  19.742  0.00  0.00    +0.000 OA
BRANCH  18  19
ATOM     19  C   UNL     1       3.164   6.201  19.642  0.00  0.00    +0.000 C 
BRANCH  19  20
ATOM     20  C   UNL     1       2.003   6.553  20.595  0.00  0.00    +0.000 C 
BRANCH  20  21
ATOM     21  C   UNL     1       1.645   8.043  20.407  0.00  0.00    +0.000 C 
BRANCH  21  22
ATOM     22  O   UNL     1       1.603   8.731  21.610  0.00  0.00    +0.000 OA
BRANCH  22  26
ATOM     23  C   UNL     1      -1.163  11.797  22.511  0.00  0.00    +0.000 A 
ATOM     24  C   UNL     1      -1.182  10.576  23.222  0.00  0.00    +0.000 A 
ATOM     25  C   UNL     1      -0.271   9.552  22.932  0.00  0.00    +0.000 A 
ATOM     26  C   UNL     1       0.691   9.706  21.914  0.00  0.00    +0.000 A 
ATOM     27  C   UNL     1       0.711  10.906  21.196  0.00  0.00    +0.000 A 
ATOM     28  C   UNL     1      -0.200  11.934  21.485  0.00  0.00    +0.000 A 
BRANCH  23  30
ATOM     29  C   UNL     1      -2.682  13.658  21.531  0.00  0.00    +0.000 C 
ATOM     30  C   UNL     1      -2.145  12.960  22.812  0.00  0.00    +0.000 C 
ATOM     31  C   UNL     1      -1.433  14.033  23.656  0.00  0.00    +0.000 C 
ATOM     32  C   UNL     1      -3.368  12.425  23.587  0.00  0.00    +0.000 C 
ENDBRANCH  23  30
ENDBRANCH  22  26
ENDBRANCH  21  22
ENDBRANCH  20  21
ENDBRANCH  19  20
ENDBRANCH  18  19
ENDBRANCH   1  18
TORSDOF 7
ENDMDL
MODEL 5
REMARK VINA RESULT:      -7.1      2.749      4.526
REMARK  Name = 
REMARK  10 active torsions:
REMARK  status: ('A' for Active; 'I' for Inactive)
REMARK    1  A    between atoms: C_1  and  C_2
REMARK    2  A    between atoms: C_2  and  C_3
REMARK    3  A    between atoms: C_2  and  C_4
REMARK    4  A    between atoms: C_2  and  C_5
REMARK    5  A    between atoms: C_8  and  O_9
REMARK    6  A    between atoms: O_9  and  C_10
REMARK    7  A    between atoms: C_10  and  C_11
REMARK    8  A    between atoms: C_11  and  C_12
REMARK    9  A    between atoms: C_12  and  O_13
REMARK   10  A    between atoms: O_13  and  N_14
REMARK                            x       y       z     vdW  Elec       q    Type
REMARK                         _______ _______ _______ _____ _____    ______ ____
ROOT
ATOM      1  N   UNL     1       4.740   5.749  17.287  0.00  0.00    +0.000 N 
ATOM      2  C   UNL     1       5.907   6.221  16.575  0.00  0.00    +0.000 C 
ATOM      3  N   UNL     1       6.584   7.416  16.941  0.00  0.00    +0.000 N 
ATOM      4  N   UNL     1       6.382   5.537  15.596  0.00  0.00    +0.000 NA
ATOM      5  C   UNL     1       5.820   4.297  15.222  0.00  0.00    +0.000 C 
ATOM      6  N   UNL     1       6.293   3.633  14.065  0.00  0.00    +0.000 N 
ATOM      7  N   UNL     1       4.937   3.732  15.966  0.00  0.00    +0.000 NA
ATOM      8  C   UNL     1       4.404   4.304  17.196  0.00  0.00    +0.000 C 
ATOM      9  C   UNL     1       2.876   4.032  17.175  0.00  0.00    +0.000 C 
ATOM     10  C   UNL     1       2.145   4.275  18.505  0.00  0.00    +0.000 C 
ATOM     11  S   UNL     1       2.762   3.182  19.826  0.00  0.00    +0.000 S 
ATOM     12  C   UNL     1       4.477   3.789  19.741  0.00  0.00    +0.000 C 
ATOM     13  C   UNL     1       5.072   3.518  18.358  0.00  0.00    +0.000 C 
ATOM     14  H   UNL     1       6.363   7.924  17.807  0.00  0.00    +0.000 HD
ATOM     15  H   UNL     1       7.384   7.744  16.381  0.00  0.00    +0.000 HD
ATOM     16  H   UNL     1       7.025   4.067  13.483  0.00  0.00    +0.000 HD
ATOM     17  H   UNL     1       5.923   2.709  13.803  0.00  0.00    +0.000 HD
ENDROOT
BRANCH   1  18
ATOM     18  O   UNL     1       4.164   6.516  18.246  0.00  0.00    +0.000 OA
BRANCH  18  19
ATOM     19  C   UNL     1       3.433   7.595  17.656  0.00  0.00    +0.000 C 
BRANCH  19  20
ATOM     20  C   UNL     1       2.075   7.946  18.298  0.00  0.00    +0.000 C 
BRANCH  20  21
ATOM     21  C   UNL     1       1.555   9.257  17.668  0.00  0.00    +0.000 C 
BRANCH  21  22
ATOM     22  O   UNL     1       0.936  10.079  18.597  0.00  0.00    +0.000 OA
BRANCH  22  26
ATOM     23  C   UNL     1      -3.147  11.154  18.396  0.00  0.00    +0.000 A 
ATOM     24  C   UNL     1      -2.291  11.746  19.351  0.00  0.00    +0.000 A 
ATOM     25  C   UNL     1      -0.936  11.398  19.428  0.00  0.00    +0.000 A 
ATOM     26  C   UNL     1      -0.384  10.437  18.557  0.00  0.00    +0.000 A 
ATOM     27  C   UNL     1      -1.226   9.835  17.615  0.00  0.00    +0.000 A 
ATOM     28  C   UNL     1      -2.583  10.184  17.535  0.00  0.00    +0.000 A 
BRANCH  23  30
ATOM     29  C   UNL     1      -5.038  12.038  16.855  0.00  0.00    +0.000 C 
ATOM     30  C   UNL     1      -4.648  11.523  18.269  0.00  0.00    +0.000 C 
ATOM     31  C   UNL     1      -4.994  12.636  19.275  0.00  0.00    +0.000 C 
ATOM     32  C   UNL     1      -5.519  10.280  18.558  0.00  0.00    +0.000 C 
ENDBRANCH  23  30
ENDBRANCH  22  26
ENDBRANCH  21  22
ENDBRANCH  20  21
ENDBRANCH  19  20
ENDBRANCH  18  19
ENDBRANCH   1  18
TORSDOF 7
ENDMDL
MODEL 6
REMARK VINA RESULT:      -7.1      2.676      4.671
REMARK  Name = 
REMARK  10 active torsions:
REMARK  status: ('A' for Active; 'I' for Inactive)
REMARK    1  A    between atoms: C_1  and  C_2
REMARK    2  A    between atoms: C_2  and  C_3
REMARK    3  A    between atoms: C_2  and  C_4
REMARK    4  A    between atoms: C_2  and  C_5
REMARK    5  A    between atoms: C_8  and  O_9
REMARK    6  A    between atoms: O_9  and  C_10
REMARK    7  A    between atoms: C_10  and  C_11
REMARK    8  A    between atoms: C_11  and  C_12
REMARK    9  A    between atoms: C_12  and  O_13
REMARK   10  A    between atoms: O_13  and  N_14
REMARK                            x       y       z     vdW  Elec       q    Type
REMARK                         _______ _______ _______ _____ _____    ______ ____
ROOT
ATOM      1  N   UNL     1       3.537   4.748  18.296  0.00  0.00    +0.000 N 
ATOM      2  C   UNL     1       2.611   3.809  18.891  0.00  0.00    +0.000 C 
ATOM      3  N   UNL     1       1.216   3.851  18.625  0.00  0.00    +0.000 N 
ATOM      4  N   UNL     1       3.048   2.879  19.663  0.00  0.00    +0.000 NA
ATOM      5  C   UNL     1       4.428   2.714  19.913  0.00  0.00    +0.000 C 
ATOM      6  N   UNL     1       4.860   1.758  20.862  0.00  0.00    +0.000 N 
ATOM      7  N   UNL     1       5.295   3.373  19.229  0.00  0.00    +0.000 NA
ATOM      8  C   UNL     1       4.967   4.353  18.202  0.00  0.00    +0.000 C 
ATOM      9  C   UNL     1       5.944   5.542  18.409  0.00  0.00    +0.000 C 
ATOM     10  C   UNL     1       5.991   6.564  17.261  0.00  0.00    +0.000 C 
ATOM     11  S   UNL     1       6.555   5.805  15.704  0.00  0.00    +0.000 S 
ATOM     12  C   UNL     1       5.203   4.587  15.626  0.00  0.00    +0.000 C 
ATOM     13  C   UNL     1       5.250   3.659  16.841  0.00  0.00    +0.000 C 
ATOM     14  H   UNL     1       0.818   4.457  17.895  0.00  0.00    +0.000 HD
ATOM     15  H   UNL     1       0.582   3.194  19.103  0.00  0.00    +0.000 HD
ATOM     16  H   UNL     1       4.169   1.204  21.390  0.00  0.00    +0.000 HD
ATOM     17  H   UNL     1       5.864   1.598  21.025  0.00  0.00    +0.000 HD
ENDROOT
BRANCH   1  18
ATOM     18  O   UNL     1       3.078   5.798  17.571  0.00  0.00    +0.000 OA
BRANCH  18  19
ATOM     19  C   UNL     1       2.628   6.847  18.434  0.00  0.00    +0.000 C 
BRANCH  19  20
ATOM     20  C   UNL     1       2.754   8.288  17.899  0.00  0.00    +0.000 C 
BRANCH  20  21
ATOM     21  C   UNL     1       1.449   9.049  18.219  0.00  0.00    +0.000 C 
BRANCH  21  22
ATOM     22  O   UNL     1       1.120   8.990  19.565  0.00  0.00    +0.000 OA
BRANCH  22  26
ATOM     23  C   UNL     1      -1.225  11.819  21.654  0.00  0.00    +0.000 A 
ATOM     24  C   UNL     1      -1.261  11.753  20.243  0.00  0.00    +0.000 A 
ATOM     25  C   UNL     1      -0.487  10.821  19.539  0.00  0.00    +0.000 A 
ATOM     26  C   UNL     1       0.358   9.921  20.218  0.00  0.00    +0.000 A 
ATOM     27  C   UNL     1       0.410   9.985  21.615  0.00  0.00    +0.000 A 
ATOM     28  C   UNL     1      -0.364  10.917  22.322  0.00  0.00    +0.000 A 
BRANCH  23  30
ATOM     29  C   UNL     1      -2.982  13.726  21.585  0.00  0.00    +0.000 C 
ATOM     30  C   UNL     1      -2.076  12.826  22.471  0.00  0.00    +0.000 C 
ATOM     31  C   UNL     1      -1.148  13.757  23.273  0.00  0.00    +0.000 C 
ATOM     32  C   UNL     1      -3.002  12.062  23.443  0.00  0.00    +0.000 C 
ENDBRANCH  23  30
ENDBRANCH  22  26
ENDBRANCH  21  22
ENDBRANCH  20  21
ENDBRANCH  19  20
ENDBRANCH  18  19
ENDBRANCH   1  18
TORSDOF 7
ENDMDL
MODEL 7
REMARK VINA RESULT:      -7.1      2.475      4.367
REMARK  Name = 
REMARK  10 active torsions:
REMARK  status: ('A' for Active; 'I' for Inactive)
REMARK    1  A    between atoms: C_1  and  C_2
REMARK    2  A    between atoms: C_2  and  C_3
REMARK    3  A    between atoms: C_2  and  C_4
REMARK    4  A    between atoms: C_2  and  C_5
REMARK    5  A    between atoms: C_8  and  O_9
REMARK    6  A    between atoms: O_9  and  C_10
REMARK    7  A    between atoms: C_10  and  C_11
REMARK    8  A    between atoms: C_11  and  C_12
REMARK    9  A    between atoms: C_12  and  O_13
REMARK   10  A    between atoms: O_13  and  N_14
REMARK                            x       y       z     vdW  Elec       q    Type
REMARK                         _______ _______ _______ _____ _____    ______ ____
ROOT
ATOM      1  N   UNL     1       4.509   5.804  17.399  0.00  0.00    +0.000 N 
ATOM      2  C   UNL     1       5.701   6.271  16.725  0.00  0.00    +0.000 C 
ATOM      3  N   UNL     1       6.357   7.476  17.097  0.00  0.00    +0.000 N 
ATOM      4  N   UNL     1       6.217   5.573  15.777  0.00  0.00    +0.000 NA
ATOM      5  C   UNL     1       5.677   4.324  15.403  0.00  0.00    +0.000 C 
ATOM      6  N   UNL     1       6.198   3.643  14.277  0.00  0.00    +0.000 N 
ATOM      7  N   UNL     1       4.768   3.767  16.121  0.00  0.00    +0.000 NA
ATOM      8  C   UNL     1       4.184   4.356  17.320  0.00  0.00    +0.000 C 
ATOM      9  C   UNL     1       2.659   4.075  17.243  0.00  0.00    +0.000 C 
ATOM     10  C   UNL     1       1.875   4.337  18.539  0.00  0.00    +0.000 C 
ATOM     11  S   UNL     1       2.446   3.270  19.901  0.00  0.00    +0.000 S 
ATOM     12  C   UNL     1       4.159   3.884  19.873  0.00  0.00    +0.000 C 
ATOM     13  C   UNL     1       4.809   3.593  18.520  0.00  0.00    +0.000 C 
ATOM     14  H   UNL     1       6.100   7.997  17.945  0.00  0.00    +0.000 HD
ATOM     15  H   UNL     1       7.177   7.799  16.564  0.00  0.00    +0.000 HD
ATOM     16  H   UNL     1       6.951   4.071  13.717  0.00  0.00    +0.000 HD
ATOM     17  H   UNL     1       5.843   2.713  14.016  0.00  0.00    +0.000 HD
ENDROOT
BRANCH   1  18
ATOM     18  O   UNL     1       3.892   6.584  18.321  0.00  0.00    +0.000 OA
BRANCH  18  19
ATOM     19  C   UNL     1       3.125   7.609  17.683  0.00  0.00    +0.000 C 
BRANCH  19  20
ATOM     20  C   UNL     1       1.898   8.140  18.453  0.00  0.00    +0.000 C 
BRANCH  20  21
ATOM     21  C   UNL     1       2.164   7.992  19.967  0.00  0.00    +0.000 C 
BRANCH  21  22
ATOM     22  O   UNL     1       0.992   7.959  20.707  0.00  0.00    +0.000 OA
BRANCH  22  26
ATOM     23  C   UNL     1      -1.179  11.342  22.016  0.00  0.00    +0.000 A 
ATOM     24  C   UNL     1      -0.760  11.229  20.671  0.00  0.00    +0.000 A 
ATOM     25  C   UNL     1      -0.039  10.113  20.226  0.00  0.00    +0.000 A 
ATOM     26  C   UNL     1       0.298   9.068  21.109  0.00  0.00    +0.000 A 
ATOM     27  C   UNL     1      -0.101   9.175  22.445  0.00  0.00    +0.000 A 
ATOM     28  C   UNL     1      -0.825  10.291  22.894  0.00  0.00    +0.000 A 
BRANCH  23  30
ATOM     29  C   UNL     1      -3.059  12.162  23.604  0.00  0.00    +0.000 C 
ATOM     30  C   UNL     1      -1.990  12.553  22.545  0.00  0.00    +0.000 C 
ATOM     31  C   UNL     1      -2.728  13.232  21.376  0.00  0.00    +0.000 C 
ATOM     32  C   UNL     1      -1.038  13.570  23.212  0.00  0.00    +0.000 C 
ENDBRANCH  23  30
ENDBRANCH  22  26
ENDBRANCH  21  22
ENDBRANCH  20  21
ENDBRANCH  19  20
ENDBRANCH  18  19
ENDBRANCH   1  18
TORSDOF 7
ENDMDL
MODEL 8
REMARK VINA RESULT:      -7.1      2.529      4.451
REMARK  Name = 
REMARK  10 active torsions:
REMARK  status: ('A' for Active; 'I' for Inactive)
REMARK    1  A    between atoms: C_1  and  C_2
REMARK    2  A    between atoms: C_2  and  C_3
REMARK    3  A    between atoms: C_2  and  C_4
REMARK    4  A    between atoms: C_2  and  C_5
REMARK    5  A    between atoms: C_8  and  O_9
REMARK    6  A    between atoms: O_9  and  C_10
REMARK    7  A    between atoms: C_10  and  C_11
REMARK    8  A    between atoms: C_11  and  C_12
REMARK    9  A    between atoms: C_12  and  O_13
REMARK   10  A    between atoms: O_13  and  N_14
REMARK                            x       y       z     vdW  Elec       q    Type
REMARK                         _______ _______ _______ _____ _____    ______ ____
ROOT
ATOM      1  N   UNL     1       4.699   5.765  17.258  0.00  0.00    +0.000 N 
ATOM      2  C   UNL     1       5.875   6.244  16.564  0.00  0.00    +0.000 C 
ATOM      3  N   UNL     1       6.531   7.450  16.932  0.00  0.00    +0.000 N 
ATOM      4  N   UNL     1       6.377   5.556  15.601  0.00  0.00    +0.000 NA
ATOM      5  C   UNL     1       5.836   4.306  15.228  0.00  0.00    +0.000 C 
ATOM      6  N   UNL     1       6.340   3.637  14.087  0.00  0.00    +0.000 N 
ATOM      7  N   UNL     1       4.945   3.739  15.959  0.00  0.00    +0.000 NA
ATOM      8  C   UNL     1       4.382   4.316  17.174  0.00  0.00    +0.000 C 
ATOM      9  C   UNL     1       2.857   4.026  17.125  0.00  0.00    +0.000 C 
ATOM     10  C   UNL     1       2.097   4.273  18.438  0.00  0.00    +0.000 C 
ATOM     11  S   UNL     1       2.701   3.199  19.781  0.00  0.00    +0.000 S 
ATOM     12  C   UNL     1       4.410   3.824  19.724  0.00  0.00    +0.000 C 
ATOM     13  C   UNL     1       5.035   3.547  18.356  0.00  0.00    +0.000 C 
ATOM     14  H   UNL     1       6.288   7.963  17.790  0.00  0.00    +0.000 HD
ATOM     15  H   UNL     1       7.339   7.782  16.385  0.00  0.00    +0.000 HD
ATOM     16  H   UNL     1       7.078   4.074  13.515  0.00  0.00    +0.000 HD
ATOM     17  H   UNL     1       5.985   2.707  13.826  0.00  0.00    +0.000 HD
ENDROOT
BRANCH   1  18
ATOM     18  O   UNL     1       4.097   6.534  18.198  0.00  0.00    +0.000 OA
BRANCH  18  19
ATOM     19  C   UNL     1       3.350   7.589  17.584  0.00  0.00    +0.000 C 
BRANCH  19  20
ATOM     20  C   UNL     1       2.061   8.037  18.302  0.00  0.00    +0.000 C 
BRANCH  20  21
ATOM     21  C   UNL     1       1.797   9.520  17.962  0.00  0.00    +0.000 C 
BRANCH  21  22
ATOM     22  O   UNL     1       0.451   9.846  18.034  0.00  0.00    +0.000 OA
BRANCH  22  26
ATOM     23  C   UNL     1      -1.374  12.007  21.175  0.00  0.00    +0.000 A 
ATOM     24  C   UNL     1      -0.199  11.256  21.403  0.00  0.00    +0.000 A 
ATOM     25  C   UNL     1       0.414  10.535  20.370  0.00  0.00    +0.000 A 
ATOM     26  C   UNL     1      -0.126  10.531  19.069  0.00  0.00    +0.000 A 
ATOM     27  C   UNL     1      -1.296  11.261  18.835  0.00  0.00    +0.000 A 
ATOM     28  C   UNL     1      -1.912  11.986  19.867  0.00  0.00    +0.000 A 
BRANCH  23  30
ATOM     29  C   UNL     1      -2.728  11.948  23.387  0.00  0.00    +0.000 C 
ATOM     30  C   UNL     1      -2.075  12.830  22.287  0.00  0.00    +0.000 C 
ATOM     31  C   UNL     1      -3.191  13.692  21.667  0.00  0.00    +0.000 C 
ATOM     32  C   UNL     1      -1.048  13.747  22.987  0.00  0.00    +0.000 C 
ENDBRANCH  23  30
ENDBRANCH  22  26
ENDBRANCH  21  22
ENDBRANCH  20  21
ENDBRANCH  19  20
ENDBRANCH  18  19
ENDBRANCH   1  18
TORSDOF 7
ENDMDL
MODEL 9
REMARK VINA RESULT:      -7.1      4.952      7.684
REMARK  Name = 
REMARK  10 active torsions:
REMARK  status: ('A' for Active; 'I' for Inactive)
REMARK    1  A    between atoms: C_1  and  C_2
REMARK    2  A    between atoms: C_2  and  C_3
REMARK    3  A    between atoms: C_2  and  C_4
REMARK    4  A    between atoms: C_2  and  C_5
REMARK    5  A    between atoms: C_8  and  O_9
REMARK    6  A    between atoms: O_9  and  C_10
REMARK    7  A    between atoms: C_10  and  C_11
REMARK    8  A    between atoms: C_11  and  C_12
REMARK    9  A    between atoms: C_12  and  O_13
REMARK   10  A    between atoms: O_13  and  N_14
REMARK                            x       y       z     vdW  Elec       q    Type
REMARK                         _______ _______ _______ _____ _____    ______ ____
ROOT
ATOM      1  N   UNL     1       9.465  12.246  19.956  0.00  0.00    +0.000 N 
ATOM      2  C   UNL     1       8.906  12.140  21.286  0.00  0.00    +0.000 C 
ATOM      3  N   UNL     1       8.961  10.934  22.036  0.00  0.00    +0.000 N 
ATOM      4  N   UNL     1       8.365  13.168  21.838  0.00  0.00    +0.000 NA
ATOM      5  C   UNL     1       8.344  14.424  21.195  0.00  0.00    +0.000 C 
ATOM      6  N   UNL     1       7.634  15.499  21.781  0.00  0.00    +0.000 N 
ATOM      7  N   UNL     1       9.026  14.618  20.123  0.00  0.00    +0.000 NA
ATOM      8  C   UNL     1       9.823  13.598  19.454  0.00  0.00    +0.000 C 
ATOM      9  C   UNL     1       9.565  13.774  17.933  0.00  0.00    +0.000 C 
ATOM     10  C   UNL     1      10.526  13.008  17.009  0.00  0.00    +0.000 C 
ATOM     11  S   UNL     1      12.250  13.556  17.223  0.00  0.00    +0.000 S 
ATOM     12  C   UNL     1      12.333  13.121  18.989  0.00  0.00    +0.000 C 
ATOM     13  C   UNL     1      11.305  13.925  19.787  0.00  0.00    +0.000 C 
ATOM     14  H   UNL     1       9.519  10.127  21.729  0.00  0.00    +0.000 HD
ATOM     15  H   UNL     1       8.512  10.885  22.962  0.00  0.00    +0.000 HD
ATOM     16  H   UNL     1       7.111  15.357  22.658  0.00  0.00    +0.000 HD
ATOM     17  H   UNL     1       7.643  16.432  21.346  0.00  0.00    +0.000 HD
ENDROOT
BRANCH   1  18
ATOM     18  O   UNL     1       9.936  11.144  19.320  0.00  0.00    +0.000 OA
BRANCH  18  19
ATOM     19  C   UNL     1       8.972  10.087  19.363  0.00  0.00    +0.000 C 
BRANCH  19  20
ATOM     20  C   UNL     1       8.330   9.677  18.022  0.00  0.00    +0.000 C 
BRANCH  20  21
ATOM     21  C   UNL     1       8.229   8.137  17.973  0.00  0.00    +0.000 C 
BRANCH  21  22
ATOM     22  O   UNL     1       7.181   7.703  17.176  0.00  0.00    +0.000 OA
BRANCH  22  26
ATOM     23  C   UNL     1       4.354   4.745  18.237  0.00  0.00    +0.000 A 
ATOM     24  C   UNL     1       5.531   4.925  18.998  0.00  0.00    +0.000 A 
ATOM     25  C   UNL     1       6.476   5.901  18.656  0.00  0.00    +0.000 A 
ATOM     26  C   UNL     1       6.284   6.733  17.535  0.00  0.00    +0.000 A 
ATOM     27  C   UNL     1       5.128   6.555  16.767  0.00  0.00    +0.000 A 
ATOM     28  C   UNL     1       4.179   5.579  17.109  0.00  0.00    +0.000 A 
BRANCH  23  30
ATOM     29  C   UNL     1       2.242   4.187  19.637  0.00  0.00    +0.000 C 
ATOM     30  C   UNL     1       3.277   3.687  18.592  0.00  0.00    +0.000 C 
ATOM     31  C   UNL     1       3.955   2.436  19.180  0.00  0.00    +0.000 C 
ATOM     32  C   UNL     1       2.491   3.294  17.321  0.00  0.00    +0.000 C 
ENDBRANCH  23  30
ENDBRANCH  22  26
ENDBRANCH  21  22
ENDBRANCH  20  21
ENDBRANCH  19  20
ENDBRANCH  18  19
ENDBRANCH   1  18
TORSDOF 7
ENDMDL
