MODEL 1
REMARK VINA RESULT:      -9.3      0.000      0.000
REMARK  Name = 
REMARK  7 active torsions:
REMARK  status: ('A' for Active; 'I' for Inactive)
REMARK    1  A    between atoms: C_1  and  C_2
REMARK    2  A    between atoms: C_2  and  C_3
REMARK    3  A    between atoms: C_2  and  C_4
REMARK    4  A    between atoms: C_4  and  C_5
REMARK    5  A    between atoms: C_4  and  N_6
REMARK    6  A    between atoms: C_7  and  C_9
REMARK    7  A    between atoms: C_9  and  N_10
REMARK                            x       y       z     vdW  Elec       q    Type
REMARK                         _______ _______ _______ _____ _____    ______ ____
ROOT
ATOM      1  N   UNL     1       5.279   4.201  17.005  0.00  0.00    +0.000 N 
ATOM      2  C   UNL     1       6.140   4.142  18.058  0.00  0.00    +0.000 C 
ATOM      3  O   UNL     1       7.286   4.551  18.075  0.00  0.00    +0.000 OA
ATOM      4  N   UNL     1       5.503   3.569  19.126  0.00  0.00    +0.000 N 
ATOM      5  C   UNL     1       4.086   3.384  18.881  0.00  0.00    +0.000 C 
ATOM      6  C   UNL     1       3.680   1.970  19.303  0.00  0.00    +0.000 C 
ATOM      7  C   UNL     1       2.171   1.765  19.269  0.00  0.00    +0.000 C 
ATOM      8  C   UNL     1       1.448   2.769  20.161  0.00  0.00    +0.000 C 
ATOM      9  C   UNL     1       1.953   4.185  20.036  0.00  0.00    +0.000 A 
ATOM     10  C   UNL     1       1.127   5.228  20.487  0.00  0.00    +0.000 A 
ATOM     11  C   UNL     1       1.530   6.558  20.389  0.00  0.00    +0.000 A 
ATOM     12  C   UNL     1       2.779   6.864  19.868  0.00  0.00    +0.000 A 
ATOM     13  C   UNL     1       3.623   5.838  19.446  0.00  0.00    +0.000 A 
ATOM     14  C   UNL     1       3.227   4.482  19.513  0.00  0.00    +0.000 A 
ATOM     15  C   UNL     1       4.081   3.617  17.341  0.00  0.00    +0.000 C 
ATOM     16  O   UNL     1       3.127   3.462  16.593  0.00  0.00    +0.000 OA
ATOM     17  H   UNL     1       5.922   3.602  20.046  0.00  0.00    +0.000 HD
ENDROOT
BRANCH   1  18
ATOM     18  C   UNL     1       5.394   5.187  15.949  0.00  0.00    +0.000 C 
BRANCH  18  20
ATOM     19  N   UNL     1       5.785   4.086  13.783  0.00  0.00    +0.000 N 
ATOM     20  C   UNL     1       6.312   4.865  14.787  0.00  0.00    +0.000 C 
ATOM     21  O   UNL     1       7.507   5.161  14.835  0.00  0.00    +0.000 OA
ATOM     22  H   UNL     1       4.830   3.751  13.865  0.00  0.00    +0.000 HD
BRANCH  19  23
ATOM     23  C   UNL     1       6.589   3.697  12.631  0.00  0.00    +0.000 C 
ATOM     24  C   UNL     1       7.375   4.909  12.123  0.00  0.00    +0.000 C 
BRANCH  23  26
ATOM     25  C   UNL     1       6.014   1.503  11.466  0.00  0.00    +0.000 C 
ATOM     26  C   UNL     1       5.756   3.013  11.519  0.00  0.00    +0.000 C 
ATOM     27  C   UNL     1       4.252   3.275  11.619  0.00  0.00    +0.000 C 
ENDBRANCH  23  26
ENDBRANCH  19  23
ENDBRANCH  18  20
ENDBRANCH   1  18
TORSDOF 4
ENDMDL
MODEL 2
REMARK VINA RESULT:      -8.1      0.678      1.159
REMARK  Name = 
REMARK  7 active torsions:
REMARK  status: ('A' for Active; 'I' for Inactive)
REMARK    1  A    between atoms: C_1  and  C_2
REMARK    2  A    between atoms: C_2  and  C_3
REMARK    3  A    between atoms: C_2  and  C_4
REMARK    4  A    between atoms: C_4  and  C_5
REMARK    5  A    between atoms: C_4  and  N_6
REMARK    6  A    between atoms: C_7  and  C_9
REMARK    7  A    between atoms: C_9  and  N_10
REMARK                            x       y       z     vdW  Elec       q    Type
REMARK                         _______ _______ _______ _____ _____    ______ ____
ROOT
ATOM      1  N   UNL     1       5.354   4.300  16.700  0.00  0.00    +0.000 N 
ATOM      2  C   UNL     1       6.274   4.238  17.702  0.00  0.00    +0.000 C 
ATOM      3  O   UNL     1       7.392   4.718  17.684  0.00  0.00    +0.000 OA
ATOM      4  N   UNL     1       5.733   3.567  18.766  0.00  0.00    +0.000 N 
ATOM      5  C   UNL     1       4.319   3.305  18.584  0.00  0.00    +0.000 C 
ATOM      6  C   UNL     1       4.024   1.847  18.942  0.00  0.00    +0.000 C 
ATOM      7  C   UNL     1       2.530   1.548  18.973  0.00  0.00    +0.000 C 
ATOM      8  C   UNL     1       1.798   2.451  19.959  0.00  0.00    +0.000 C 
ATOM      9  C   UNL     1       2.208   3.902  19.892  0.00  0.00    +0.000 A 
ATOM     10  C   UNL     1       1.345   4.863  20.446  0.00  0.00    +0.000 A 
ATOM     11  C   UNL     1       1.661   6.220  20.406  0.00  0.00    +0.000 A 
ATOM     12  C   UNL     1       2.858   6.634  19.840  0.00  0.00    +0.000 A 
ATOM     13  C   UNL     1       3.738   5.689  19.316  0.00  0.00    +0.000 A 
ATOM     14  C   UNL     1       3.430   4.309  19.322  0.00  0.00    +0.000 A 
ATOM     15  C   UNL     1       4.215   3.623  17.062  0.00  0.00    +0.000 C 
ATOM     16  O   UNL     1       3.232   3.449  16.356  0.00  0.00    +0.000 OA
ATOM     17  H   UNL     1       6.199   3.575  19.664  0.00  0.00    +0.000 HD
ENDROOT
BRANCH   1  18
ATOM     18  C   UNL     1       5.351   5.348  15.699  0.00  0.00    +0.000 C 
BRANCH  18  20
ATOM     19  N   UNL     1       4.967   4.186  13.564  0.00  0.00    +0.000 N 
ATOM     20  C   UNL     1       5.810   4.985  14.302  0.00  0.00    +0.000 C 
ATOM     21  O   UNL     1       6.949   5.268  13.926  0.00  0.00    +0.000 OA
ATOM     22  H   UNL     1       4.099   3.865  13.980  0.00  0.00    +0.000 HD
BRANCH  19  23
ATOM     23  C   UNL     1       5.324   3.757  12.218  0.00  0.00    +0.000 C 
ATOM     24  C   UNL     1       4.051   3.421  11.434  0.00  0.00    +0.000 C 
BRANCH  23  26
ATOM     25  C   UNL     1       5.825   1.374  11.461  0.00  0.00    +0.000 C 
ATOM     26  C   UNL     1       6.357   2.603  12.208  0.00  0.00    +0.000 C 
ATOM     27  C   UNL     1       7.723   2.997  11.643  0.00  0.00    +0.000 C 
ENDBRANCH  23  26
ENDBRANCH  19  23
ENDBRANCH  18  20
ENDBRANCH   1  18
TORSDOF 4
ENDMDL
MODEL 3
REMARK VINA RESULT:      -7.9      1.403      1.615
REMARK  Name = 
REMARK  7 active torsions:
REMARK  status: ('A' for Active; 'I' for Inactive)
REMARK    1  A    between atoms: C_1  and  C_2
REMARK    2  A    between atoms: C_2  and  C_3
REMARK    3  A    between atoms: C_2  and  C_4
REMARK    4  A    between atoms: C_4  and  C_5
REMARK    5  A    between atoms: C_4  and  N_6
REMARK    6  A    between atoms: C_7  and  C_9
REMARK    7  A    between atoms: C_9  and  N_10
REMARK                            x       y       z     vdW  Elec       q    Type
REMARK                         _______ _______ _______ _____ _____    ______ ____
ROOT
ATOM      1  N   UNL     1       6.418   4.577  16.534  0.00  0.00    +0.000 N 
ATOM      2  C   UNL     1       6.834   4.450  17.825  0.00  0.00    +0.000 C 
ATOM      3  O   UNL     1       7.932   4.743  18.260  0.00  0.00    +0.000 OA
ATOM      4  N   UNL     1       5.801   3.964  18.581  0.00  0.00    +0.000 N 
ATOM      5  C   UNL     1       4.556   3.918  17.841  0.00  0.00    +0.000 C 
ATOM      6  C   UNL     1       3.886   2.561  18.061  0.00  0.00    +0.000 C 
ATOM      7  C   UNL     1       2.477   2.508  17.483  0.00  0.00    +0.000 C 
ATOM      8  C   UNL     1       1.587   3.595  18.076  0.00  0.00    +0.000 C 
ATOM      9  C   UNL     1       2.243   4.951  18.168  0.00  0.00    +0.000 A 
ATOM     10  C   UNL     1       1.419   6.080  18.312  0.00  0.00    +0.000 A 
ATOM     11  C   UNL     1       1.962   7.361  18.391  0.00  0.00    +0.000 A 
ATOM     12  C   UNL     1       3.338   7.530  18.359  0.00  0.00    +0.000 A 
ATOM     13  C   UNL     1       4.170   6.416  18.249  0.00  0.00    +0.000 A 
ATOM     14  C   UNL     1       3.642   5.109  18.142  0.00  0.00    +0.000 A 
ATOM     15  C   UNL     1       5.128   4.123  16.406  0.00  0.00    +0.000 C 
ATOM     16  O   UNL     1       4.495   4.051  15.362  0.00  0.00    +0.000 OA
ATOM     17  H   UNL     1       5.863   3.972  19.591  0.00  0.00    +0.000 HD
ENDROOT
BRANCH   1  18
ATOM     18  C   UNL     1       7.004   5.527  15.609  0.00  0.00    +0.000 C 
BRANCH  18  20
ATOM     19  N   UNL     1       6.552   4.026  13.711  0.00  0.00    +0.000 N 
ATOM     20  C   UNL     1       7.342   5.032  14.217  0.00  0.00    +0.000 C 
ATOM     21  O   UNL     1       8.369   5.413  13.652  0.00  0.00    +0.000 OA
ATOM     22  H   UNL     1       5.802   3.651  14.282  0.00  0.00    +0.000 HD
BRANCH  19  23
ATOM     23  C   UNL     1       6.807   3.460  12.393  0.00  0.00    +0.000 C 
ATOM     24  C   UNL     1       6.996   4.592  11.378  0.00  0.00    +0.000 C 
BRANCH  23  26
ATOM     25  C   UNL     1       4.500   3.135  11.356  0.00  0.00    +0.000 C 
ATOM     26  C   UNL     1       5.726   2.439  11.957  0.00  0.00    +0.000 C 
ATOM     27  C   UNL     1       6.236   1.369  10.989  0.00  0.00    +0.000 C 
ENDBRANCH  23  26
ENDBRANCH  19  23
ENDBRANCH  18  20
ENDBRANCH   1  18
TORSDOF 4
ENDMDL
MODEL 4
REMARK VINA RESULT:      -7.8      1.589      2.075
REMARK  Name = 
REMARK  7 active torsions:
REMARK  status: ('A' for Active; 'I' for Inactive)
REMARK    1  A    between atoms: C_1  and  C_2
REMARK    2  A    between atoms: C_2  and  C_3
REMARK    3  A    between atoms: C_2  and  C_4
REMARK    4  A    between atoms: C_4  and  C_5
REMARK    5  A    between atoms: C_4  and  N_6
REMARK    6  A    between atoms: C_7  and  C_9
REMARK    7  A    between atoms: C_9  and  N_10
REMARK                            x       y       z     vdW  Elec       q    Type
REMARK                         _______ _______ _______ _____ _____    ______ ____
ROOT
ATOM      1  N   UNL     1       6.447   4.374  15.915  0.00  0.00    +0.000 N 
ATOM      2  C   UNL     1       7.005   4.254  17.152  0.00  0.00    +0.000 C 
ATOM      3  O   UNL     1       8.171   4.453  17.438  0.00  0.00    +0.000 OA
ATOM      4  N   UNL     1       6.034   3.896  18.047  0.00  0.00    +0.000 N 
ATOM      5  C   UNL     1       4.708   3.945  17.464  0.00  0.00    +0.000 C 
ATOM      6  C   UNL     1       3.949   2.667  17.826  0.00  0.00    +0.000 C 
ATOM      7  C   UNL     1       2.480   2.731  17.423  0.00  0.00    +0.000 C 
ATOM      8  C   UNL     1       1.774   3.919  18.067  0.00  0.00    +0.000 C 
ATOM      9  C   UNL     1       2.557   5.207  18.017  0.00  0.00    +0.000 A 
ATOM     10  C   UNL     1       1.864   6.415  18.206  0.00  0.00    +0.000 A 
ATOM     11  C   UNL     1       2.528   7.639  18.160  0.00  0.00    +0.000 A 
ATOM     12  C   UNL     1       3.900   7.673  17.956  0.00  0.00    +0.000 A 
ATOM     13  C   UNL     1       4.605   6.481  17.799  0.00  0.00    +0.000 A 
ATOM     14  C   UNL     1       3.951   5.228  17.817  0.00  0.00    +0.000 A 
ATOM     15  C   UNL     1       5.115   4.043  15.964  0.00  0.00    +0.000 C 
ATOM     16  O   UNL     1       4.355   3.997  15.007  0.00  0.00    +0.000 OA
ATOM     17  H   UNL     1       6.220   3.933  19.041  0.00  0.00    +0.000 HD
ENDROOT
BRANCH   1  18
ATOM     18  C   UNL     1       6.999   5.230  14.883  0.00  0.00    +0.000 C 
BRANCH  18  20
ATOM     19  N   UNL     1       6.006   3.760  13.177  0.00  0.00    +0.000 N 
ATOM     20  C   UNL     1       6.941   4.732  13.454  0.00  0.00    +0.000 C 
ATOM     21  O   UNL     1       7.798   5.075  12.638  0.00  0.00    +0.000 OA
ATOM     22  H   UNL     1       5.418   3.412  13.927  0.00  0.00    +0.000 HD
BRANCH  19  23
ATOM     23  C   UNL     1       5.884   3.193  11.840  0.00  0.00    +0.000 C 
ATOM     24  C   UNL     1       4.402   3.062  11.475  0.00  0.00    +0.000 C 
BRANCH  23  26
ATOM     25  C   UNL     1       5.780   0.762  11.077  0.00  0.00    +0.000 C 
ATOM     26  C   UNL     1       6.661   1.864  11.677  0.00  0.00    +0.000 C 
ATOM     27  C   UNL     1       7.949   1.994  10.860  0.00  0.00    +0.000 C 
ENDBRANCH  23  26
ENDBRANCH  19  23
ENDBRANCH  18  20
ENDBRANCH   1  18
TORSDOF 4
ENDMDL
MODEL 5
REMARK VINA RESULT:      -7.6      1.706      3.179
REMARK  Name = 
REMARK  7 active torsions:
REMARK  status: ('A' for Active; 'I' for Inactive)
REMARK    1  A    between atoms: C_1  and  C_2
REMARK    2  A    between atoms: C_2  and  C_3
REMARK    3  A    between atoms: C_2  and  C_4
REMARK    4  A    between atoms: C_4  and  C_5
REMARK    5  A    between atoms: C_4  and  N_6
REMARK    6  A    between atoms: C_7  and  C_9
REMARK    7  A    between atoms: C_9  and  N_10
REMARK                            x       y       z     vdW  Elec       q    Type
REMARK                         _______ _______ _______ _____ _____    ______ ____
ROOT
ATOM      1  N   UNL     1       5.650   6.151  17.607  0.00  0.00    +0.000 N 
ATOM      2  C   UNL     1       4.843   6.670  16.640  0.00  0.00    +0.000 C 
ATOM      3  O   UNL     1       5.188   7.029  15.530  0.00  0.00    +0.000 OA
ATOM      4  N   UNL     1       3.554   6.699  17.102  0.00  0.00    +0.000 N 
ATOM      5  C   UNL     1       3.412   6.008  18.368  0.00  0.00    +0.000 C 
ATOM      6  C   UNL     1       2.598   6.875  19.330  0.00  0.00    +0.000 C 
ATOM      7  C   UNL     1       2.231   6.135  20.610  0.00  0.00    +0.000 C 
ATOM      8  C   UNL     1       1.445   4.862  20.315  0.00  0.00    +0.000 C 
ATOM      9  C   UNL     1       2.002   4.038  19.181  0.00  0.00    +0.000 A 
ATOM     10  C   UNL     1       1.619   2.690  19.086  0.00  0.00    +0.000 A 
ATOM     11  C   UNL     1       2.107   1.873  18.067  0.00  0.00    +0.000 A 
ATOM     12  C   UNL     1       2.961   2.400  17.110  0.00  0.00    +0.000 A 
ATOM     13  C   UNL     1       3.325   3.745  17.173  0.00  0.00    +0.000 A 
ATOM     14  C   UNL     1       2.863   4.587  18.210  0.00  0.00    +0.000 A 
ATOM     15  C   UNL     1       4.920   5.884  18.739  0.00  0.00    +0.000 C 
ATOM     16  O   UNL     1       5.369   5.467  19.797  0.00  0.00    +0.000 OA
ATOM     17  H   UNL     1       2.790   6.884  16.466  0.00  0.00    +0.000 HD
ENDROOT
BRANCH   1  18
ATOM     18  C   UNL     1       6.899   5.477  17.310  0.00  0.00    +0.000 C 
BRANCH  18  20
ATOM     19  N   UNL     1       7.363   5.214  14.907  0.00  0.00    +0.000 N 
ATOM     20  C   UNL     1       6.949   4.607  16.071  0.00  0.00    +0.000 C 
ATOM     21  O   UNL     1       6.489   3.464  16.092  0.00  0.00    +0.000 OA
ATOM     22  H   UNL     1       7.598   6.201  14.921  0.00  0.00    +0.000 HD
BRANCH  19  23
ATOM     23  C   UNL     1       7.424   4.475  13.653  0.00  0.00    +0.000 C 
ATOM     24  C   UNL     1       7.798   5.429  12.515  0.00  0.00    +0.000 C 
BRANCH  23  26
ATOM     25  C   UNL     1       4.900   4.589  13.309  0.00  0.00    +0.000 C 
ATOM     26  C   UNL     1       6.129   3.675  13.363  0.00  0.00    +0.000 C 
ATOM     27  C   UNL     1       6.196   2.826  12.091  0.00  0.00    +0.000 C 
ENDBRANCH  23  26
ENDBRANCH  19  23
ENDBRANCH  18  20
ENDBRANCH   1  18
TORSDOF 4
ENDMDL
MODEL 6
REMARK VINA RESULT:      -7.5      1.080      1.544
REMARK  Name = 
REMARK  7 active torsions:
REMARK  status: ('A' for Active; 'I' for Inactive)
REMARK    1  A    between atoms: C_1  and  C_2
REMARK    2  A    between atoms: C_2  and  C_3
REMARK    3  A    between atoms: C_2  and  C_4
REMARK    4  A    between atoms: C_4  and  C_5
REMARK    5  A    between atoms: C_4  and  N_6
REMARK    6  A    between atoms: C_7  and  C_9
REMARK    7  A    between atoms: C_9  and  N_10
REMARK                            x       y       z     vdW  Elec       q    Type
REMARK                         _______ _______ _______ _____ _____    ______ ____
ROOT
ATOM      1  N   UNL     1       5.510   4.669  17.563  0.00  0.00    +0.000 N 
ATOM      2  C   UNL     1       6.196   4.412  18.711  0.00  0.00    +0.000 C 
ATOM      3  O   UNL     1       7.262   4.900  19.038  0.00  0.00    +0.000 OA
ATOM      4  N   UNL     1       5.479   3.528  19.472  0.00  0.00    +0.000 N 
ATOM      5  C   UNL     1       4.155   3.292  18.932  0.00  0.00    +0.000 C 
ATOM      6  C   UNL     1       3.875   1.788  18.917  0.00  0.00    +0.000 C 
ATOM      7  C   UNL     1       2.429   1.470  18.556  0.00  0.00    +0.000 C 
ATOM      8  C   UNL     1       1.451   2.140  19.515  0.00  0.00    +0.000 C 
ATOM      9  C   UNL     1       1.781   3.578  19.832  0.00  0.00    +0.000 A 
ATOM     10  C   UNL     1       0.766   4.393  20.361  0.00  0.00    +0.000 A 
ATOM     11  C   UNL     1       1.003   5.732  20.664  0.00  0.00    +0.000 A 
ATOM     12  C   UNL     1       2.268   6.269  20.472  0.00  0.00    +0.000 A 
ATOM     13  C   UNL     1       3.293   5.464  19.978  0.00  0.00    +0.000 A 
ATOM     14  C   UNL     1       3.072   4.110  19.640  0.00  0.00    +0.000 A 
ATOM     15  C   UNL     1       4.361   3.918  17.521  0.00  0.00    +0.000 C 
ATOM     16  O   UNL     1       3.564   3.882  16.594  0.00  0.00    +0.000 OA
ATOM     17  H   UNL     1       5.741   3.355  20.434  0.00  0.00    +0.000 HD
ENDROOT
BRANCH   1  18
ATOM     18  C   UNL     1       5.661   5.903  16.817  0.00  0.00    +0.000 C 
BRANCH  18  20
ATOM     19  N   UNL     1       5.923   4.652  14.714  0.00  0.00    +0.000 N 
ATOM     20  C   UNL     1       5.533   5.830  15.309  0.00  0.00    +0.000 C 
ATOM     21  O   UNL     1       5.245   6.835  14.657  0.00  0.00    +0.000 OA
ATOM     22  H   UNL     1       6.288   3.902  15.292  0.00  0.00    +0.000 HD
BRANCH  19  23
ATOM     23  C   UNL     1       5.865   4.485  13.267  0.00  0.00    +0.000 C 
ATOM     24  C   UNL     1       4.854   3.388  12.919  0.00  0.00    +0.000 C 
BRANCH  23  26
ATOM     25  C   UNL     1       7.197   3.174  11.532  0.00  0.00    +0.000 C 
ATOM     26  C   UNL     1       7.257   4.238  12.633  0.00  0.00    +0.000 C 
ATOM     27  C   UNL     1       7.924   5.504  12.089  0.00  0.00    +0.000 C 
ENDBRANCH  23  26
ENDBRANCH  19  23
ENDBRANCH  18  20
ENDBRANCH   1  18
TORSDOF 4
ENDMDL
MODEL 7
REMARK VINA RESULT:      -7.3      4.920      7.399
REMARK  Name = 
REMARK  7 active torsions:
REMARK  status: ('A' for Active; 'I' for Inactive)
REMARK    1  A    between atoms: C_1  and  C_2
REMARK    2  A    between atoms: C_2  and  C_3
REMARK    3  A    between atoms: C_2  and  C_4
REMARK    4  A    between atoms: C_4  and  C_5
REMARK    5  A    between atoms: C_4  and  N_6
REMARK    6  A    between atoms: C_7  and  C_9
REMARK    7  A    between atoms: C_9  and  N_10
REMARK                            x       y       z     vdW  Elec       q    Type
REMARK                         _______ _______ _______ _____ _____    ______ ____
ROOT
ATOM      1  N   UNL     1       1.708   8.757  19.016  0.00  0.00    +0.000 N 
ATOM      2  C   UNL     1       2.161   9.391  17.899  0.00  0.00    +0.000 C 
ATOM      3  O   UNL     1       2.829   8.896  17.010  0.00  0.00    +0.000 OA
ATOM      4  N   UNL     1       1.719  10.687  17.910  0.00  0.00    +0.000 N 
ATOM      5  C   UNL     1       0.768  10.931  18.976  0.00  0.00    +0.000 C 
ATOM      6  C   UNL     1       1.142  12.224  19.703  0.00  0.00    +0.000 C 
ATOM      7  C   UNL     1       0.077  12.657  20.703  0.00  0.00    +0.000 C 
ATOM      8  C   UNL     1      -1.278  12.848  20.030  0.00  0.00    +0.000 C 
ATOM      9  C   UNL     1      -1.649  11.753  19.061  0.00  0.00    +0.000 A 
ATOM     10  C   UNL     1      -3.000  11.613  18.700  0.00  0.00    +0.000 A 
ATOM     11  C   UNL     1      -3.409  10.615  17.818  0.00  0.00    +0.000 A 
ATOM     12  C   UNL     1      -2.469   9.761  17.259  0.00  0.00    +0.000 A 
ATOM     13  C   UNL     1      -1.121   9.908  17.583  0.00  0.00    +0.000 A 
ATOM     14  C   UNL     1      -0.684  10.898  18.493  0.00  0.00    +0.000 A 
ATOM     15  C   UNL     1       1.011   9.637  19.808  0.00  0.00    +0.000 C 
ATOM     16  O   UNL     1       0.530   9.385  20.904  0.00  0.00    +0.000 OA
ATOM     17  H   UNL     1       1.805  11.261  17.081  0.00  0.00    +0.000 HD
ENDROOT
BRANCH   1  18
ATOM     18  C   UNL     1       1.502   7.324  19.077  0.00  0.00    +0.000 C 
BRANCH  18  20
ATOM     19  N   UNL     1       3.095   5.937  17.815  0.00  0.00    +0.000 N 
ATOM     20  C   UNL     1       2.730   6.437  19.044  0.00  0.00    +0.000 C 
ATOM     21  O   UNL     1       3.263   6.069  20.092  0.00  0.00    +0.000 OA
ATOM     22  H   UNL     1       2.532   6.162  17.001  0.00  0.00    +0.000 HD
BRANCH  19  23
ATOM     23  C   UNL     1       4.246   5.053  17.674  0.00  0.00    +0.000 C 
ATOM     24  C   UNL     1       5.053   5.458  16.436  0.00  0.00    +0.000 C 
BRANCH  23  26
ATOM     25  C   UNL     1       4.162   2.888  19.018  0.00  0.00    +0.000 C 
ATOM     26  C   UNL     1       3.857   3.554  17.672  0.00  0.00    +0.000 C 
ATOM     27  C   UNL     1       2.399   3.291  17.288  0.00  0.00    +0.000 C 
ENDBRANCH  23  26
ENDBRANCH  19  23
ENDBRANCH  18  20
ENDBRANCH   1  18
TORSDOF 4
ENDMDL
MODEL 8
REMARK VINA RESULT:      -7.1     10.103     12.306
REMARK  Name = 
REMARK  7 active torsions:
REMARK  status: ('A' for Active; 'I' for Inactive)
REMARK    1  A    between atoms: C_1  and  C_2
REMARK    2  A    between atoms: C_2  and  C_3
REMARK    3  A    between atoms: C_2  and  C_4
REMARK    4  A    between atoms: C_4  and  C_5
REMARK    5  A    between atoms: C_4  and  N_6
REMARK    6  A    between atoms: C_7  and  C_9
REMARK    7  A    between atoms: C_9  and  N_10
REMARK                            x       y       z     vdW  Elec       q    Type
REMARK                         _______ _______ _______ _____ _____    ______ ____
ROOT
ATOM      1  N   UNL     1      10.019  15.146  17.733  0.00  0.00    +0.000 N 
ATOM      2  C   UNL     1      11.336  15.088  18.076  0.00  0.00    +0.000 C 
ATOM      3  O   UNL     1      12.135  16.005  18.025  0.00  0.00    +0.000 OA
ATOM      4  N   UNL     1      11.626  13.828  18.524  0.00  0.00    +0.000 N 
ATOM      5  C   UNL     1      10.436  13.016  18.680  0.00  0.00    +0.000 C 
ATOM      6  C   UNL     1      10.674  11.642  18.050  0.00  0.00    +0.000 C 
ATOM      7  C   UNL     1       9.546  10.662  18.352  0.00  0.00    +0.000 C 
ATOM      8  C   UNL     1       9.344  10.484  19.852  0.00  0.00    +0.000 C 
ATOM      9  C   UNL     1       9.364  11.772  20.637  0.00  0.00    +0.000 A 
ATOM     10  C   UNL     1       8.802  11.776  21.925  0.00  0.00    +0.000 A 
ATOM     11  C   UNL     1       8.779  12.936  22.697  0.00  0.00    +0.000 A 
ATOM     12  C   UNL     1       9.345  14.103  22.205  0.00  0.00    +0.000 A 
ATOM     13  C   UNL     1       9.935  14.107  20.942  0.00  0.00    +0.000 A 
ATOM     14  C   UNL     1       9.949  12.949  20.130  0.00  0.00    +0.000 A 
ATOM     15  C   UNL     1       9.435  13.914  17.894  0.00  0.00    +0.000 C 
ATOM     16  O   UNL     1       8.278  13.630  17.616  0.00  0.00    +0.000 OA
ATOM     17  H   UNL     1      12.506  13.642  18.988  0.00  0.00    +0.000 HD
ENDROOT
BRANCH   1  18
ATOM     18  C   UNL     1       9.256  16.378  17.752  0.00  0.00    +0.000 C 
BRANCH  18  20
ATOM     19  N   UNL     1       6.939  16.174  18.556  0.00  0.00    +0.000 N 
ATOM     20  C   UNL     1       8.229  16.550  18.853  0.00  0.00    +0.000 C 
ATOM     21  O   UNL     1       8.522  17.141  19.893  0.00  0.00    +0.000 OA
ATOM     22  H   UNL     1       6.727  15.821  17.629  0.00  0.00    +0.000 HD
BRANCH  19  23
ATOM     23  C   UNL     1       5.868  16.321  19.534  0.00  0.00    +0.000 C 
ATOM     24  C   UNL     1       5.852  15.101  20.461  0.00  0.00    +0.000 C 
BRANCH  23  26
ATOM     25  C   UNL     1       4.141  15.539  17.829  0.00  0.00    +0.000 C 
ATOM     26  C   UNL     1       4.491  16.597  18.882  0.00  0.00    +0.000 C 
ATOM     27  C   UNL     1       3.342  16.722  19.886  0.00  0.00    +0.000 C 
ENDBRANCH  23  26
ENDBRANCH  19  23
ENDBRANCH  18  20
ENDBRANCH   1  18
TORSDOF 4
ENDMDL
MODEL 9
REMARK VINA RESULT:      -7.1      5.861      8.648
REMARK  Name = 
REMARK  7 active torsions:
REMARK  status: ('A' for Active; 'I' for Inactive)
REMARK    1  A    between atoms: C_1  and  C_2
REMARK    2  A    between atoms: C_2  and  C_3
REMARK    3  A    between atoms: C_2  and  C_4
REMARK    4  A    between atoms: C_4  and  C_5
REMARK    5  A    between atoms: C_4  and  N_6
REMARK    6  A    between atoms: C_7  and  C_9
REMARK    7  A    between atoms: C_9  and  N_10
REMARK                            x       y       z     vdW  Elec       q    Type
REMARK                         _______ _______ _______ _____ _____    ______ ____
ROOT
ATOM      1  N   UNL     1       1.122   9.999  18.965  0.00  0.00    +0.000 N 
ATOM      2  C   UNL     1       1.571  11.124  18.341  0.00  0.00    +0.000 C 
ATOM      3  O   UNL     1       2.534  11.201  17.601  0.00  0.00    +0.000 OA
ATOM      4  N   UNL     1       0.744  12.169  18.654  0.00  0.00    +0.000 N 
ATOM      5  C   UNL     1      -0.437  11.735  19.374  0.00  0.00    +0.000 C 
ATOM      6  C   UNL     1      -0.660  12.650  20.579  0.00  0.00    +0.000 C 
ATOM      7  C   UNL     1      -1.994  12.387  21.268  0.00  0.00    +0.000 C 
ATOM      8  C   UNL     1      -3.165  12.552  20.306  0.00  0.00    +0.000 C 
ATOM      9  C   UNL     1      -2.951  11.913  18.956  0.00  0.00    +0.000 A 
ATOM     10  C   UNL     1      -4.077  11.654  18.156  0.00  0.00    +0.000 A 
ATOM     11  C   UNL     1      -3.947  11.057  16.904  0.00  0.00    +0.000 A 
ATOM     12  C   UNL     1      -2.688  10.737  16.418  0.00  0.00    +0.000 A 
ATOM     13  C   UNL     1      -1.559  11.017  17.187  0.00  0.00    +0.000 A 
ATOM     14  C   UNL     1      -1.665  11.601  18.470  0.00  0.00    +0.000 A 
ATOM     15  C   UNL     1       0.029  10.295  19.743  0.00  0.00    +0.000 C 
ATOM     16  O   UNL     1      -0.565   9.511  20.469  0.00  0.00    +0.000 OA
ATOM     17  H   UNL     1       0.812  13.042  18.147  0.00  0.00    +0.000 HD
ENDROOT
BRANCH   1  18
ATOM     18  C   UNL     1       1.380   8.665  18.461  0.00  0.00    +0.000 C 
BRANCH  18  20
ATOM     19  N   UNL     1       2.509   6.510  18.834  0.00  0.00    +0.000 N 
ATOM     20  C   UNL     1       2.055   7.682  19.395  0.00  0.00    +0.000 C 
ATOM     21  O   UNL     1       2.045   7.870  20.613  0.00  0.00    +0.000 OA
ATOM     22  H   UNL     1       2.363   6.347  17.843  0.00  0.00    +0.000 HD
BRANCH  19  23
ATOM     23  C   UNL     1       3.150   5.485  19.647  0.00  0.00    +0.000 C 
ATOM     24  C   UNL     1       4.622   5.356  19.241  0.00  0.00    +0.000 C 
BRANCH  23  26
ATOM     25  C   UNL     1       1.389   4.016  20.761  0.00  0.00    +0.000 C 
ATOM     26  C   UNL     1       2.398   4.132  19.613  0.00  0.00    +0.000 C 
ATOM     27  C   UNL     1       1.699   3.843  18.282  0.00  0.00    +0.000 C 
ENDBRANCH  23  26
ENDBRANCH  19  23
ENDBRANCH  18  20
ENDBRANCH   1  18
TORSDOF 4
ENDMDL
