MODEL 1
REMARK VINA RESULT:      -6.7      0.000      0.000
REMARK  Name = 
REMARK  14 active torsions:
REMARK  status: ('A' for Active; 'I' for Inactive)
REMARK    1  A    between atoms: C_1  and  C_2
REMARK    2  A    between atoms: C_2  and  C_3
REMARK    3  A    between atoms: C_3  and  O_5
REMARK    4  A    between atoms: O_5  and  C_6
REMARK    5  A    between atoms: C_6  and  C_7
REMARK    6  A    between atoms: C_7  and  N_8
REMARK    7  A    between atoms: C_7  and  C_17
REMARK    8  A    between atoms: C_9  and  C_11
REMARK    9  A    between atoms: C_11  and  N_12
REMARK   10  A    between atoms: C_11  and  C_13
REMARK   11  A    between atoms: C_13  and  C_14
REMARK   12  A    between atoms: C_14  and  O_16
REMARK   13  A    between atoms: C_17  and  C_18
REMARK   14  A    between atoms: C_17  and  C_19
REMARK                            x       y       z     vdW  Elec       q    Type
REMARK                         _______ _______ _______ _____ _____    ______ ____
ROOT
ATOM      1  N   UNL     1       5.652   4.812  18.332  0.00  0.00    +0.000 N 
ATOM      2  C   UNL     1       4.294   4.657  18.524  0.00  0.00    +0.000 C 
ATOM      3  O   UNL     1       3.440   5.241  17.869  0.00  0.00    +0.000 OA
ATOM      4  H   UNL     1       6.245   4.332  19.010  0.00  0.00    +0.000 HD
ENDROOT
BRANCH   1   5
ATOM      5  C   UNL     1       6.234   5.649  17.286  0.00  0.00    +0.000 C 
BRANCH   5   6
ATOM      6  C   UNL     1       7.583   6.257  17.751  0.00  0.00    +0.000 C 
ATOM      7  C   UNL     1       7.603   7.780  17.590  0.00  0.00    +0.000 C 
ATOM      8  C   UNL     1       7.939   5.892  19.195  0.00  0.00    +0.000 C 
ENDBRANCH   5   6
BRANCH   5   9
ATOM      9  C   UNL     1       6.358   4.872  15.954  0.00  0.00    +0.000 C 
BRANCH   9  10
ATOM     10  O   UNL     1       7.431   5.385  15.142  0.00  0.00    +0.000 OA
BRANCH  10  11
ATOM     11  C   UNL     1       7.362   5.054  13.827  0.00  0.00    +0.000 C 
ATOM     12  O   UNL     1       8.033   5.563  12.933  0.00  0.00    +0.000 OA
BRANCH  11  14
ATOM     13  C   UNL     1       6.342   3.459  12.185  0.00  0.00    +0.000 C 
ATOM     14  C   UNL     1       6.342   3.949  13.621  0.00  0.00    +0.000 C 
ENDBRANCH  11  14
ENDBRANCH  10  11
ENDBRANCH   9  10
ENDBRANCH   5   9
ENDBRANCH   1   5
BRANCH   2  15
ATOM     15  C   UNL     1       3.949   3.692  19.685  0.00  0.00    +0.000 C 
BRANCH  15  16
ATOM     16  N   UNL     1       4.345   2.314  19.299  0.00  0.00    +0.000 NA
ATOM     17  H   UNL     1       4.069   1.676  20.042  0.00  0.00    +0.000 HD
ATOM     18  H   UNL     1       5.377   2.284  19.299  0.00  0.00    +0.000 HD
ENDBRANCH  15  16
BRANCH  15  19
ATOM     19  C   UNL     1       2.461   3.841  20.020  0.00  0.00    +0.000 C 
BRANCH  19  20
ATOM     20  C   UNL     1       2.043   3.007  21.203  0.00  0.00    +0.000 C 
ATOM     21  O   UNL     1       2.821   2.503  21.998  0.00  0.00    +0.000 OA
BRANCH  20  22
ATOM     22  O   UNL     1       0.712   2.800  21.272  0.00  0.00    +0.000 OA
ATOM     23  H   UNL     1       0.183   3.342  20.657  0.00  0.00    +0.000 HD
ENDBRANCH  20  22
ENDBRANCH  19  20
ENDBRANCH  15  19
ENDBRANCH   2  15
TORSDOF 11
ENDMDL
MODEL 2
REMARK VINA RESULT:      -6.7      1.743      1.988
REMARK  Name = 
REMARK  14 active torsions:
REMARK  status: ('A' for Active; 'I' for Inactive)
REMARK    1  A    between atoms: C_1  and  C_2
REMARK    2  A    between atoms: C_2  and  C_3
REMARK    3  A    between atoms: C_3  and  O_5
REMARK    4  A    between atoms: O_5  and  C_6
REMARK    5  A    between atoms: C_6  and  C_7
REMARK    6  A    between atoms: C_7  and  N_8
REMARK    7  A    between atoms: C_7  and  C_17
REMARK    8  A    between atoms: C_9  and  C_11
REMARK    9  A    between atoms: C_11  and  N_12
REMARK   10  A    between atoms: C_11  and  C_13
REMARK   11  A    between atoms: C_13  and  C_14
REMARK   12  A    between atoms: C_14  and  O_16
REMARK   13  A    between atoms: C_17  and  C_18
REMARK   14  A    between atoms: C_17  and  C_19
REMARK                            x       y       z     vdW  Elec       q    Type
REMARK                         _______ _______ _______ _____ _____    ______ ____
ROOT
ATOM      1  N   UNL     1       5.373   5.283  18.266  0.00  0.00    +0.000 N 
ATOM      2  C   UNL     1       4.147   5.224  18.898  0.00  0.00    +0.000 C 
ATOM      3  O   UNL     1       3.330   6.136  18.892  0.00  0.00    +0.000 OA
ATOM      4  H   UNL     1       5.987   4.484  18.432  0.00  0.00    +0.000 HD
ENDROOT
BRANCH   1   5
ATOM      5  C   UNL     1       5.820   6.420  17.465  0.00  0.00    +0.000 C 
BRANCH   5   6
ATOM      6  C   UNL     1       7.344   6.654  17.639  0.00  0.00    +0.000 C 
ATOM      7  C   UNL     1       7.697   8.144  17.587  0.00  0.00    +0.000 C 
ATOM      8  C   UNL     1       7.900   6.043  18.928  0.00  0.00    +0.000 C 
ENDBRANCH   5   6
BRANCH   5   9
ATOM      9  C   UNL     1       5.408   6.255  15.983  0.00  0.00    +0.000 C 
BRANCH   9  10
ATOM     10  O   UNL     1       6.479   5.702  15.196  0.00  0.00    +0.000 OA
BRANCH  10  11
ATOM     11  C   UNL     1       6.325   4.396  14.858  0.00  0.00    +0.000 C 
ATOM     12  O   UNL     1       5.922   3.513  15.609  0.00  0.00    +0.000 OA
BRANCH  11  14
ATOM     13  C   UNL     1       5.634   3.433  12.650  0.00  0.00    +0.000 C 
ATOM     14  C   UNL     1       6.713   4.186  13.405  0.00  0.00    +0.000 C 
ENDBRANCH  11  14
ENDBRANCH  10  11
ENDBRANCH   9  10
ENDBRANCH   5   9
ENDBRANCH   1   5
BRANCH   2  15
ATOM     15  C   UNL     1       3.917   3.894  19.657  0.00  0.00    +0.000 C 
BRANCH  15  16
ATOM     16  N   UNL     1       4.894   2.887  19.171  0.00  0.00    +0.000 NA
ATOM     17  H   UNL     1       5.751   3.366  18.906  0.00  0.00    +0.000 HD
ATOM     18  H   UNL     1       4.522   2.507  18.286  0.00  0.00    +0.000 HD
ENDBRANCH  15  16
BRANCH  15  19
ATOM     19  C   UNL     1       2.453   3.476  19.480  0.00  0.00    +0.000 C 
BRANCH  19  20
ATOM     20  C   UNL     1       2.131   3.068  18.067  0.00  0.00    +0.000 C 
ATOM     21  O   UNL     1       2.546   2.052  17.532  0.00  0.00    +0.000 OA
BRANCH  20  22
ATOM     22  O   UNL     1       1.384   3.975  17.402  0.00  0.00    +0.000 OA
ATOM     23  H   UNL     1       0.521   4.170  17.811  0.00  0.00    +0.000 HD
ENDBRANCH  20  22
ENDBRANCH  19  20
ENDBRANCH  15  19
ENDBRANCH   2  15
TORSDOF 11
ENDMDL
MODEL 3
REMARK VINA RESULT:      -6.7      1.547      1.946
REMARK  Name = 
REMARK  14 active torsions:
REMARK  status: ('A' for Active; 'I' for Inactive)
REMARK    1  A    between atoms: C_1  and  C_2
REMARK    2  A    between atoms: C_2  and  C_3
REMARK    3  A    between atoms: C_3  and  O_5
REMARK    4  A    between atoms: O_5  and  C_6
REMARK    5  A    between atoms: C_6  and  C_7
REMARK    6  A    between atoms: C_7  and  N_8
REMARK    7  A    between atoms: C_7  and  C_17
REMARK    8  A    between atoms: C_9  and  C_11
REMARK    9  A    between atoms: C_11  and  N_12
REMARK   10  A    between atoms: C_11  and  C_13
REMARK   11  A    between atoms: C_13  and  C_14
REMARK   12  A    between atoms: C_14  and  O_16
REMARK   13  A    between atoms: C_17  and  C_18
REMARK   14  A    between atoms: C_17  and  C_19
REMARK                            x       y       z     vdW  Elec       q    Type
REMARK                         _______ _______ _______ _____ _____    ______ ____
ROOT
ATOM      1  N   UNL     1       4.436   3.908  17.672  0.00  0.00    +0.000 N 
ATOM      2  C   UNL     1       3.244   3.217  17.734  0.00  0.00    +0.000 C 
ATOM      3  O   UNL     1       2.409   3.212  16.838  0.00  0.00    +0.000 OA
ATOM      4  H   UNL     1       4.992   3.894  18.528  0.00  0.00    +0.000 HD
ENDROOT
BRANCH   1   5
ATOM      5  C   UNL     1       4.873   4.673  16.506  0.00  0.00    +0.000 C 
BRANCH   5   6
ATOM      6  C   UNL     1       4.929   6.189  16.828  0.00  0.00    +0.000 C 
ATOM      7  C   UNL     1       3.788   6.613  17.757  0.00  0.00    +0.000 C 
ATOM      8  C   UNL     1       6.267   6.623  17.432  0.00  0.00    +0.000 C 
ENDBRANCH   5   6
BRANCH   5   9
ATOM      9  C   UNL     1       6.212   4.131  15.952  0.00  0.00    +0.000 C 
BRANCH   9  10
ATOM     10  O   UNL     1       6.048   3.561  14.640  0.00  0.00    +0.000 OA
BRANCH  10  11
ATOM     11  C   UNL     1       6.656   4.246  13.639  0.00  0.00    +0.000 C 
ATOM     12  O   UNL     1       7.281   5.295  13.776  0.00  0.00    +0.000 OA
BRANCH  11  14
ATOM     13  C   UNL     1       4.993   3.349  11.993  0.00  0.00    +0.000 C 
ATOM     14  C   UNL     1       6.464   3.521  12.320  0.00  0.00    +0.000 C 
ENDBRANCH  11  14
ENDBRANCH  10  11
ENDBRANCH   9  10
ENDBRANCH   5   9
ENDBRANCH   1   5
BRANCH   2  15
ATOM     15  C   UNL     1       3.041   2.470  19.076  0.00  0.00    +0.000 C 
BRANCH  15  16
ATOM     16  N   UNL     1       1.935   1.491  18.919  0.00  0.00    +0.000 NA
ATOM     17  H   UNL     1       1.108   1.984  18.592  0.00  0.00    +0.000 HD
ATOM     18  H   UNL     1       1.686   1.162  19.866  0.00  0.00    +0.000 HD
ENDBRANCH  15  16
BRANCH  15  19
ATOM     19  C   UNL     1       2.805   3.505  20.181  0.00  0.00    +0.000 C 
BRANCH  19  20
ATOM     20  C   UNL     1       1.561   3.225  20.984  0.00  0.00    +0.000 C 
ATOM     21  O   UNL     1       1.544   2.599  22.032  0.00  0.00    +0.000 OA
BRANCH  20  22
ATOM     22  O   UNL     1       0.431   3.675  20.399  0.00  0.00    +0.000 OA
ATOM     23  H   UNL     1       0.411   4.636  20.238  0.00  0.00    +0.000 HD
ENDBRANCH  20  22
ENDBRANCH  19  20
ENDBRANCH  15  19
ENDBRANCH   2  15
TORSDOF 11
ENDMDL
MODEL 4
REMARK VINA RESULT:      -6.7      2.143      6.588
REMARK  Name = 
REMARK  14 active torsions:
REMARK  status: ('A' for Active; 'I' for Inactive)
REMARK    1  A    between atoms: C_1  and  C_2
REMARK    2  A    between atoms: C_2  and  C_3
REMARK    3  A    between atoms: C_3  and  O_5
REMARK    4  A    between atoms: O_5  and  C_6
REMARK    5  A    between atoms: C_6  and  C_7
REMARK    6  A    between atoms: C_7  and  N_8
REMARK    7  A    between atoms: C_7  and  C_17
REMARK    8  A    between atoms: C_9  and  C_11
REMARK    9  A    between atoms: C_11  and  N_12
REMARK   10  A    between atoms: C_11  and  C_13
REMARK   11  A    between atoms: C_13  and  C_14
REMARK   12  A    between atoms: C_14  and  O_16
REMARK   13  A    between atoms: C_17  and  C_18
REMARK   14  A    between atoms: C_17  and  C_19
REMARK                            x       y       z     vdW  Elec       q    Type
REMARK                         _______ _______ _______ _____ _____    ______ ____
ROOT
ATOM      1  N   UNL     1       4.558   5.221  17.858  0.00  0.00    +0.000 N 
ATOM      2  C   UNL     1       5.616   4.503  18.378  0.00  0.00    +0.000 C 
ATOM      3  O   UNL     1       5.529   3.763  19.350  0.00  0.00    +0.000 OA
ATOM      4  H   UNL     1       4.797   5.864  17.103  0.00  0.00    +0.000 HD
ENDROOT
BRANCH   1   5
ATOM      5  C   UNL     1       3.192   5.140  18.372  0.00  0.00    +0.000 C 
BRANCH   5   6
ATOM      6  C   UNL     1       2.533   6.544  18.413  0.00  0.00    +0.000 C 
ATOM      7  C   UNL     1       2.264   7.001  19.850  0.00  0.00    +0.000 C 
ATOM      8  C   UNL     1       3.354   7.612  17.684  0.00  0.00    +0.000 C 
ENDBRANCH   5   6
BRANCH   5   9
ATOM      9  C   UNL     1       2.355   4.112  17.574  0.00  0.00    +0.000 C 
BRANCH   9  10
ATOM     10  O   UNL     1       1.243   3.624  18.347  0.00  0.00    +0.000 OA
BRANCH  10  11
ATOM     11  C   UNL     1       1.565   2.710  19.298  0.00  0.00    +0.000 C 
ATOM     12  O   UNL     1       2.213   1.685  19.104  0.00  0.00    +0.000 OA
BRANCH  11  14
ATOM     13  C   UNL     1       2.134   3.526  21.598  0.00  0.00    +0.000 C 
ATOM     14  C   UNL     1       1.017   3.145  20.645  0.00  0.00    +0.000 C 
ENDBRANCH  11  14
ENDBRANCH  10  11
ENDBRANCH   9  10
ENDBRANCH   5   9
ENDBRANCH   1   5
BRANCH   2  15
ATOM     15  C   UNL     1       6.948   4.754  17.629  0.00  0.00    +0.000 C 
BRANCH  15  16
ATOM     16  N   UNL     1       7.260   6.205  17.676  0.00  0.00    +0.000 NA
ATOM     17  H   UNL     1       6.491   6.688  18.134  0.00  0.00    +0.000 HD
ATOM     18  H   UNL     1       7.243   6.550  16.702  0.00  0.00    +0.000 HD
ENDBRANCH  15  16
BRANCH  15  19
ATOM     19  C   UNL     1       6.827   4.189  16.210  0.00  0.00    +0.000 C 
BRANCH  19  20
ATOM     20  C   UNL     1       6.861   5.260  15.152  0.00  0.00    +0.000 C 
ATOM     21  O   UNL     1       7.836   5.517  14.463  0.00  0.00    +0.000 OA
BRANCH  20  22
ATOM     22  O   UNL     1       5.720   5.977  15.075  0.00  0.00    +0.000 OA
ATOM     23  H   UNL     1       5.009   5.675  15.670  0.00  0.00    +0.000 HD
ENDBRANCH  20  22
ENDBRANCH  19  20
ENDBRANCH  15  19
ENDBRANCH   2  15
TORSDOF 11
ENDMDL
MODEL 5
REMARK VINA RESULT:      -6.6      2.261      6.599
REMARK  Name = 
REMARK  14 active torsions:
REMARK  status: ('A' for Active; 'I' for Inactive)
REMARK    1  A    between atoms: C_1  and  C_2
REMARK    2  A    between atoms: C_2  and  C_3
REMARK    3  A    between atoms: C_3  and  O_5
REMARK    4  A    between atoms: O_5  and  C_6
REMARK    5  A    between atoms: C_6  and  C_7
REMARK    6  A    between atoms: C_7  and  N_8
REMARK    7  A    between atoms: C_7  and  C_17
REMARK    8  A    between atoms: C_9  and  C_11
REMARK    9  A    between atoms: C_11  and  N_12
REMARK   10  A    between atoms: C_11  and  C_13
REMARK   11  A    between atoms: C_13  and  C_14
REMARK   12  A    between atoms: C_14  and  O_16
REMARK   13  A    between atoms: C_17  and  C_18
REMARK   14  A    between atoms: C_17  and  C_19
REMARK                            x       y       z     vdW  Elec       q    Type
REMARK                         _______ _______ _______ _____ _____    ______ ____
ROOT
ATOM      1  N   UNL     1       4.258   4.828  17.437  0.00  0.00    +0.000 N 
ATOM      2  C   UNL     1       5.479   4.297  17.801  0.00  0.00    +0.000 C 
ATOM      3  O   UNL     1       5.791   4.028  18.955  0.00  0.00    +0.000 OA
ATOM      4  H   UNL     1       4.172   5.084  16.453  0.00  0.00    +0.000 HD
ENDROOT
BRANCH   1   5
ATOM      5  C   UNL     1       3.169   5.080  18.378  0.00  0.00    +0.000 C 
BRANCH   5   6
ATOM      6  C   UNL     1       3.209   6.543  18.891  0.00  0.00    +0.000 C 
ATOM      7  C   UNL     1       3.058   7.549  17.746  0.00  0.00    +0.000 C 
ATOM      8  C   UNL     1       2.155   6.830  19.964  0.00  0.00    +0.000 C 
ENDBRANCH   5   6
BRANCH   5   9
ATOM      9  C   UNL     1       1.801   4.701  17.762  0.00  0.00    +0.000 C 
BRANCH   9  10
ATOM     10  O   UNL     1       1.691   3.281  17.555  0.00  0.00    +0.000 OA
BRANCH  10  11
ATOM     11  C   UNL     1       1.837   2.526  18.674  0.00  0.00    +0.000 C 
ATOM     12  O   UNL     1       2.705   1.675  18.846  0.00  0.00    +0.000 OA
BRANCH  11  14
ATOM     13  C   UNL     1       1.359   2.981  21.092  0.00  0.00    +0.000 C 
ATOM     14  C   UNL     1       0.776   2.898  19.694  0.00  0.00    +0.000 C 
ENDBRANCH  11  14
ENDBRANCH  10  11
ENDBRANCH   9  10
ENDBRANCH   5   9
ENDBRANCH   1   5
BRANCH   2  15
ATOM     15  C   UNL     1       6.443   4.107  16.604  0.00  0.00    +0.000 C 
BRANCH  15  16
ATOM     16  N   UNL     1       7.827   4.414  17.048  0.00  0.00    +0.000 NA
ATOM     17  H   UNL     1       8.000   3.935  17.928  0.00  0.00    +0.000 HD
ATOM     18  H   UNL     1       7.853   5.419  17.287  0.00  0.00    +0.000 HD
ENDBRANCH  15  16
BRANCH  15  19
ATOM     19  C   UNL     1       5.955   4.978  15.441  0.00  0.00    +0.000 C 
BRANCH  19  20
ATOM     20  C   UNL     1       6.775   4.791  14.191  0.00  0.00    +0.000 C 
ATOM     21  O   UNL     1       6.494   4.012  13.293  0.00  0.00    +0.000 OA
BRANCH  20  22
ATOM     22  O   UNL     1       7.909   5.522  14.177  0.00  0.00    +0.000 OA
ATOM     23  H   UNL     1       7.774   6.485  14.250  0.00  0.00    +0.000 HD
ENDBRANCH  20  22
ENDBRANCH  19  20
ENDBRANCH  15  19
ENDBRANCH   2  15
TORSDOF 11
ENDMDL
MODEL 6
REMARK VINA RESULT:      -6.6      2.230      6.087
REMARK  Name = 
REMARK  14 active torsions:
REMARK  status: ('A' for Active; 'I' for Inactive)
REMARK    1  A    between atoms: C_1  and  C_2
REMARK    2  A    between atoms: C_2  and  C_3
REMARK    3  A    between atoms: C_3  and  O_5
REMARK    4  A    between atoms: O_5  and  C_6
REMARK    5  A    between atoms: C_6  and  C_7
REMARK    6  A    between atoms: C_7  and  N_8
REMARK    7  A    between atoms: C_7  and  C_17
REMARK    8  A    between atoms: C_9  and  C_11
REMARK    9  A    between atoms: C_11  and  N_12
REMARK   10  A    between atoms: C_11  and  C_13
REMARK   11  A    between atoms: C_13  and  C_14
REMARK   12  A    between atoms: C_14  and  O_16
REMARK   13  A    between atoms: C_17  and  C_18
REMARK   14  A    between atoms: C_17  and  C_19
REMARK                            x       y       z     vdW  Elec       q    Type
REMARK                         _______ _______ _______ _____ _____    ______ ____
ROOT
ATOM      1  N   UNL     1       5.314   5.543  18.684  0.00  0.00    +0.000 N 
ATOM      2  C   UNL     1       6.673   5.581  18.923  0.00  0.00    +0.000 C 
ATOM      3  O   UNL     1       7.177   5.426  20.028  0.00  0.00    +0.000 OA
ATOM      4  H   UNL     1       5.034   5.778  17.731  0.00  0.00    +0.000 HD
ENDROOT
BRANCH   1   5
ATOM      5  C   UNL     1       4.316   5.257  19.712  0.00  0.00    +0.000 C 
BRANCH   5   6
ATOM      6  C   UNL     1       3.033   6.099  19.487  0.00  0.00    +0.000 C 
ATOM      7  C   UNL     1       2.639   6.145  18.007  0.00  0.00    +0.000 C 
ATOM      8  C   UNL     1       1.843   5.610  20.317  0.00  0.00    +0.000 C 
ENDBRANCH   5   6
BRANCH   5   9
ATOM      9  C   UNL     1       4.026   3.740  19.801  0.00  0.00    +0.000 C 
BRANCH   9  10
ATOM     10  O   UNL     1       4.259   3.083  18.541  0.00  0.00    +0.000 OA
BRANCH  10  11
ATOM     11  C   UNL     1       3.455   2.018  18.293  0.00  0.00    +0.000 C 
ATOM     12  O   UNL     1       3.749   0.844  18.507  0.00  0.00    +0.000 OA
BRANCH  11  14
ATOM     13  C   UNL     1       1.000   2.291  18.720  0.00  0.00    +0.000 C 
ATOM     14  C   UNL     1       2.128   2.487  17.725  0.00  0.00    +0.000 C 
ENDBRANCH  11  14
ENDBRANCH  10  11
ENDBRANCH   9  10
ENDBRANCH   5   9
ENDBRANCH   1   5
BRANCH   2  15
ATOM     15  C   UNL     1       7.507   5.879  17.653  0.00  0.00    +0.000 C 
BRANCH  15  16
ATOM     16  N   UNL     1       7.033   7.152  17.055  0.00  0.00    +0.000 NA
ATOM     17  H   UNL     1       6.070   7.031  16.751  0.00  0.00    +0.000 HD
ATOM     18  H   UNL     1       7.567   7.294  16.181  0.00  0.00    +0.000 HD
ENDBRANCH  15  16
BRANCH  15  19
ATOM     19  C   UNL     1       7.412   4.675  16.710  0.00  0.00    +0.000 C 
BRANCH  19  20
ATOM     20  C   UNL     1       6.821   5.029  15.370  0.00  0.00    +0.000 C 
ATOM     21  O   UNL     1       7.479   5.324  14.384  0.00  0.00    +0.000 OA
BRANCH  20  22
ATOM     22  O   UNL     1       5.472   5.064  15.370  0.00  0.00    +0.000 OA
ATOM     23  H   UNL     1       5.051   4.527  16.065  0.00  0.00    +0.000 HD
ENDBRANCH  20  22
ENDBRANCH  19  20
ENDBRANCH  15  19
ENDBRANCH   2  15
TORSDOF 11
ENDMDL
MODEL 7
REMARK VINA RESULT:      -6.6      2.329      6.297
REMARK  Name = 
REMARK  14 active torsions:
REMARK  status: ('A' for Active; 'I' for Inactive)
REMARK    1  A    between atoms: C_1  and  C_2
REMARK    2  A    between atoms: C_2  and  C_3
REMARK    3  A    between atoms: C_3  and  O_5
REMARK    4  A    between atoms: O_5  and  C_6
REMARK    5  A    between atoms: C_6  and  C_7
REMARK    6  A    between atoms: C_7  and  N_8
REMARK    7  A    between atoms: C_7  and  C_17
REMARK    8  A    between atoms: C_9  and  C_11
REMARK    9  A    between atoms: C_11  and  N_12
REMARK   10  A    between atoms: C_11  and  C_13
REMARK   11  A    between atoms: C_13  and  C_14
REMARK   12  A    between atoms: C_14  and  O_16
REMARK   13  A    between atoms: C_17  and  C_18
REMARK   14  A    between atoms: C_17  and  C_19
REMARK                            x       y       z     vdW  Elec       q    Type
REMARK                         _______ _______ _______ _____ _____    ______ ____
ROOT
ATOM      1  N   UNL     1       4.691   5.482  18.472  0.00  0.00    +0.000 N 
ATOM      2  C   UNL     1       5.653   4.606  18.933  0.00  0.00    +0.000 C 
ATOM      3  O   UNL     1       5.401   3.538  19.477  0.00  0.00    +0.000 OA
ATOM      4  H   UNL     1       5.046   6.373  18.123  0.00  0.00    +0.000 HD
ENDROOT
BRANCH   1   5
ATOM      5  C   UNL     1       3.256   5.213  18.524  0.00  0.00    +0.000 C 
BRANCH   5   6
ATOM      6  C   UNL     1       2.446   6.536  18.546  0.00  0.00    +0.000 C 
ATOM      7  C   UNL     1       2.137   6.987  19.977  0.00  0.00    +0.000 C 
ATOM      8  C   UNL     1       3.139   7.675  17.791  0.00  0.00    +0.000 C 
ENDBRANCH   5   6
BRANCH   5   9
ATOM      9  C   UNL     1       2.823   4.268  17.378  0.00  0.00    +0.000 C 
BRANCH   9  10
ATOM     10  O   UNL     1       1.647   3.516  17.732  0.00  0.00    +0.000 OA
BRANCH  10  11
ATOM     11  C   UNL     1       1.791   2.701  18.808  0.00  0.00    +0.000 C 
ATOM     12  O   UNL     1       2.595   1.776  18.893  0.00  0.00    +0.000 OA
BRANCH  11  14
ATOM     13  C   UNL     1       1.432   2.920  21.278  0.00  0.00    +0.000 C 
ATOM     14  C   UNL     1       0.821   3.107  19.902  0.00  0.00    +0.000 C 
ENDBRANCH  11  14
ENDBRANCH  10  11
ENDBRANCH   9  10
ENDBRANCH   5   9
ENDBRANCH   1   5
BRANCH   2  15
ATOM     15  C   UNL     1       7.098   5.126  18.732  0.00  0.00    +0.000 C 
BRANCH  15  16
ATOM     16  N   UNL     1       7.639   5.562  20.044  0.00  0.00    +0.000 NA
ATOM     17  H   UNL     1       7.415   6.545  20.179  0.00  0.00    +0.000 HD
ATOM     18  H   UNL     1       8.669   5.536  19.970  0.00  0.00    +0.000 HD
ENDBRANCH  15  16
BRANCH  15  19
ATOM     19  C   UNL     1       7.077   6.231  17.670  0.00  0.00    +0.000 C 
BRANCH  19  20
ATOM     20  C   UNL     1       6.911   5.693  16.273  0.00  0.00    +0.000 C 
ATOM     21  O   UNL     1       7.660   4.878  15.756  0.00  0.00    +0.000 OA
BRANCH  20  22
ATOM     22  O   UNL     1       5.884   6.251  15.600  0.00  0.00    +0.000 OA
ATOM     23  H   UNL     1       6.006   6.295  14.633  0.00  0.00    +0.000 HD
ENDBRANCH  20  22
ENDBRANCH  19  20
ENDBRANCH  15  19
ENDBRANCH   2  15
TORSDOF 11
ENDMDL
MODEL 8
REMARK VINA RESULT:      -6.5      2.148      6.227
REMARK  Name = 
REMARK  14 active torsions:
REMARK  status: ('A' for Active; 'I' for Inactive)
REMARK    1  A    between atoms: C_1  and  C_2
REMARK    2  A    between atoms: C_2  and  C_3
REMARK    3  A    between atoms: C_3  and  O_5
REMARK    4  A    between atoms: O_5  and  C_6
REMARK    5  A    between atoms: C_6  and  C_7
REMARK    6  A    between atoms: C_7  and  N_8
REMARK    7  A    between atoms: C_7  and  C_17
REMARK    8  A    between atoms: C_9  and  C_11
REMARK    9  A    between atoms: C_11  and  N_12
REMARK   10  A    between atoms: C_11  and  C_13
REMARK   11  A    between atoms: C_13  and  C_14
REMARK   12  A    between atoms: C_14  and  O_16
REMARK   13  A    between atoms: C_17  and  C_18
REMARK   14  A    between atoms: C_17  and  C_19
REMARK                            x       y       z     vdW  Elec       q    Type
REMARK                         _______ _______ _______ _____ _____    ______ ____
ROOT
ATOM      1  N   UNL     1       5.157   5.570  18.385  0.00  0.00    +0.000 N 
ATOM      2  C   UNL     1       6.536   5.524  18.374  0.00  0.00    +0.000 C 
ATOM      3  O   UNL     1       7.218   5.241  19.351  0.00  0.00    +0.000 OA
ATOM      4  H   UNL     1       4.726   5.907  17.523  0.00  0.00    +0.000 HD
ENDROOT
BRANCH   1   5
ATOM      5  C   UNL     1       4.342   5.231  19.549  0.00  0.00    +0.000 C 
BRANCH   5   6
ATOM      6  C   UNL     1       3.051   6.091  19.590  0.00  0.00    +0.000 C 
ATOM      7  C   UNL     1       2.538   6.408  18.182  0.00  0.00    +0.000 C 
ATOM      8  C   UNL     1       1.929   5.448  20.410  0.00  0.00    +0.000 C 
ENDBRANCH   5   6
BRANCH   5   9
ATOM      9  C   UNL     1       4.048   3.713  19.603  0.00  0.00    +0.000 C 
BRANCH   9  10
ATOM     10  O   UNL     1       4.007   3.137  18.284  0.00  0.00    +0.000 OA
BRANCH  10  11
ATOM     11  C   UNL     1       2.764   2.823  17.835  0.00  0.00    +0.000 C 
ATOM     12  O   UNL     1       2.299   3.156  16.749  0.00  0.00    +0.000 OA
BRANCH  11  14
ATOM     13  C   UNL     1       0.572   2.379  18.964  0.00  0.00    +0.000 C 
ATOM     14  C   UNL     1       2.034   1.986  18.869  0.00  0.00    +0.000 C 
ENDBRANCH  11  14
ENDBRANCH  10  11
ENDBRANCH   9  10
ENDBRANCH   5   9
ENDBRANCH   1   5
BRANCH   2  15
ATOM     15  C   UNL     1       7.148   5.905  17.004  0.00  0.00    +0.000 C 
BRANCH  15  16
ATOM     16  N   UNL     1       7.428   7.363  16.991  0.00  0.00    +0.000 NA
ATOM     17  H   UNL     1       8.108   7.558  16.261  0.00  0.00    +0.000 HD
ATOM     18  H   UNL     1       7.919   7.585  17.872  0.00  0.00    +0.000 HD
ENDBRANCH  15  16
BRANCH  15  19
ATOM     19  C   UNL     1       6.193   5.445  15.896  0.00  0.00    +0.000 C 
BRANCH  19  20
ATOM     20  C   UNL     1       6.914   4.850  14.715  0.00  0.00    +0.000 C 
ATOM     21  O   UNL     1       7.789   5.422  14.083  0.00  0.00    +0.000 OA
BRANCH  20  22
ATOM     22  O   UNL     1       6.454   3.632  14.362  0.00  0.00    +0.000 OA
ATOM     23  H   UNL     1       6.138   3.567  13.442  0.00  0.00    +0.000 HD
ENDBRANCH  20  22
ENDBRANCH  19  20
ENDBRANCH  15  19
ENDBRANCH   2  15
TORSDOF 11
ENDMDL
MODEL 9
REMARK VINA RESULT:      -6.5      2.286      3.608
REMARK  Name = 
REMARK  14 active torsions:
REMARK  status: ('A' for Active; 'I' for Inactive)
REMARK    1  A    between atoms: C_1  and  C_2
REMARK    2  A    between atoms: C_2  and  C_3
REMARK    3  A    between atoms: C_3  and  O_5
REMARK    4  A    between atoms: O_5  and  C_6
REMARK    5  A    between atoms: C_6  and  C_7
REMARK    6  A    between atoms: C_7  and  N_8
REMARK    7  A    between atoms: C_7  and  C_17
REMARK    8  A    between atoms: C_9  and  C_11
REMARK    9  A    between atoms: C_11  and  N_12
REMARK   10  A    between atoms: C_11  and  C_13
REMARK   11  A    between atoms: C_13  and  C_14
REMARK   12  A    between atoms: C_14  and  O_16
REMARK   13  A    between atoms: C_17  and  C_18
REMARK   14  A    between atoms: C_17  and  C_19
REMARK                            x       y       z     vdW  Elec       q    Type
REMARK                         _______ _______ _______ _____ _____    ______ ____
ROOT
ATOM      1  N   UNL     1       3.577   4.479  18.361  0.00  0.00    +0.000 N 
ATOM      2  C   UNL     1       2.975   3.291  17.998  0.00  0.00    +0.000 C 
ATOM      3  O   UNL     1       2.296   3.149  16.989  0.00  0.00    +0.000 OA
ATOM      4  H   UNL     1       4.036   4.473  19.272  0.00  0.00    +0.000 HD
ENDROOT
BRANCH   1   5
ATOM      5  C   UNL     1       3.524   5.696  17.554  0.00  0.00    +0.000 C 
BRANCH   5   6
ATOM      6  C   UNL     1       2.537   6.723  18.168  0.00  0.00    +0.000 C 
ATOM      7  C   UNL     1       2.457   6.591  19.692  0.00  0.00    +0.000 C 
ATOM      8  C   UNL     1       2.874   8.171  17.798  0.00  0.00    +0.000 C 
ENDBRANCH   5   6
BRANCH   5   9
ATOM      9  C   UNL     1       4.939   6.284  17.338  0.00  0.00    +0.000 C 
BRANCH   9  10
ATOM     10  O   UNL     1       5.772   5.388  16.579  0.00  0.00    +0.000 OA
BRANCH  10  11
ATOM     11  C   UNL     1       7.055   5.296  17.012  0.00  0.00    +0.000 C 
ATOM     12  O   UNL     1       7.877   4.472  16.619  0.00  0.00    +0.000 OA
BRANCH  11  14
ATOM     13  C   UNL     1       7.900   5.775  19.322  0.00  0.00    +0.000 C 
ATOM     14  C   UNL     1       7.335   6.370  18.047  0.00  0.00    +0.000 C 
ENDBRANCH  11  14
ENDBRANCH  10  11
ENDBRANCH   9  10
ENDBRANCH   5   9
ENDBRANCH   1   5
BRANCH   2  15
ATOM     15  C   UNL     1       3.210   2.152  19.020  0.00  0.00    +0.000 C 
BRANCH  15  16
ATOM     16  N   UNL     1       3.824   0.996  18.319  0.00  0.00    +0.000 NA
ATOM     17  H   UNL     1       4.807   0.944  18.575  0.00  0.00    +0.000 HD
ATOM     18  H   UNL     1       3.828   1.220  17.311  0.00  0.00    +0.000 HD
ENDBRANCH  15  16
BRANCH  15  19
ATOM     19  C   UNL     1       1.878   1.827  19.707  0.00  0.00    +0.000 C 
BRANCH  19  20
ATOM     20  C   UNL     1       1.551   2.782  20.824  0.00  0.00    +0.000 C 
ATOM     21  O   UNL     1       2.057   2.742  21.935  0.00  0.00    +0.000 OA
BRANCH  20  22
ATOM     22  O   UNL     1       0.578   3.663  20.511  0.00  0.00    +0.000 OA
ATOM     23  H   UNL     1      -0.196   3.642  21.103  0.00  0.00    +0.000 HD
ENDBRANCH  20  22
ENDBRANCH  19  20
ENDBRANCH  15  19
ENDBRANCH   2  15
TORSDOF 11
ENDMDL
