MODEL 1
REMARK VINA RESULT:      -6.7      0.000      0.000
REMARK  Name = 
REMARK  9 active torsions:
REMARK  status: ('A' for Active; 'I' for Inactive)
REMARK    1  A    between atoms: C_2  and  C_3
REMARK    2  A    between atoms: C_2  and  C_15
REMARK    3  A    between atoms: C_3  and  O_5
REMARK    4  A    between atoms: O_5  and  C_6
REMARK    5  A    between atoms: C_6  and  C_7
REMARK    6  A    between atoms: C_7  and  N_8
REMARK    7  A    between atoms: N_11  and  C_12
REMARK    8  A    between atoms: C_18  and  C_19
REMARK    9  A    between atoms: C_24  and  C_25
REMARK                            x       y       z     vdW  Elec       q    Type
REMARK                         _______ _______ _______ _____ _____    ______ ____
ROOT
ATOM      1  C   UNL     1       1.687   7.139  17.618  0.00  0.00    +0.000 C 
ATOM      2  C   UNL     1       2.467   7.259  18.709  0.00  0.00    +0.000 C 
ENDROOT
BRANCH   2   3
ATOM      3  C   UNL     1       3.909   6.777  18.883  0.00  0.00    +0.000 C 
ATOM      4  C   UNL     1       4.764   6.789  17.600  0.00  0.00    +0.000 C 
ATOM      5  C   UNL     1       4.577   5.678  16.567  0.00  0.00    +0.000 C 
ATOM      6  C   UNL     1       5.027   4.296  17.051  0.00  0.00    +0.000 C 
ATOM      7  C   UNL     1       5.459   3.456  15.841  0.00  0.00    +0.000 C 
ATOM      8  C   UNL     1       3.991   3.543  17.919  0.00  0.00    +0.000 C 
ATOM      9  C   UNL     1       2.811   2.905  17.177  0.00  0.00    +0.000 C 
ATOM     10  C   UNL     1       1.739   2.916  18.235  0.00  0.00    +0.000 C 
ATOM     11  O   UNL     1       0.705   2.268  18.189  0.00  0.00    +0.000 OA
ATOM     12  C   UNL     1       2.065   3.888  19.291  0.00  0.00    +0.000 C 
ATOM     13  C   UNL     1       1.095   4.315  20.334  0.00  0.00    +0.000 C 
ATOM     14  C   UNL     1       3.305   4.326  19.009  0.00  0.00    +0.000 C 
ATOM     15  C   UNL     1       4.007   5.460  19.687  0.00  0.00    +0.000 C 
ENDBRANCH   2   3
BRANCH   2  16
ATOM     16  C   UNL     1       1.847   8.049  19.816  0.00  0.00    +0.000 C 
ATOM     17  O   UNL     1       1.680   7.641  20.956  0.00  0.00    +0.000 OA
BRANCH  16  18
ATOM     18  O   UNL     1       1.392   9.226  19.327  0.00  0.00    +0.000 OA
BRANCH  18  19
ATOM     19  C   UNL     1       0.405   9.856  20.145  0.00  0.00    +0.000 C 
BRANCH  19  20
ATOM     20  C   UNL     1       0.954  11.219  20.598  0.00  0.00    +0.000 C 
BRANCH  20  21
ATOM     21  N   UNL     1       0.251  11.773  21.755  0.00  0.00    +0.000 NA
ATOM     22  C   UNL     1      -0.992  11.032  22.051  0.00  0.00    +0.000 C 
ATOM     23  C   UNL     1      -1.725  11.614  23.277  0.00  0.00    +0.000 C 
ATOM     24  N   UNL     1      -2.021  13.058  23.200  0.00  0.00    +0.000 NA
ATOM     25  C   UNL     1      -3.134  13.325  22.295  0.00  0.00    +0.000 C 
ATOM     26  C   UNL     1      -0.798  13.782  22.792  0.00  0.00    +0.000 C 
ATOM     27  C   UNL     1      -0.075  13.199  21.555  0.00  0.00    +0.000 C 
ENDBRANCH  20  21
ENDBRANCH  19  20
ENDBRANCH  18  19
ENDBRANCH  16  18
ENDBRANCH   2  16
TORSDOF 6
ENDMDL
MODEL 2
REMARK VINA RESULT:      -6.6      5.325      7.462
REMARK  Name = 
REMARK  9 active torsions:
REMARK  status: ('A' for Active; 'I' for Inactive)
REMARK    1  A    between atoms: C_2  and  C_3
REMARK    2  A    between atoms: C_2  and  C_15
REMARK    3  A    between atoms: C_3  and  O_5
REMARK    4  A    between atoms: O_5  and  C_6
REMARK    5  A    between atoms: C_6  and  C_7
REMARK    6  A    between atoms: C_7  and  N_8
REMARK    7  A    between atoms: N_11  and  C_12
REMARK    8  A    between atoms: C_18  and  C_19
REMARK    9  A    between atoms: C_24  and  C_25
REMARK                            x       y       z     vdW  Elec       q    Type
REMARK                         _______ _______ _______ _____ _____    ______ ____
ROOT
ATOM      1  C   UNL     1       6.282   5.406  19.148  0.00  0.00    +0.000 C 
ATOM      2  C   UNL     1       5.798   6.146  18.133  0.00  0.00    +0.000 C 
ENDROOT
BRANCH   2   3
ATOM      3  C   UNL     1       4.356   6.617  17.926  0.00  0.00    +0.000 C 
ATOM      4  C   UNL     1       3.579   6.936  19.219  0.00  0.00    +0.000 C 
ATOM      5  C   UNL     1       3.023   5.787  20.059  0.00  0.00    +0.000 C 
ATOM      6  C   UNL     1       1.894   5.007  19.377  0.00  0.00    +0.000 C 
ATOM      7  C   UNL     1       0.978   4.407  20.453  0.00  0.00    +0.000 C 
ATOM      8  C   UNL     1       2.366   3.927  18.374  0.00  0.00    +0.000 C 
ATOM      9  C   UNL     1       2.911   2.626  18.973  0.00  0.00    +0.000 C 
ATOM     10  C   UNL     1       3.864   2.168  17.900  0.00  0.00    +0.000 C 
ATOM     11  O   UNL     1       4.332   1.043  17.815  0.00  0.00    +0.000 OA
ATOM     12  C   UNL     1       4.228   3.289  17.019  0.00  0.00    +0.000 C 
ATOM     13  C   UNL     1       5.336   3.222  16.029  0.00  0.00    +0.000 C 
ATOM     14  C   UNL     1       3.450   4.317  17.401  0.00  0.00    +0.000 C 
ATOM     15  C   UNL     1       3.574   5.732  16.929  0.00  0.00    +0.000 C 
ENDBRANCH   2   3
BRANCH   2  16
ATOM     16  C   UNL     1       6.843   6.623  17.177  0.00  0.00    +0.000 C 
ATOM     17  O   UNL     1       7.524   5.897  16.469  0.00  0.00    +0.000 OA
BRANCH  16  18
ATOM     18  O   UNL     1       6.998   7.961  17.312  0.00  0.00    +0.000 OA
BRANCH  18  19
ATOM     19  C   UNL     1       8.139   8.341  18.082  0.00  0.00    +0.000 C 
BRANCH  19  20
ATOM     20  C   UNL     1       8.293   9.869  17.991  0.00  0.00    +0.000 C 
BRANCH  20  21
ATOM     21  N   UNL     1       9.493  10.372  18.659  0.00  0.00    +0.000 NA
ATOM     22  C   UNL     1       9.174  11.035  19.939  0.00  0.00    +0.000 C 
ATOM     23  C   UNL     1      10.443  11.557  20.644  0.00  0.00    +0.000 C 
ATOM     24  N   UNL     1      11.290  12.448  19.827  0.00  0.00    +0.000 NA
ATOM     25  C   UNL     1      10.701  13.778  19.707  0.00  0.00    +0.000 C 
ATOM     26  C   UNL     1      11.511  11.827  18.504  0.00  0.00    +0.000 C 
ATOM     27  C   UNL     1      10.232  11.316  17.798  0.00  0.00    +0.000 C 
ENDBRANCH  20  21
ENDBRANCH  19  20
ENDBRANCH  18  19
ENDBRANCH  16  18
ENDBRANCH   2  16
TORSDOF 6
ENDMDL
MODEL 3
REMARK VINA RESULT:      -6.5      1.139      1.449
REMARK  Name = 
REMARK  9 active torsions:
REMARK  status: ('A' for Active; 'I' for Inactive)
REMARK    1  A    between atoms: C_2  and  C_3
REMARK    2  A    between atoms: C_2  and  C_15
REMARK    3  A    between atoms: C_3  and  O_5
REMARK    4  A    between atoms: O_5  and  C_6
REMARK    5  A    between atoms: C_6  and  C_7
REMARK    6  A    between atoms: C_7  and  N_8
REMARK    7  A    between atoms: N_11  and  C_12
REMARK    8  A    between atoms: C_18  and  C_19
REMARK    9  A    between atoms: C_24  and  C_25
REMARK                            x       y       z     vdW  Elec       q    Type
REMARK                         _______ _______ _______ _____ _____    ______ ____
ROOT
ATOM      1  C   UNL     1       1.744   6.176  17.777  0.00  0.00    +0.000 C 
ATOM      2  C   UNL     1       2.634   6.984  18.383  0.00  0.00    +0.000 C 
ENDROOT
BRANCH   2   3
ATOM      3  C   UNL     1       4.161   6.873  18.361  0.00  0.00    +0.000 C 
ATOM      4  C   UNL     1       4.793   6.805  16.957  0.00  0.00    +0.000 C 
ATOM      5  C   UNL     1       4.743   5.491  16.177  0.00  0.00    +0.000 C 
ATOM      6  C   UNL     1       5.587   4.370  16.792  0.00  0.00    +0.000 C 
ATOM      7  C   UNL     1       6.037   3.413  15.680  0.00  0.00    +0.000 C 
ATOM      8  C   UNL     1       4.905   3.606  17.952  0.00  0.00    +0.000 C 
ATOM      9  C   UNL     1       3.828   2.588  17.562  0.00  0.00    +0.000 C 
ATOM     10  C   UNL     1       2.949   2.585  18.784  0.00  0.00    +0.000 C 
ATOM     11  O   UNL     1       2.113   1.732  19.042  0.00  0.00    +0.000 OA
ATOM     12  C   UNL     1       3.171   3.800  19.583  0.00  0.00    +0.000 C 
ATOM     13  C   UNL     1       2.284   4.213  20.703  0.00  0.00    +0.000 C 
ATOM     14  C   UNL     1       4.209   4.429  19.005  0.00  0.00    +0.000 C 
ATOM     15  C   UNL     1       4.697   5.804  19.341  0.00  0.00    +0.000 C 
ENDBRANCH   2   3
BRANCH   2  16
ATOM     16  C   UNL     1       2.020   8.169  19.056  0.00  0.00    +0.000 C 
ATOM     17  O   UNL     1       1.746   9.222  18.500  0.00  0.00    +0.000 OA
BRANCH  16  18
ATOM     18  O   UNL     1       1.935   7.935  20.386  0.00  0.00    +0.000 OA
BRANCH  18  19
ATOM     19  C   UNL     1       0.737   8.427  20.989  0.00  0.00    +0.000 C 
BRANCH  19  20
ATOM     20  C   UNL     1       1.114   9.126  22.306  0.00  0.00    +0.000 C 
BRANCH  20  21
ATOM     21  N   UNL     1       0.603  10.493  22.405  0.00  0.00    +0.000 NA
ATOM     22  C   UNL     1      -0.797  10.525  22.874  0.00  0.00    +0.000 C 
ATOM     23  C   UNL     1      -1.329  11.969  22.984  0.00  0.00    +0.000 C 
ATOM     24  N   UNL     1      -1.205  12.775  21.754  0.00  0.00    +0.000 NA
ATOM     25  C   UNL     1      -2.202  12.388  20.761  0.00  0.00    +0.000 C 
ATOM     26  C   UNL     1       0.170  12.647  21.227  0.00  0.00    +0.000 C 
ATOM     27  C   UNL     1       0.693  11.196  21.109  0.00  0.00    +0.000 C 
ENDBRANCH  20  21
ENDBRANCH  19  20
ENDBRANCH  18  19
ENDBRANCH  16  18
ENDBRANCH   2  16
TORSDOF 6
ENDMDL
MODEL 4
REMARK VINA RESULT:      -6.5      2.214      2.797
REMARK  Name = 
REMARK  9 active torsions:
REMARK  status: ('A' for Active; 'I' for Inactive)
REMARK    1  A    between atoms: C_2  and  C_3
REMARK    2  A    between atoms: C_2  and  C_15
REMARK    3  A    between atoms: C_3  and  O_5
REMARK    4  A    between atoms: O_5  and  C_6
REMARK    5  A    between atoms: C_6  and  C_7
REMARK    6  A    between atoms: C_7  and  N_8
REMARK    7  A    between atoms: N_11  and  C_12
REMARK    8  A    between atoms: C_18  and  C_19
REMARK    9  A    between atoms: C_24  and  C_25
REMARK                            x       y       z     vdW  Elec       q    Type
REMARK                         _______ _______ _______ _____ _____    ______ ____
ROOT
ATOM      1  C   UNL     1       1.696   7.075  17.719  0.00  0.00    +0.000 C 
ATOM      2  C   UNL     1       2.487   7.166  18.804  0.00  0.00    +0.000 C 
ENDROOT
BRANCH   2   3
ATOM      3  C   UNL     1       3.932   6.681  18.949  0.00  0.00    +0.000 C 
ATOM      4  C   UNL     1       4.768   6.716  17.655  0.00  0.00    +0.000 C 
ATOM      5  C   UNL     1       4.567   5.624  16.604  0.00  0.00    +0.000 C 
ATOM      6  C   UNL     1       5.023   4.233  17.057  0.00  0.00    +0.000 C 
ATOM      7  C   UNL     1       5.438   3.415  15.826  0.00  0.00    +0.000 C 
ATOM      8  C   UNL     1       3.999   3.465  17.926  0.00  0.00    +0.000 C 
ATOM      9  C   UNL     1       2.808   2.840  17.189  0.00  0.00    +0.000 C 
ATOM     10  C   UNL     1       1.751   2.833  18.262  0.00  0.00    +0.000 C 
ATOM     11  O   UNL     1       0.716   2.185  18.219  0.00  0.00    +0.000 OA
ATOM     12  C   UNL     1       2.093   3.785  19.330  0.00  0.00    +0.000 C 
ATOM     13  C   UNL     1       1.137   4.194  20.394  0.00  0.00    +0.000 C 
ATOM     14  C   UNL     1       3.328   4.228  19.039  0.00  0.00    +0.000 C 
ATOM     15  C   UNL     1       4.041   5.349  19.728  0.00  0.00    +0.000 C 
ENDBRANCH   2   3
BRANCH   2  16
ATOM     16  C   UNL     1       1.879   7.927  19.938  0.00  0.00    +0.000 C 
ATOM     17  O   UNL     1       1.501   7.429  20.988  0.00  0.00    +0.000 OA
BRANCH  16  18
ATOM     18  O   UNL     1       1.702   9.217  19.569  0.00  0.00    +0.000 OA
BRANCH  18  19
ATOM     19  C   UNL     1       0.451   9.773  19.976  0.00  0.00    +0.000 C 
BRANCH  19  20
ATOM     20  C   UNL     1       0.317  11.168  19.341  0.00  0.00    +0.000 C 
BRANCH  20  21
ATOM     21  N   UNL     1      -0.817  11.281  18.424  0.00  0.00    +0.000 NA
ATOM     22  C   UNL     1      -2.081  11.550  19.139  0.00  0.00    +0.000 C 
ATOM     23  C   UNL     1      -3.272  11.677  18.168  0.00  0.00    +0.000 C 
ATOM     24  N   UNL     1      -3.459  10.531  17.257  0.00  0.00    +0.000 NA
ATOM     25  C   UNL     1      -4.033   9.386  17.954  0.00  0.00    +0.000 C 
ATOM     26  C   UNL     1      -2.163  10.195  16.629  0.00  0.00    +0.000 C 
ATOM     27  C   UNL     1      -0.976  10.059  17.611  0.00  0.00    +0.000 C 
ENDBRANCH  20  21
ENDBRANCH  19  20
ENDBRANCH  18  19
ENDBRANCH  16  18
ENDBRANCH   2  16
TORSDOF 6
ENDMDL
MODEL 5
REMARK VINA RESULT:      -6.5      2.008      2.660
REMARK  Name = 
REMARK  9 active torsions:
REMARK  status: ('A' for Active; 'I' for Inactive)
REMARK    1  A    between atoms: C_2  and  C_3
REMARK    2  A    between atoms: C_2  and  C_15
REMARK    3  A    between atoms: C_3  and  O_5
REMARK    4  A    between atoms: O_5  and  C_6
REMARK    5  A    between atoms: C_6  and  C_7
REMARK    6  A    between atoms: C_7  and  N_8
REMARK    7  A    between atoms: N_11  and  C_12
REMARK    8  A    between atoms: C_18  and  C_19
REMARK    9  A    between atoms: C_24  and  C_25
REMARK                            x       y       z     vdW  Elec       q    Type
REMARK                         _______ _______ _______ _____ _____    ______ ____
ROOT
ATOM      1  C   UNL     1       1.661   7.032  17.625  0.00  0.00    +0.000 C 
ATOM      2  C   UNL     1       2.468   7.229  18.685  0.00  0.00    +0.000 C 
ENDROOT
BRANCH   2   3
ATOM      3  C   UNL     1       3.917   6.764  18.854  0.00  0.00    +0.000 C 
ATOM      4  C   UNL     1       4.763   6.773  17.565  0.00  0.00    +0.000 C 
ATOM      5  C   UNL     1       4.581   5.651  16.543  0.00  0.00    +0.000 C 
ATOM      6  C   UNL     1       5.049   4.278  17.036  0.00  0.00    +0.000 C 
ATOM      7  C   UNL     1       5.481   3.432  15.831  0.00  0.00    +0.000 C 
ATOM      8  C   UNL     1       4.025   3.522  17.918  0.00  0.00    +0.000 C 
ATOM      9  C   UNL     1       2.847   2.865  17.189  0.00  0.00    +0.000 C 
ATOM     10  C   UNL     1       1.783   2.875  18.254  0.00  0.00    +0.000 C 
ATOM     11  O   UNL     1       0.755   2.215  18.221  0.00  0.00    +0.000 OA
ATOM     12  C   UNL     1       2.105   3.859  19.299  0.00  0.00    +0.000 C 
ATOM     13  C   UNL     1       1.137   4.286  20.344  0.00  0.00    +0.000 C 
ATOM     14  C   UNL     1       3.339   4.307  19.005  0.00  0.00    +0.000 C 
ATOM     15  C   UNL     1       4.034   5.455  19.669  0.00  0.00    +0.000 C 
ENDBRANCH   2   3
BRANCH   2  16
ATOM     16  C   UNL     1       1.874   8.093  19.749  0.00  0.00    +0.000 C 
ATOM     17  O   UNL     1       1.527   7.700  20.853  0.00  0.00    +0.000 OA
BRANCH  16  18
ATOM     18  O   UNL     1       1.669   9.336  19.256  0.00  0.00    +0.000 OA
BRANCH  18  19
ATOM     19  C   UNL     1       0.488   9.972  19.748  0.00  0.00    +0.000 C 
BRANCH  19  20
ATOM     20  C   UNL     1       0.415  11.384  19.144  0.00  0.00    +0.000 C 
BRANCH  20  21
ATOM     21  N   UNL     1       1.637  12.164  19.342  0.00  0.00    +0.000 NA
ATOM     22  C   UNL     1       1.604  12.927  20.606  0.00  0.00    +0.000 C 
ATOM     23  C   UNL     1       2.898  13.741  20.815  0.00  0.00    +0.000 C 
ATOM     24  N   UNL     1       3.252  14.646  19.704  0.00  0.00    +0.000 NA
ATOM     25  C   UNL     1       2.401  15.831  19.692  0.00  0.00    +0.000 C 
ATOM     26  C   UNL     1       3.172  13.902  18.429  0.00  0.00    +0.000 C 
ATOM     27  C   UNL     1       1.867  13.097  18.222  0.00  0.00    +0.000 C 
ENDBRANCH  20  21
ENDBRANCH  19  20
ENDBRANCH  18  19
ENDBRANCH  16  18
ENDBRANCH   2  16
TORSDOF 6
ENDMDL
MODEL 6
REMARK VINA RESULT:      -6.4      1.446      2.180
REMARK  Name = 
REMARK  9 active torsions:
REMARK  status: ('A' for Active; 'I' for Inactive)
REMARK    1  A    between atoms: C_2  and  C_3
REMARK    2  A    between atoms: C_2  and  C_15
REMARK    3  A    between atoms: C_3  and  O_5
REMARK    4  A    between atoms: O_5  and  C_6
REMARK    5  A    between atoms: C_6  and  C_7
REMARK    6  A    between atoms: C_7  and  N_8
REMARK    7  A    between atoms: N_11  and  C_12
REMARK    8  A    between atoms: C_18  and  C_19
REMARK    9  A    between atoms: C_24  and  C_25
REMARK                            x       y       z     vdW  Elec       q    Type
REMARK                         _______ _______ _______ _____ _____    ______ ____
ROOT
ATOM      1  C   UNL     1       1.706   7.094  17.642  0.00  0.00    +0.000 C 
ATOM      2  C   UNL     1       2.480   7.181  18.740  0.00  0.00    +0.000 C 
ENDROOT
BRANCH   2   3
ATOM      3  C   UNL     1       3.924   6.701  18.905  0.00  0.00    +0.000 C 
ATOM      4  C   UNL     1       4.771   6.716  17.616  0.00  0.00    +0.000 C 
ATOM      5  C   UNL     1       4.580   5.607  16.582  0.00  0.00    +0.000 C 
ATOM      6  C   UNL     1       5.035   4.224  17.061  0.00  0.00    +0.000 C 
ATOM      7  C   UNL     1       5.460   3.388  15.847  0.00  0.00    +0.000 C 
ATOM      8  C   UNL     1       4.005   3.468  17.934  0.00  0.00    +0.000 C 
ATOM      9  C   UNL     1       2.821   2.830  17.198  0.00  0.00    +0.000 C 
ATOM     10  C   UNL     1       1.756   2.838  18.262  0.00  0.00    +0.000 C 
ATOM     11  O   UNL     1       0.722   2.188  18.221  0.00  0.00    +0.000 OA
ATOM     12  C   UNL     1       2.087   3.808  19.318  0.00  0.00    +0.000 C 
ATOM     13  C   UNL     1       1.122   4.232  20.367  0.00  0.00    +0.000 C 
ATOM     14  C   UNL     1       3.324   4.248  19.030  0.00  0.00    +0.000 C 
ATOM     15  C   UNL     1       4.029   5.382  19.706  0.00  0.00    +0.000 C 
ENDBRANCH   2   3
BRANCH   2  16
ATOM     16  C   UNL     1       1.851   7.930  19.869  0.00  0.00    +0.000 C 
ATOM     17  O   UNL     1       1.770   7.522  21.018  0.00  0.00    +0.000 OA
BRANCH  16  18
ATOM     18  O   UNL     1       1.281   9.062  19.395  0.00  0.00    +0.000 OA
BRANCH  18  19
ATOM     19  C   UNL     1       0.452   9.740  20.341  0.00  0.00    +0.000 C 
BRANCH  19  20
ATOM     20  C   UNL     1      -0.442  10.729  19.575  0.00  0.00    +0.000 C 
BRANCH  20  21
ATOM     21  N   UNL     1      -0.054  12.126  19.762  0.00  0.00    +0.000 NA
ATOM     22  C   UNL     1       1.053  12.516  18.866  0.00  0.00    +0.000 C 
ATOM     23  C   UNL     1       1.454  13.993  19.061  0.00  0.00    +0.000 C 
ATOM     24  N   UNL     1       1.789  14.371  20.448  0.00  0.00    +0.000 NA
ATOM     25  C   UNL     1       3.104  13.869  20.832  0.00  0.00    +0.000 C 
ATOM     26  C   UNL     1       0.730  13.877  21.354  0.00  0.00    +0.000 C 
ATOM     27  C   UNL     1       0.342  12.392  21.160  0.00  0.00    +0.000 C 
ENDBRANCH  20  21
ENDBRANCH  19  20
ENDBRANCH  18  19
ENDBRANCH  16  18
ENDBRANCH   2  16
TORSDOF 6
ENDMDL
MODEL 7
REMARK VINA RESULT:      -6.4      0.592      1.116
REMARK  Name = 
REMARK  9 active torsions:
REMARK  status: ('A' for Active; 'I' for Inactive)
REMARK    1  A    between atoms: C_2  and  C_3
REMARK    2  A    between atoms: C_2  and  C_15
REMARK    3  A    between atoms: C_3  and  O_5
REMARK    4  A    between atoms: O_5  and  C_6
REMARK    5  A    between atoms: C_6  and  C_7
REMARK    6  A    between atoms: C_7  and  N_8
REMARK    7  A    between atoms: N_11  and  C_12
REMARK    8  A    between atoms: C_18  and  C_19
REMARK    9  A    between atoms: C_24  and  C_25
REMARK                            x       y       z     vdW  Elec       q    Type
REMARK                         _______ _______ _______ _____ _____    ______ ____
ROOT
ATOM      1  C   UNL     1       1.649   7.212  17.667  0.00  0.00    +0.000 C 
ATOM      2  C   UNL     1       2.423   7.276  18.767  0.00  0.00    +0.000 C 
ENDROOT
BRANCH   2   3
ATOM      3  C   UNL     1       3.870   6.801  18.918  0.00  0.00    +0.000 C 
ATOM      4  C   UNL     1       4.707   6.827  17.624  0.00  0.00    +0.000 C 
ATOM      5  C   UNL     1       4.513   5.722  16.585  0.00  0.00    +0.000 C 
ATOM      6  C   UNL     1       4.977   4.339  17.053  0.00  0.00    +0.000 C 
ATOM      7  C   UNL     1       5.397   3.511  15.831  0.00  0.00    +0.000 C 
ATOM      8  C   UNL     1       3.957   3.574  17.929  0.00  0.00    +0.000 C 
ATOM      9  C   UNL     1       2.770   2.935  17.199  0.00  0.00    +0.000 C 
ATOM     10  C   UNL     1       1.713   2.933  18.271  0.00  0.00    +0.000 C 
ATOM     11  O   UNL     1       0.682   2.279  18.234  0.00  0.00    +0.000 OA
ATOM     12  C   UNL     1       2.048   3.899  19.329  0.00  0.00    +0.000 C 
ATOM     13  C   UNL     1       1.089   4.313  20.388  0.00  0.00    +0.000 C 
ATOM     14  C   UNL     1       3.281   4.345  19.034  0.00  0.00    +0.000 C 
ATOM     15  C   UNL     1       3.986   5.479  19.711  0.00  0.00    +0.000 C 
ENDBRANCH   2   3
BRANCH   2  16
ATOM     16  C   UNL     1       1.790   7.993  19.915  0.00  0.00    +0.000 C 
ATOM     17  O   UNL     1       1.582   7.502  21.015  0.00  0.00    +0.000 OA
BRANCH  16  18
ATOM     18  O   UNL     1       1.375   9.215  19.508  0.00  0.00    +0.000 OA
BRANCH  18  19
ATOM     19  C   UNL     1       0.063   9.563  19.950  0.00  0.00    +0.000 C 
BRANCH  19  20
ATOM     20  C   UNL     1      -0.058  11.097  19.936  0.00  0.00    +0.000 C 
BRANCH  20  21
ATOM     21  N   UNL     1      -1.102  11.605  20.825  0.00  0.00    +0.000 NA
ATOM     22  C   UNL     1      -1.334  13.051  20.635  0.00  0.00    +0.000 C 
ATOM     23  C   UNL     1      -2.441  13.580  21.569  0.00  0.00    +0.000 C 
ATOM     24  N   UNL     1      -2.233  13.302  23.003  0.00  0.00    +0.000 NA
ATOM     25  C   UNL     1      -1.211  14.175  23.571  0.00  0.00    +0.000 C 
ATOM     26  C   UNL     1      -1.889  11.874  23.175  0.00  0.00    +0.000 C 
ATOM     27  C   UNL     1      -0.771  11.354  22.242  0.00  0.00    +0.000 C 
ENDBRANCH  20  21
ENDBRANCH  19  20
ENDBRANCH  18  19
ENDBRANCH  16  18
ENDBRANCH   2  16
TORSDOF 6
ENDMDL
MODEL 8
REMARK VINA RESULT:      -6.3      8.149     11.443
REMARK  Name = 
REMARK  9 active torsions:
REMARK  status: ('A' for Active; 'I' for Inactive)
REMARK    1  A    between atoms: C_2  and  C_3
REMARK    2  A    between atoms: C_2  and  C_15
REMARK    3  A    between atoms: C_3  and  O_5
REMARK    4  A    between atoms: O_5  and  C_6
REMARK    5  A    between atoms: C_6  and  C_7
REMARK    6  A    between atoms: C_7  and  N_8
REMARK    7  A    between atoms: N_11  and  C_12
REMARK    8  A    between atoms: C_18  and  C_19
REMARK    9  A    between atoms: C_24  and  C_25
REMARK                            x       y       z     vdW  Elec       q    Type
REMARK                         _______ _______ _______ _____ _____    ______ ____
ROOT
ATOM      1  C   UNL     1      11.611  11.525  19.571  0.00  0.00    +0.000 C 
ATOM      2  C   UNL     1      10.343  11.565  19.122  0.00  0.00    +0.000 C 
ENDROOT
BRANCH   2   3
ATOM      3  C   UNL     1       9.773  12.455  18.015  0.00  0.00    +0.000 C 
ATOM      4  C   UNL     1      10.799  12.947  16.975  0.00  0.00    +0.000 C 
ATOM      5  C   UNL     1      11.738  14.097  17.338  0.00  0.00    +0.000 C 
ATOM      6  C   UNL     1      11.031  15.444  17.521  0.00  0.00    +0.000 C 
ATOM      7  C   UNL     1      12.013  16.576  17.187  0.00  0.00    +0.000 C 
ATOM      8  C   UNL     1      10.380  15.653  18.909  0.00  0.00    +0.000 C 
ATOM      9  C   UNL     1      11.328  15.988  20.066  0.00  0.00    +0.000 C 
ATOM     10  C   UNL     1      10.575  15.442  21.250  0.00  0.00    +0.000 C 
ATOM     11  O   UNL     1      10.815  15.713  22.417  0.00  0.00    +0.000 OA
ATOM     12  C   UNL     1       9.567  14.463  20.815  0.00  0.00    +0.000 C 
ATOM     13  C   UNL     1       8.841  13.566  21.754  0.00  0.00    +0.000 C 
ATOM     14  C   UNL     1       9.572  14.511  19.471  0.00  0.00    +0.000 C 
ATOM     15  C   UNL     1       8.850  13.570  18.559  0.00  0.00    +0.000 C 
ENDBRANCH   2   3
BRANCH   2  16
ATOM     16  C   UNL     1       9.449  10.535  19.732  0.00  0.00    +0.000 C 
ATOM     17  O   UNL     1       8.973  10.601  20.856  0.00  0.00    +0.000 OA
BRANCH  16  18
ATOM     18  O   UNL     1       9.355   9.472  18.900  0.00  0.00    +0.000 OA
BRANCH  18  19
ATOM     19  C   UNL     1       8.163   9.449  18.114  0.00  0.00    +0.000 C 
BRANCH  19  20
ATOM     20  C   UNL     1       8.019   8.047  17.499  0.00  0.00    +0.000 C 
BRANCH  20  21
ATOM     21  N   UNL     1       6.881   7.296  18.028  0.00  0.00    +0.000 NA
ATOM     22  C   UNL     1       7.285   5.973  18.544  0.00  0.00    +0.000 C 
ATOM     23  C   UNL     1       6.083   5.188  19.108  0.00  0.00    +0.000 C 
ATOM     24  N   UNL     1       4.950   5.025  18.176  0.00  0.00    +0.000 NA
ATOM     25  C   UNL     1       5.241   4.023  17.156  0.00  0.00    +0.000 C 
ATOM     26  C   UNL     1       4.624   6.337  17.576  0.00  0.00    +0.000 C 
ATOM     27  C   UNL     1       5.834   7.113  17.003  0.00  0.00    +0.000 C 
ENDBRANCH  20  21
ENDBRANCH  19  20
ENDBRANCH  18  19
ENDBRANCH  16  18
ENDBRANCH   2  16
TORSDOF 6
ENDMDL
MODEL 9
REMARK VINA RESULT:      -6.3      1.703      1.998
REMARK  Name = 
REMARK  9 active torsions:
REMARK  status: ('A' for Active; 'I' for Inactive)
REMARK    1  A    between atoms: C_2  and  C_3
REMARK    2  A    between atoms: C_2  and  C_15
REMARK    3  A    between atoms: C_3  and  O_5
REMARK    4  A    between atoms: O_5  and  C_6
REMARK    5  A    between atoms: C_6  and  C_7
REMARK    6  A    between atoms: C_7  and  N_8
REMARK    7  A    between atoms: N_11  and  C_12
REMARK    8  A    between atoms: C_18  and  C_19
REMARK    9  A    between atoms: C_24  and  C_25
REMARK                            x       y       z     vdW  Elec       q    Type
REMARK                         _______ _______ _______ _____ _____    ______ ____
ROOT
ATOM      1  C   UNL     1       1.670   7.140  17.662  0.00  0.00    +0.000 C 
ATOM      2  C   UNL     1       2.450   7.219  18.756  0.00  0.00    +0.000 C 
ENDROOT
BRANCH   2   3
ATOM      3  C   UNL     1       3.904   6.764  18.901  0.00  0.00    +0.000 C 
ATOM      4  C   UNL     1       4.740   6.818  17.607  0.00  0.00    +0.000 C 
ATOM      5  C   UNL     1       4.561   5.723  16.555  0.00  0.00    +0.000 C 
ATOM      6  C   UNL     1       5.046   4.341  17.007  0.00  0.00    +0.000 C 
ATOM      7  C   UNL     1       5.478   3.534  15.775  0.00  0.00    +0.000 C 
ATOM      8  C   UNL     1       4.038   3.551  17.874  0.00  0.00    +0.000 C 
ATOM      9  C   UNL     1       2.860   2.903  17.137  0.00  0.00    +0.000 C 
ATOM     10  C   UNL     1       1.804   2.872  18.209  0.00  0.00    +0.000 C 
ATOM     11  O   UNL     1       0.782   2.203  18.165  0.00  0.00    +0.000 OA
ATOM     12  C   UNL     1       2.125   3.830  19.279  0.00  0.00    +0.000 C 
ATOM     13  C   UNL     1       1.161   4.218  20.343  0.00  0.00    +0.000 C 
ATOM     14  C   UNL     1       3.351   4.299  18.989  0.00  0.00    +0.000 C 
ATOM     15  C   UNL     1       4.040   5.434  19.679  0.00  0.00    +0.000 C 
ENDBRANCH   2   3
BRANCH   2  16
ATOM     16  C   UNL     1       1.814   7.934  19.905  0.00  0.00    +0.000 C 
ATOM     17  O   UNL     1       1.506   7.412  20.966  0.00  0.00    +0.000 OA
BRANCH  16  18
ATOM     18  O   UNL     1       1.524   9.204  19.539  0.00  0.00    +0.000 OA
BRANCH  18  19
ATOM     19  C   UNL     1       0.529   9.832  20.349  0.00  0.00    +0.000 C 
BRANCH  19  20
ATOM     20  C   UNL     1      -0.316  10.747  19.448  0.00  0.00    +0.000 C 
BRANCH  20  21
ATOM     21  N   UNL     1       0.273  12.071  19.250  0.00  0.00    +0.000 NA
ATOM     22  C   UNL     1       1.040  12.515  20.431  0.00  0.00    +0.000 C 
ATOM     23  C   UNL     1       1.667  13.908  20.215  0.00  0.00    +0.000 C 
ATOM     24  N   UNL     1       0.716  14.966  19.822  0.00  0.00    +0.000 NA
ATOM     25  C   UNL     1      -0.090  15.405  20.957  0.00  0.00    +0.000 C 
ATOM     26  C   UNL     1      -0.127  14.472  18.712  0.00  0.00    +0.000 C 
ATOM     27  C   UNL     1      -0.760  13.080  18.941  0.00  0.00    +0.000 C 
ENDBRANCH  20  21
ENDBRANCH  19  20
ENDBRANCH  18  19
ENDBRANCH  16  18
ENDBRANCH   2  16
TORSDOF 6
ENDMDL
