MODEL 1
REMARK VINA RESULT:      -7.9      0.000      0.000
REMARK  Name = 
REMARK  8 active torsions:
REMARK  status: ('A' for Active; 'I' for Inactive)
REMARK    1  A    between atoms: C_1  and  O_2
REMARK    2  A    between atoms: O_2  and  C_3
REMARK    3  A    between atoms: C_8  and  C_9
REMARK    4  A    between atoms: C_9  and  N_10
REMARK    5  A    between atoms: C_11  and  C_13
REMARK    6  A    between atoms: C_15  and  C_16
REMARK    7  A    between atoms: C_26  and  O_27
REMARK    8  A    between atoms: C_29  and  O_30
REMARK                            x       y       z     vdW  Elec       q    Type
REMARK                         _______ _______ _______ _____ _____    ______ ____
ROOT
ATOM      1  C   UNL     1       1.282   9.209  20.496  0.00  0.00    +0.000 A 
ATOM      2  C   UNL     1       1.646   7.869  20.255  0.00  0.00    +0.000 A 
ATOM      3  C   UNL     1       2.192   7.387  19.025  0.00  0.00    +0.000 A 
ATOM      4  C   UNL     1       2.284   8.346  18.004  0.00  0.00    +0.000 A 
ATOM      5  C   UNL     1       1.924   9.684  18.218  0.00  0.00    +0.000 A 
ATOM      6  C   UNL     1       1.446  10.120  19.452  0.00  0.00    +0.000 A 
ENDROOT
BRANCH   3   7
ATOM      7  C   UNL     1       2.693   5.918  18.909  0.00  0.00    +0.000 C 
ATOM      8  C   UNL     1       1.821   5.122  17.877  0.00  0.00    +0.000 C 
ATOM      9  C   UNL     1       2.233   3.657  17.749  0.00  0.00    +0.000 C 
ATOM     10  C   UNL     1       3.687   3.603  17.267  0.00  0.00    +0.000 C 
ATOM     11  C   UNL     1       4.596   4.315  18.280  0.00  0.00    +0.000 C 
ATOM     12  C   UNL     1       4.463   3.605  19.638  0.00  0.00    +0.000 C 
ATOM     13  C   UNL     1       3.009   3.678  20.131  0.00  0.00    +0.000 C 
ATOM     14  C   UNL     1       2.092   2.985  19.118  0.00  0.00    +0.000 C 
ATOM     15  C   UNL     1       2.593   5.156  20.272  0.00  0.00    +0.000 C 
ATOM     16  C   UNL     1       4.168   5.799  18.417  0.00  0.00    +0.000 C 
ENDBRANCH   3   7
BRANCH   1  18
ATOM     17  N   UNL     1      -0.439  10.249  21.919  0.00  0.00    +0.000 N 
ATOM     18  C   UNL     1       0.755   9.567  21.864  0.00  0.00    +0.000 C 
ATOM     19  O   UNL     1       1.388   9.257  22.870  0.00  0.00    +0.000 OA
ATOM     20  H   UNL     1      -0.914  10.438  21.033  0.00  0.00    +0.000 HD
BRANCH  17  21
ATOM     21  C   UNL     1      -1.111  10.654  23.135  0.00  0.00    +0.000 C 
BRANCH  21  27
ATOM     22  C   UNL     1      -1.064  13.170  22.528  0.00  0.00    +0.000 A 
ATOM     23  C   UNL     1      -1.725  14.406  22.538  0.00  0.00    +0.000 A 
ATOM     24  C   UNL     1      -3.026  14.534  23.009  0.00  0.00    +0.000 A 
ATOM     25  C   UNL     1      -3.698  13.406  23.475  0.00  0.00    +0.000 A 
ATOM     26  C   UNL     1      -3.056  12.169  23.484  0.00  0.00    +0.000 A 
ATOM     27  C   UNL     1      -1.725  12.029  23.040  0.00  0.00    +0.000 A 
BRANCH  22  29
ATOM     28  C   UNL     1       0.881  14.240  21.695  0.00  0.00    +0.000 C 
ATOM     29  O   UNL     1       0.227  13.024  22.074  0.00  0.00    +0.000 OA
ENDBRANCH  22  29
ENDBRANCH  21  27
ENDBRANCH  17  21
ENDBRANCH   1  18
BRANCH   4  30
ATOM     30  O   UNL     1       2.726   8.107  16.735  0.00  0.00    +0.000 OA
ATOM     31  H   UNL     1       2.003   8.197  16.103  0.00  0.00    +0.000 HD
ENDBRANCH   4  30
BRANCH   6  32
ATOM     32  O   UNL     1       1.149  11.447  19.616  0.00  0.00    +0.000 OA
ATOM     33  H   UNL     1       0.892  11.596  20.543  0.00  0.00    +0.000 HD
ENDBRANCH   6  32
TORSDOF 7
ENDMDL
MODEL 2
REMARK VINA RESULT:      -7.9      2.953      3.575
REMARK  Name = 
REMARK  8 active torsions:
REMARK  status: ('A' for Active; 'I' for Inactive)
REMARK    1  A    between atoms: C_1  and  O_2
REMARK    2  A    between atoms: O_2  and  C_3
REMARK    3  A    between atoms: C_8  and  C_9
REMARK    4  A    between atoms: C_9  and  N_10
REMARK    5  A    between atoms: C_11  and  C_13
REMARK    6  A    between atoms: C_15  and  C_16
REMARK    7  A    between atoms: C_26  and  O_27
REMARK    8  A    between atoms: C_29  and  O_30
REMARK                            x       y       z     vdW  Elec       q    Type
REMARK                         _______ _______ _______ _____ _____    ______ ____
ROOT
ATOM      1  C   UNL     1       1.460   8.828  18.883  0.00  0.00    +0.000 A 
ATOM      2  C   UNL     1       1.439   7.453  19.192  0.00  0.00    +0.000 A 
ATOM      3  C   UNL     1       2.347   6.489  18.654  0.00  0.00    +0.000 A 
ATOM      4  C   UNL     1       3.253   6.994  17.707  0.00  0.00    +0.000 A 
ATOM      5  C   UNL     1       3.290   8.357  17.381  0.00  0.00    +0.000 A 
ATOM      6  C   UNL     1       2.420   9.270  17.973  0.00  0.00    +0.000 A 
ENDROOT
BRANCH   3   7
ATOM      7  C   UNL     1       2.329   5.019  19.167  0.00  0.00    +0.000 C 
ATOM      8  C   UNL     1       1.817   4.052  18.043  0.00  0.00    +0.000 C 
ATOM      9  C   UNL     1       1.732   2.598  18.498  0.00  0.00    +0.000 C 
ATOM     10  C   UNL     1       3.136   2.134  18.904  0.00  0.00    +0.000 C 
ATOM     11  C   UNL     1       3.659   3.011  20.051  0.00  0.00    +0.000 C 
ATOM     12  C   UNL     1       2.695   2.882  21.243  0.00  0.00    +0.000 C 
ATOM     13  C   UNL     1       1.293   3.366  20.841  0.00  0.00    +0.000 C 
ATOM     14  C   UNL     1       0.769   2.508  19.685  0.00  0.00    +0.000 C 
ATOM     15  C   UNL     1       1.373   4.839  20.392  0.00  0.00    +0.000 C 
ATOM     16  C   UNL     1       3.733   4.490  19.591  0.00  0.00    +0.000 C 
ENDBRANCH   3   7
BRANCH   1  18
ATOM     17  N   UNL     1      -0.147  10.693  18.798  0.00  0.00    +0.000 N 
ATOM     18  C   UNL     1       0.457   9.725  19.567  0.00  0.00    +0.000 C 
ATOM     19  O   UNL     1       0.213   9.580  20.763  0.00  0.00    +0.000 OA
ATOM     20  H   UNL     1       0.092  10.722  17.804  0.00  0.00    +0.000 HD
BRANCH  17  21
ATOM     21  C   UNL     1      -1.148  11.626  19.269  0.00  0.00    +0.000 C 
BRANCH  21  27
ATOM     22  C   UNL     1      -3.689  12.003  18.952  0.00  0.00    +0.000 A 
ATOM     23  C   UNL     1      -4.819  11.851  18.137  0.00  0.00    +0.000 A 
ATOM     24  C   UNL     1      -4.729  11.313  16.859  0.00  0.00    +0.000 A 
ATOM     25  C   UNL     1      -3.486  10.921  16.368  0.00  0.00    +0.000 A 
ATOM     26  C   UNL     1      -2.351  11.054  17.165  0.00  0.00    +0.000 A 
ATOM     27  C   UNL     1      -2.430  11.568  18.476  0.00  0.00    +0.000 A 
BRANCH  22  29
ATOM     28  C   UNL     1      -5.077  12.620  20.772  0.00  0.00    +0.000 C 
ATOM     29  O   UNL     1      -3.757  12.525  20.224  0.00  0.00    +0.000 OA
ENDBRANCH  22  29
ENDBRANCH  21  27
ENDBRANCH  17  21
ENDBRANCH   1  18
BRANCH   4  30
ATOM     30  O   UNL     1       4.176   6.255  17.026  0.00  0.00    +0.000 OA
ATOM     31  H   UNL     1       4.986   6.167  17.543  0.00  0.00    +0.000 HD
ENDBRANCH   4  30
BRANCH   6  32
ATOM     32  O   UNL     1       2.529  10.596  17.646  0.00  0.00    +0.000 OA
ATOM     33  H   UNL     1       2.129  11.126  18.358  0.00  0.00    +0.000 HD
ENDBRANCH   6  32
TORSDOF 7
ENDMDL
MODEL 3
REMARK VINA RESULT:      -7.8      0.115      1.363
REMARK  Name = 
REMARK  8 active torsions:
REMARK  status: ('A' for Active; 'I' for Inactive)
REMARK    1  A    between atoms: C_1  and  O_2
REMARK    2  A    between atoms: O_2  and  C_3
REMARK    3  A    between atoms: C_8  and  C_9
REMARK    4  A    between atoms: C_9  and  N_10
REMARK    5  A    between atoms: C_11  and  C_13
REMARK    6  A    between atoms: C_15  and  C_16
REMARK    7  A    between atoms: C_26  and  O_27
REMARK    8  A    between atoms: C_29  and  O_30
REMARK                            x       y       z     vdW  Elec       q    Type
REMARK                         _______ _______ _______ _____ _____    ______ ____
ROOT
ATOM      1  C   UNL     1       1.306   9.205  20.463  0.00  0.00    +0.000 A 
ATOM      2  C   UNL     1       1.658   7.862  20.216  0.00  0.00    +0.000 A 
ATOM      3  C   UNL     1       2.194   7.381  18.981  0.00  0.00    +0.000 A 
ATOM      4  C   UNL     1       2.288   8.343  17.963  0.00  0.00    +0.000 A 
ATOM      5  C   UNL     1       1.940   9.683  18.184  0.00  0.00    +0.000 A 
ATOM      6  C   UNL     1       1.472  10.118  19.423  0.00  0.00    +0.000 A 
ENDROOT
BRANCH   3   7
ATOM      7  C   UNL     1       2.683   5.908  18.856  0.00  0.00    +0.000 C 
ATOM      8  C   UNL     1       4.156   5.863  18.320  0.00  0.00    +0.000 C 
ATOM      9  C   UNL     1       4.681   4.442  18.131  0.00  0.00    +0.000 C 
ATOM     10  C   UNL     1       4.660   3.733  19.490  0.00  0.00    +0.000 C 
ATOM     11  C   UNL     1       3.223   3.692  20.031  0.00  0.00    +0.000 C 
ATOM     12  C   UNL     1       2.344   2.930  19.025  0.00  0.00    +0.000 C 
ATOM     13  C   UNL     1       2.348   3.653  17.669  0.00  0.00    +0.000 C 
ATOM     14  C   UNL     1       3.781   3.714  17.128  0.00  0.00    +0.000 C 
ATOM     15  C   UNL     1       1.808   5.085  17.853  0.00  0.00    +0.000 C 
ATOM     16  C   UNL     1       2.687   5.136  20.211  0.00  0.00    +0.000 C 
ENDBRANCH   3   7
BRANCH   1  18
ATOM     17  N   UNL     1      -0.417  10.220  21.902  0.00  0.00    +0.000 N 
ATOM     18  C   UNL     1       0.789   9.561  21.836  0.00  0.00    +0.000 C 
ATOM     19  O   UNL     1       1.441   9.269  22.836  0.00  0.00    +0.000 OA
ATOM     20  H   UNL     1      -0.906  10.395  21.021  0.00  0.00    +0.000 HD
BRANCH  17  21
ATOM     21  C   UNL     1      -1.081  10.621  23.123  0.00  0.00    +0.000 C 
BRANCH  21  27
ATOM     22  C   UNL     1      -1.076  13.132  22.496  0.00  0.00    +0.000 A 
ATOM     23  C   UNL     1      -1.750  14.361  22.512  0.00  0.00    +0.000 A 
ATOM     24  C   UNL     1      -3.041  14.478  23.009  0.00  0.00    +0.000 A 
ATOM     25  C   UNL     1      -3.691  13.347  23.499  0.00  0.00    +0.000 A 
ATOM     26  C   UNL     1      -3.036  12.117  23.503  0.00  0.00    +0.000 A 
ATOM     27  C   UNL     1      -1.713  11.988  23.031  0.00  0.00    +0.000 A 
BRANCH  22  29
ATOM     28  C   UNL     1       0.886  14.226  21.738  0.00  0.00    +0.000 C 
ATOM     29  O   UNL     1       0.207  12.996  22.016  0.00  0.00    +0.000 OA
ENDBRANCH  22  29
ENDBRANCH  21  27
ENDBRANCH  17  21
ENDBRANCH   1  18
BRANCH   4  30
ATOM     30  O   UNL     1       2.722   8.106  16.691  0.00  0.00    +0.000 OA
ATOM     31  H   UNL     1       3.546   7.605  16.703  0.00  0.00    +0.000 HD
ENDBRANCH   4  30
BRANCH   6  32
ATOM     32  O   UNL     1       1.186  11.447  19.593  0.00  0.00    +0.000 OA
ATOM     33  H   UNL     1       1.701  11.961  18.947  0.00  0.00    +0.000 HD
ENDBRANCH   6  32
TORSDOF 7
ENDMDL
MODEL 4
REMARK VINA RESULT:      -7.8      0.264      1.311
REMARK  Name = 
REMARK  8 active torsions:
REMARK  status: ('A' for Active; 'I' for Inactive)
REMARK    1  A    between atoms: C_1  and  O_2
REMARK    2  A    between atoms: O_2  and  C_3
REMARK    3  A    between atoms: C_8  and  C_9
REMARK    4  A    between atoms: C_9  and  N_10
REMARK    5  A    between atoms: C_11  and  C_13
REMARK    6  A    between atoms: C_15  and  C_16
REMARK    7  A    between atoms: C_26  and  O_27
REMARK    8  A    between atoms: C_29  and  O_30
REMARK                            x       y       z     vdW  Elec       q    Type
REMARK                         _______ _______ _______ _____ _____    ______ ____
ROOT
ATOM      1  C   UNL     1       1.255   9.201  20.566  0.00  0.00    +0.000 A 
ATOM      2  C   UNL     1       1.543   7.839  20.340  0.00  0.00    +0.000 A 
ATOM      3  C   UNL     1       2.077   7.316  19.122  0.00  0.00    +0.000 A 
ATOM      4  C   UNL     1       2.239   8.259  18.095  0.00  0.00    +0.000 A 
ATOM      5  C   UNL     1       1.955   9.618  18.294  0.00  0.00    +0.000 A 
ATOM      6  C   UNL     1       1.487  10.091  19.518  0.00  0.00    +0.000 A 
ENDROOT
BRANCH   3   7
ATOM      7  C   UNL     1       2.492   5.819  19.024  0.00  0.00    +0.000 C 
ATOM      8  C   UNL     1       2.103   5.055  20.337  0.00  0.00    +0.000 C 
ATOM      9  C   UNL     1       2.525   3.588  20.323  0.00  0.00    +0.000 C 
ATOM     10  C   UNL     1       1.818   2.891  19.155  0.00  0.00    +0.000 C 
ATOM     11  C   UNL     1       2.218   3.562  17.833  0.00  0.00    +0.000 C 
ATOM     12  C   UNL     1       3.743   3.450  17.670  0.00  0.00    +0.000 C 
ATOM     13  C   UNL     1       4.451   4.166  18.830  0.00  0.00    +0.000 C 
ATOM     14  C   UNL     1       4.045   3.514  20.156  0.00  0.00    +0.000 C 
ATOM     15  C   UNL     1       4.037   5.651  18.840  0.00  0.00    +0.000 C 
ATOM     16  C   UNL     1       1.799   5.056  17.853  0.00  0.00    +0.000 C 
ENDBRANCH   3   7
BRANCH   1  18
ATOM     17  N   UNL     1      -0.480  10.252  21.964  0.00  0.00    +0.000 N 
ATOM     18  C   UNL     1       0.732   9.600  21.924  0.00  0.00    +0.000 C 
ATOM     19  O   UNL     1       1.382   9.347  22.935  0.00  0.00    +0.000 OA
ATOM     20  H   UNL     1      -0.968  10.393  21.076  0.00  0.00    +0.000 HD
BRANCH  17  21
ATOM     21  C   UNL     1      -1.151  10.689  23.169  0.00  0.00    +0.000 C 
BRANCH  21  27
ATOM     22  C   UNL     1      -1.082  13.196  22.530  0.00  0.00    +0.000 A 
ATOM     23  C   UNL     1      -1.739  14.435  22.509  0.00  0.00    +0.000 A 
ATOM     24  C   UNL     1      -3.050  14.572  22.945  0.00  0.00    +0.000 A 
ATOM     25  C   UNL     1      -3.737  13.452  23.410  0.00  0.00    +0.000 A 
ATOM     26  C   UNL     1      -3.100  12.214  23.450  0.00  0.00    +0.000 A 
ATOM     27  C   UNL     1      -1.759  12.064  23.041  0.00  0.00    +0.000 A 
BRANCH  22  29
ATOM     28  C   UNL     1       0.864  14.241  21.668  0.00  0.00    +0.000 C 
ATOM     29  O   UNL     1       0.220  13.041  22.111  0.00  0.00    +0.000 OA
ENDBRANCH  22  29
ENDBRANCH  21  27
ENDBRANCH  17  21
ENDBRANCH   1  18
BRANCH   4  30
ATOM     30  O   UNL     1       2.683   7.984  16.834  0.00  0.00    +0.000 OA
ATOM     31  H   UNL     1       1.981   8.131  16.189  0.00  0.00    +0.000 HD
ENDBRANCH   4  30
BRANCH   6  32
ATOM     32  O   UNL     1       1.266  11.435  19.667  0.00  0.00    +0.000 OA
ATOM     33  H   UNL     1       0.992  11.604  20.586  0.00  0.00    +0.000 HD
ENDBRANCH   6  32
TORSDOF 7
ENDMDL
MODEL 5
REMARK VINA RESULT:      -7.8      2.960      3.745
REMARK  Name = 
REMARK  8 active torsions:
REMARK  status: ('A' for Active; 'I' for Inactive)
REMARK    1  A    between atoms: C_1  and  O_2
REMARK    2  A    between atoms: O_2  and  C_3
REMARK    3  A    between atoms: C_8  and  C_9
REMARK    4  A    between atoms: C_9  and  N_10
REMARK    5  A    between atoms: C_11  and  C_13
REMARK    6  A    between atoms: C_15  and  C_16
REMARK    7  A    between atoms: C_26  and  O_27
REMARK    8  A    between atoms: C_29  and  O_30
REMARK                            x       y       z     vdW  Elec       q    Type
REMARK                         _______ _______ _______ _____ _____    ______ ____
ROOT
ATOM      1  C   UNL     1       1.444   8.787  18.837  0.00  0.00    +0.000 A 
ATOM      2  C   UNL     1       1.415   7.405  19.115  0.00  0.00    +0.000 A 
ATOM      3  C   UNL     1       2.334   6.452  18.578  0.00  0.00    +0.000 A 
ATOM      4  C   UNL     1       3.263   6.977  17.666  0.00  0.00    +0.000 A 
ATOM      5  C   UNL     1       3.310   8.346  17.370  0.00  0.00    +0.000 A 
ATOM      6  C   UNL     1       2.426   9.248  17.961  0.00  0.00    +0.000 A 
ENDROOT
BRANCH   3   7
ATOM      7  C   UNL     1       2.303   4.971  19.059  0.00  0.00    +0.000 C 
ATOM      8  C   UNL     1       1.284   4.799  20.238  0.00  0.00    +0.000 C 
ATOM      9  C   UNL     1       1.238   3.375  20.787  0.00  0.00    +0.000 C 
ATOM     10  C   UNL     1       0.804   2.434  19.657  0.00  0.00    +0.000 C 
ATOM     11  C   UNL     1       1.809   2.516  18.499  0.00  0.00    +0.000 C 
ATOM     12  C   UNL     1       3.195   2.105  19.025  0.00  0.00    +0.000 C 
ATOM     13  C   UNL     1       3.639   3.061  20.143  0.00  0.00    +0.000 C 
ATOM     14  C   UNL     1       2.633   2.999  21.297  0.00  0.00    +0.000 C 
ATOM     15  C   UNL     1       3.697   4.499  19.589  0.00  0.00    +0.000 C 
ATOM     16  C   UNL     1       1.862   3.966  17.951  0.00  0.00    +0.000 C 
ENDBRANCH   3   7
BRANCH   1  18
ATOM     17  N   UNL     1      -0.121  10.688  18.769  0.00  0.00    +0.000 N 
ATOM     18  C   UNL     1       0.425   9.670  19.516  0.00  0.00    +0.000 C 
ATOM     19  O   UNL     1       0.119   9.470  20.689  0.00  0.00    +0.000 OA
ATOM     20  H   UNL     1       0.168  10.761  17.790  0.00  0.00    +0.000 HD
BRANCH  17  21
ATOM     21  C   UNL     1      -1.126  11.617  19.237  0.00  0.00    +0.000 C 
BRANCH  21  27
ATOM     22  C   UNL     1      -3.666  11.994  18.911  0.00  0.00    +0.000 A 
ATOM     23  C   UNL     1      -4.794  11.836  18.093  0.00  0.00    +0.000 A 
ATOM     24  C   UNL     1      -4.701  11.289  16.820  0.00  0.00    +0.000 A 
ATOM     25  C   UNL     1      -3.457  10.893  16.335  0.00  0.00    +0.000 A 
ATOM     26  C   UNL     1      -2.324  11.031  17.134  0.00  0.00    +0.000 A 
ATOM     27  C   UNL     1      -2.406  11.554  18.441  0.00  0.00    +0.000 A 
BRANCH  22  29
ATOM     28  C   UNL     1      -5.051  12.566  20.748  0.00  0.00    +0.000 C 
ATOM     29  O   UNL     1      -3.738  12.525  20.178  0.00  0.00    +0.000 OA
ENDBRANCH  22  29
ENDBRANCH  21  27
ENDBRANCH  17  21
ENDBRANCH   1  18
BRANCH   4  30
ATOM     30  O   UNL     1       4.203   6.252  16.992  0.00  0.00    +0.000 OA
ATOM     31  H   UNL     1       4.094   6.361  16.039  0.00  0.00    +0.000 HD
ENDBRANCH   4  30
BRANCH   6  32
ATOM     32  O   UNL     1       2.544  10.580  17.666  0.00  0.00    +0.000 OA
ATOM     33  H   UNL     1       3.127  10.994  18.326  0.00  0.00    +0.000 HD
ENDBRANCH   6  32
TORSDOF 7
ENDMDL
MODEL 6
REMARK VINA RESULT:      -7.7      2.971      3.877
REMARK  Name = 
REMARK  8 active torsions:
REMARK  status: ('A' for Active; 'I' for Inactive)
REMARK    1  A    between atoms: C_1  and  O_2
REMARK    2  A    between atoms: O_2  and  C_3
REMARK    3  A    between atoms: C_8  and  C_9
REMARK    4  A    between atoms: C_9  and  N_10
REMARK    5  A    between atoms: C_11  and  C_13
REMARK    6  A    between atoms: C_15  and  C_16
REMARK    7  A    between atoms: C_26  and  O_27
REMARK    8  A    between atoms: C_29  and  O_30
REMARK                            x       y       z     vdW  Elec       q    Type
REMARK                         _______ _______ _______ _____ _____    ______ ____
ROOT
ATOM      1  C   UNL     1       1.471   8.778  18.885  0.00  0.00    +0.000 A 
ATOM      2  C   UNL     1       1.414   7.402  19.190  0.00  0.00    +0.000 A 
ATOM      3  C   UNL     1       2.297   6.417  18.649  0.00  0.00    +0.000 A 
ATOM      4  C   UNL     1       3.216   6.902  17.705  0.00  0.00    +0.000 A 
ATOM      5  C   UNL     1       3.289   8.264  17.383  0.00  0.00    +0.000 A 
ATOM      6  C   UNL     1       2.442   9.198  17.977  0.00  0.00    +0.000 A 
ENDROOT
BRANCH   3   7
ATOM      7  C   UNL     1       2.241   4.947  19.158  0.00  0.00    +0.000 C 
ATOM      8  C   UNL     1       3.666   4.467  19.606  0.00  0.00    +0.000 C 
ATOM      9  C   UNL     1       3.688   3.015  20.074  0.00  0.00    +0.000 C 
ATOM     10  C   UNL     1       2.753   2.879  21.281  0.00  0.00    +0.000 C 
ATOM     11  C   UNL     1       1.325   3.276  20.876  0.00  0.00    +0.000 C 
ATOM     12  C   UNL     1       0.862   2.345  19.743  0.00  0.00    +0.000 C 
ATOM     13  C   UNL     1       1.788   2.496  18.526  0.00  0.00    +0.000 C 
ATOM     14  C   UNL     1       3.219   2.119  18.924  0.00  0.00    +0.000 C 
ATOM     15  C   UNL     1       1.758   3.960  18.043  0.00  0.00    +0.000 C 
ATOM     16  C   UNL     1       1.306   4.749  20.390  0.00  0.00    +0.000 C 
ENDBRANCH   3   7
BRANCH   1  18
ATOM     17  N   UNL     1      -0.174  10.608  18.782  0.00  0.00    +0.000 N 
ATOM     18  C   UNL     1       0.491   9.698  19.572  0.00  0.00    +0.000 C 
ATOM     19  O   UNL     1       0.317   9.621  20.785  0.00  0.00    +0.000 OA
ATOM     20  H   UNL     1       0.008  10.582  17.776  0.00  0.00    +0.000 HD
BRANCH  17  21
ATOM     21  C   UNL     1      -1.164  11.552  19.255  0.00  0.00    +0.000 C 
BRANCH  21  27
ATOM     22  C   UNL     1      -3.697  11.963  18.914  0.00  0.00    +0.000 A 
ATOM     23  C   UNL     1      -4.817  11.846  18.079  0.00  0.00    +0.000 A 
ATOM     24  C   UNL     1      -4.715  11.345  16.788  0.00  0.00    +0.000 A 
ATOM     25  C   UNL     1      -3.469  10.955  16.302  0.00  0.00    +0.000 A 
ATOM     26  C   UNL     1      -2.343  11.053  17.118  0.00  0.00    +0.000 A 
ATOM     27  C   UNL     1      -2.436  11.530  18.442  0.00  0.00    +0.000 A 
BRANCH  22  29
ATOM     28  C   UNL     1      -5.108  12.636  20.697  0.00  0.00    +0.000 C 
ATOM     29  O   UNL     1      -3.778  12.449  20.199  0.00  0.00    +0.000 OA
ENDBRANCH  22  29
ENDBRANCH  21  27
ENDBRANCH  17  21
ENDBRANCH   1  18
BRANCH   4  30
ATOM     30  O   UNL     1       4.121   6.141  17.022  0.00  0.00    +0.000 OA
ATOM     31  H   UNL     1       4.980   6.163  17.461  0.00  0.00    +0.000 HD
ENDBRANCH   4  30
BRANCH   6  32
ATOM     32  O   UNL     1       2.586  10.521  17.654  0.00  0.00    +0.000 OA
ATOM     33  H   UNL     1       1.997  10.725  16.906  0.00  0.00    +0.000 HD
ENDBRANCH   6  32
TORSDOF 7
ENDMDL
MODEL 7
REMARK VINA RESULT:      -7.7      3.297      4.470
REMARK  Name = 
REMARK  8 active torsions:
REMARK  status: ('A' for Active; 'I' for Inactive)
REMARK    1  A    between atoms: C_1  and  O_2
REMARK    2  A    between atoms: O_2  and  C_3
REMARK    3  A    between atoms: C_8  and  C_9
REMARK    4  A    between atoms: C_9  and  N_10
REMARK    5  A    between atoms: C_11  and  C_13
REMARK    6  A    between atoms: C_15  and  C_16
REMARK    7  A    between atoms: C_26  and  O_27
REMARK    8  A    between atoms: C_29  and  O_30
REMARK                            x       y       z     vdW  Elec       q    Type
REMARK                         _______ _______ _______ _____ _____    ______ ____
ROOT
ATOM      1  C   UNL     1       1.208   9.026  19.451  0.00  0.00    +0.000 A 
ATOM      2  C   UNL     1       2.197   8.251  18.812  0.00  0.00    +0.000 A 
ATOM      3  C   UNL     1       2.655   6.980  19.278  0.00  0.00    +0.000 A 
ATOM      4  C   UNL     1       2.096   6.560  20.495  0.00  0.00    +0.000 A 
ATOM      5  C   UNL     1       1.114   7.316  21.152  0.00  0.00    +0.000 A 
ATOM      6  C   UNL     1       0.658   8.525  20.630  0.00  0.00    +0.000 A 
ENDROOT
BRANCH   3   7
ATOM      7  C   UNL     1       3.649   6.140  18.423  0.00  0.00    +0.000 C 
ATOM      8  C   UNL     1       4.813   5.589  19.319  0.00  0.00    +0.000 C 
ATOM      9  C   UNL     1       5.849   4.792  18.530  0.00  0.00    +0.000 C 
ATOM     10  C   UNL     1       5.149   3.589  17.888  0.00  0.00    +0.000 C 
ATOM     11  C   UNL     1       4.039   4.078  16.946  0.00  0.00    +0.000 C 
ATOM     12  C   UNL     1       4.674   4.962  15.859  0.00  0.00    +0.000 C 
ATOM     13  C   UNL     1       5.357   6.179  16.502  0.00  0.00    +0.000 C 
ATOM     14  C   UNL     1       6.456   5.701  17.457  0.00  0.00    +0.000 C 
ATOM     15  C   UNL     1       4.311   6.993  17.290  0.00  0.00    +0.000 C 
ATOM     16  C   UNL     1       2.993   4.898  17.747  0.00  0.00    +0.000 C 
ENDBRANCH   3   7
BRANCH   1  18
ATOM     17  N   UNL     1      -0.544  10.570  18.666  0.00  0.00    +0.000 N 
ATOM     18  C   UNL     1       0.804  10.331  18.809  0.00  0.00    +0.000 C 
ATOM     19  O   UNL     1       1.662  11.127  18.434  0.00  0.00    +0.000 OA
ATOM     20  H   UNL     1      -1.188   9.867  19.036  0.00  0.00    +0.000 HD
BRANCH  17  21
ATOM     21  C   UNL     1      -1.121  11.770  18.099  0.00  0.00    +0.000 C 
BRANCH  21  27
ATOM     22  C   UNL     1      -3.287  11.303  16.762  0.00  0.00    +0.000 A 
ATOM     23  C   UNL     1      -4.689  11.316  16.730  0.00  0.00    +0.000 A 
ATOM     24  C   UNL     1      -5.440  11.669  17.844  0.00  0.00    +0.000 A 
ATOM     25  C   UNL     1      -4.790  12.011  19.028  0.00  0.00    +0.000 A 
ATOM     26  C   UNL     1      -3.397  12.014  19.079  0.00  0.00    +0.000 A 
ATOM     27  C   UNL     1      -2.620  11.690  17.948  0.00  0.00    +0.000 A 
BRANCH  22  29
ATOM     28  C   UNL     1      -3.177  10.131  14.704  0.00  0.00    +0.000 C 
ATOM     29  O   UNL     1      -2.524  10.965  15.668  0.00  0.00    +0.000 OA
ENDBRANCH  22  29
ENDBRANCH  21  27
ENDBRANCH  17  21
ENDBRANCH   1  18
BRANCH   4  30
ATOM     30  O   UNL     1       2.416   5.410  21.156  0.00  0.00    +0.000 OA
ATOM     31  H   UNL     1       3.369   5.353  21.292  0.00  0.00    +0.000 HD
ENDBRANCH   4  30
BRANCH   6  32
ATOM     32  O   UNL     1      -0.332   9.200  21.294  0.00  0.00    +0.000 OA
ATOM     33  H   UNL     1       0.071   9.712  22.017  0.00  0.00    +0.000 HD
ENDBRANCH   6  32
TORSDOF 7
ENDMDL
MODEL 8
REMARK VINA RESULT:      -7.7      1.031      1.800
REMARK  Name = 
REMARK  8 active torsions:
REMARK  status: ('A' for Active; 'I' for Inactive)
REMARK    1  A    between atoms: C_1  and  O_2
REMARK    2  A    between atoms: O_2  and  C_3
REMARK    3  A    between atoms: C_8  and  C_9
REMARK    4  A    between atoms: C_9  and  N_10
REMARK    5  A    between atoms: C_11  and  C_13
REMARK    6  A    between atoms: C_15  and  C_16
REMARK    7  A    between atoms: C_26  and  O_27
REMARK    8  A    between atoms: C_29  and  O_30
REMARK                            x       y       z     vdW  Elec       q    Type
REMARK                         _______ _______ _______ _____ _____    ______ ____
ROOT
ATOM      1  C   UNL     1       1.236   9.097  20.621  0.00  0.00    +0.000 A 
ATOM      2  C   UNL     1       1.532   7.732  20.435  0.00  0.00    +0.000 A 
ATOM      3  C   UNL     1       2.093   7.180  19.242  0.00  0.00    +0.000 A 
ATOM      4  C   UNL     1       2.276   8.099  18.196  0.00  0.00    +0.000 A 
ATOM      5  C   UNL     1       1.985   9.461  18.355  0.00  0.00    +0.000 A 
ATOM      6  C   UNL     1       1.489   9.963  19.557  0.00  0.00    +0.000 A 
ENDROOT
BRANCH   3   7
ATOM      7  C   UNL     1       2.513   5.682  19.189  0.00  0.00    +0.000 C 
ATOM      8  C   UNL     1       1.995   5.014  17.868  0.00  0.00    +0.000 C 
ATOM      9  C   UNL     1       2.336   3.529  17.776  0.00  0.00    +0.000 C 
ATOM     10  C   UNL     1       3.861   3.378  17.804  0.00  0.00    +0.000 C 
ATOM     11  C   UNL     1       4.415   3.961  19.112  0.00  0.00    +0.000 C 
ATOM     12  C   UNL     1       3.788   3.198  20.291  0.00  0.00    +0.000 C 
ATOM     13  C   UNL     1       2.261   3.366  20.275  0.00  0.00    +0.000 C 
ATOM     14  C   UNL     1       1.700   2.803  18.965  0.00  0.00    +0.000 C 
ATOM     15  C   UNL     1       1.913   4.864  20.380  0.00  0.00    +0.000 C 
ATOM     16  C   UNL     1       4.058   5.467  19.210  0.00  0.00    +0.000 C 
ENDBRANCH   3   7
BRANCH   1  18
ATOM     17  N   UNL     1      -0.509  10.218  21.950  0.00  0.00    +0.000 N 
ATOM     18  C   UNL     1       0.682   9.528  21.957  0.00  0.00    +0.000 C 
ATOM     19  O   UNL     1       1.290   9.267  22.992  0.00  0.00    +0.000 OA
ATOM     20  H   UNL     1      -0.964  10.364  21.045  0.00  0.00    +0.000 HD
BRANCH  17  21
ATOM     21  C   UNL     1      -1.205  10.689  23.128  0.00  0.00    +0.000 C 
BRANCH  21  27
ATOM     22  C   UNL     1      -2.854  12.653  23.478  0.00  0.00    +0.000 A 
ATOM     23  C   UNL     1      -3.140  14.012  23.288  0.00  0.00    +0.000 A 
ATOM     24  C   UNL     1      -2.222  14.874  22.701  0.00  0.00    +0.000 A 
ATOM     25  C   UNL     1      -0.983  14.383  22.297  0.00  0.00    +0.000 A 
ATOM     26  C   UNL     1      -0.682  13.033  22.468  0.00  0.00    +0.000 A 
ATOM     27  C   UNL     1      -1.614  12.139  23.032  0.00  0.00    +0.000 A 
BRANCH  22  29
ATOM     28  C   UNL     1      -4.839  12.397  24.749  0.00  0.00    +0.000 C 
ATOM     29  O   UNL     1      -3.752  11.780  24.049  0.00  0.00    +0.000 OA
ENDBRANCH  22  29
ENDBRANCH  21  27
ENDBRANCH  17  21
ENDBRANCH   1  18
BRANCH   4  30
ATOM     30  O   UNL     1       2.749   7.795  16.952  0.00  0.00    +0.000 OA
ATOM     31  H   UNL     1       3.596   7.337  17.016  0.00  0.00    +0.000 HD
ENDBRANCH   4  30
BRANCH   6  32
ATOM     32  O   UNL     1       1.262  11.309  19.669  0.00  0.00    +0.000 OA
ATOM     33  H   UNL     1       1.726  11.638  20.459  0.00  0.00    +0.000 HD
ENDBRANCH   6  32
TORSDOF 7
ENDMDL
MODEL 9
REMARK VINA RESULT:      -7.6      2.733      5.111
REMARK  Name = 
REMARK  8 active torsions:
REMARK  status: ('A' for Active; 'I' for Inactive)
REMARK    1  A    between atoms: C_1  and  O_2
REMARK    2  A    between atoms: O_2  and  C_3
REMARK    3  A    between atoms: C_8  and  C_9
REMARK    4  A    between atoms: C_9  and  N_10
REMARK    5  A    between atoms: C_11  and  C_13
REMARK    6  A    between atoms: C_15  and  C_16
REMARK    7  A    between atoms: C_26  and  O_27
REMARK    8  A    between atoms: C_29  and  O_30
REMARK                            x       y       z     vdW  Elec       q    Type
REMARK                         _______ _______ _______ _____ _____    ______ ____
ROOT
ATOM      1  C   UNL     1       1.904   4.745  20.135  0.00  0.00    +0.000 A 
ATOM      2  C   UNL     1       2.977   5.104  19.294  0.00  0.00    +0.000 A 
ATOM      3  C   UNL     1       3.853   4.171  18.657  0.00  0.00    +0.000 A 
ATOM      4  C   UNL     1       3.621   2.825  18.983  0.00  0.00    +0.000 A 
ATOM      5  C   UNL     1       2.562   2.444  19.820  0.00  0.00    +0.000 A 
ATOM      6  C   UNL     1       1.700   3.387  20.376  0.00  0.00    +0.000 A 
ENDROOT
BRANCH   3   7
ATOM      7  C   UNL     1       4.919   4.664  17.635  0.00  0.00    +0.000 C 
ATOM      8  C   UNL     1       4.799   6.213  17.422  0.00  0.00    +0.000 C 
ATOM      9  C   UNL     1       5.790   6.754  16.395  0.00  0.00    +0.000 C 
ATOM     10  C   UNL     1       7.211   6.464  16.891  0.00  0.00    +0.000 C 
ATOM     11  C   UNL     1       7.402   4.948  17.055  0.00  0.00    +0.000 C 
ATOM     12  C   UNL     1       7.173   4.277  15.690  0.00  0.00    +0.000 C 
ATOM     13  C   UNL     1       5.742   4.552  15.202  0.00  0.00    +0.000 C 
ATOM     14  C   UNL     1       5.535   6.063  15.052  0.00  0.00    +0.000 C 
ATOM     15  C   UNL     1       4.738   3.996  16.232  0.00  0.00    +0.000 C 
ATOM     16  C   UNL     1       6.387   4.398  18.090  0.00  0.00    +0.000 C 
ENDBRANCH   3   7
BRANCH   1  18
ATOM     17  N   UNL     1       1.677   7.025  21.040  0.00  0.00    +0.000 N 
ATOM     18  C   UNL     1       1.045   5.850  20.700  0.00  0.00    +0.000 C 
ATOM     19  O   UNL     1      -0.163   5.681  20.845  0.00  0.00    +0.000 OA
ATOM     20  H   UNL     1       2.681   7.090  20.856  0.00  0.00    +0.000 HD
BRANCH  17  21
ATOM     21  C   UNL     1       1.019   8.199  21.572  0.00  0.00    +0.000 C 
BRANCH  21  27
ATOM     22  C   UNL     1       0.714  10.698  20.969  0.00  0.00    +0.000 A 
ATOM     23  C   UNL     1       0.707  11.687  19.976  0.00  0.00    +0.000 A 
ATOM     24  C   UNL     1       1.031  11.398  18.657  0.00  0.00    +0.000 A 
ATOM     25  C   UNL     1       1.381  10.095  18.308  0.00  0.00    +0.000 A 
ATOM     26  C   UNL     1       1.385   9.094  19.277  0.00  0.00    +0.000 A 
ATOM     27  C   UNL     1       1.027   9.365  20.613  0.00  0.00    +0.000 A 
BRANCH  22  29
ATOM     28  C   UNL     1      -0.981  11.319  22.506  0.00  0.00    +0.000 C 
ATOM     29  O   UNL     1       0.387  10.961  22.280  0.00  0.00    +0.000 OA
ENDBRANCH  22  29
ENDBRANCH  21  27
ENDBRANCH  17  21
ENDBRANCH   1  18
BRANCH   4  30
ATOM     30  O   UNL     1       4.358   1.767  18.537  0.00  0.00    +0.000 OA
ATOM     31  H   UNL     1       4.307   1.702  17.576  0.00  0.00    +0.000 HD
ENDBRANCH   4  30
BRANCH   6  32
ATOM     32  O   UNL     1       0.658   2.954  21.153  0.00  0.00    +0.000 OA
ATOM     33  H   UNL     1       1.012   2.383  21.857  0.00  0.00    +0.000 HD
ENDBRANCH   6  32
TORSDOF 7
ENDMDL
