MODEL 1
REMARK VINA RESULT:      -7.8      0.000      0.000
REMARK  Name = 
REMARK  9 active torsions:
REMARK  status: ('A' for Active; 'I' for Inactive)
REMARK    1  A    between atoms: C_1  and  C_2
REMARK    2  A    between atoms: C_7  and  C_8
REMARK    3  A    between atoms: C_11  and  C_12
REMARK    4  A    between atoms: C_13  and  C_14
REMARK    5  A    between atoms: C_13  and  C_15
REMARK    6  A    between atoms: C_15  and  C_16
REMARK    7  A    between atoms: C_17  and  O_18
REMARK    8  A    between atoms: C_21  and  O_22
REMARK    9  A    between atoms: C_23  and  O_24
REMARK                            x       y       z     vdW  Elec       q    Type
REMARK                         _______ _______ _______ _____ _____    ______ ____
ROOT
ATOM      1  C   UNL     1       3.052   2.879  20.630  0.00  0.00    +0.000 C 
ATOM      2  C   UNL     1       2.342   3.692  19.549  0.00  0.00    +0.000 C 
ATOM      3  C   UNL     1       1.406   3.033  18.817  0.00  0.00    +0.000 C 
ATOM      4  C   UNL     1       1.974   2.174  17.697  0.00  0.00    +0.000 C 
ATOM      5  C   UNL     1       2.956   2.974  16.810  0.00  0.00    +0.000 C 
ATOM      6  C   UNL     1       3.938   3.796  17.680  0.00  0.00    +0.000 C 
ATOM      7  C   UNL     1       3.215   4.720  18.756  0.00  0.00    +0.000 C 
ATOM      8  C   UNL     1       2.229   5.777  18.167  0.00  0.00    +0.000 C 
ATOM      9  C   UNL     1       4.219   5.525  19.664  0.00  0.00    +0.000 C 
ATOM     10  C   UNL     1       5.668   5.730  19.171  0.00  0.00    +0.000 C 
ATOM     11  C   UNL     1       6.174   4.620  18.230  0.00  0.00    +0.000 C 
ATOM     12  C   UNL     1       7.675   4.732  17.958  0.00  0.00    +0.000 C 
ATOM     13  C   UNL     1       5.187   4.446  17.001  0.00  0.00    +0.000 C 
ATOM     14  C   UNL     1       4.829   5.839  16.372  0.00  0.00    +0.000 C 
ENDROOT
BRANCH  13  15
ATOM     15  C   UNL     1       5.725   3.684  15.728  0.00  0.00    +0.000 C 
BRANCH  15  16
ATOM     16  C   UNL     1       6.141   4.169  14.354  0.00  0.00    +0.000 A 
ATOM     17  C   UNL     1       5.629   3.709  13.145  0.00  0.00    +0.000 A 
ATOM     18  C   UNL     1       6.280   3.945  11.926  0.00  0.00    +0.000 A 
ATOM     19  C   UNL     1       7.423   4.734  11.856  0.00  0.00    +0.000 A 
ATOM     20  C   UNL     1       7.907   5.280  13.028  0.00  0.00    +0.000 A 
ATOM     21  C   UNL     1       7.292   4.987  14.251  0.00  0.00    +0.000 A 
BRANCH  17  22
ATOM     22  O   UNL     1       4.463   3.022  13.048  0.00  0.00    +0.000 OA
ATOM     23  H   UNL     1       4.697   2.101  13.236  0.00  0.00    +0.000 HD
ENDBRANCH  17  22
BRANCH  20  24
ATOM     24  O   UNL     1       9.003   6.101  13.044  0.00  0.00    +0.000 OA
ATOM     25  H   UNL     1       9.324   6.151  13.962  0.00  0.00    +0.000 HD
ENDBRANCH  20  24
BRANCH  21  26
ATOM     26  O   UNL     1       7.876   5.526  15.376  0.00  0.00    +0.000 OA
ATOM     27  H   UNL     1       8.425   4.802  15.743  0.00  0.00    +0.000 HD
ENDBRANCH  21  26
ENDBRANCH  15  16
ENDBRANCH  13  15
TORSDOF 5
ENDMDL
MODEL 2
REMARK VINA RESULT:      -7.5      3.788      6.942
REMARK  Name = 
REMARK  9 active torsions:
REMARK  status: ('A' for Active; 'I' for Inactive)
REMARK    1  A    between atoms: C_1  and  C_2
REMARK    2  A    between atoms: C_7  and  C_8
REMARK    3  A    between atoms: C_11  and  C_12
REMARK    4  A    between atoms: C_13  and  C_14
REMARK    5  A    between atoms: C_13  and  C_15
REMARK    6  A    between atoms: C_15  and  C_16
REMARK    7  A    between atoms: C_17  and  O_18
REMARK    8  A    between atoms: C_21  and  O_22
REMARK    9  A    between atoms: C_23  and  O_24
REMARK                            x       y       z     vdW  Elec       q    Type
REMARK                         _______ _______ _______ _____ _____    ______ ____
ROOT
ATOM      1  C   UNL     1       7.299   5.554  19.462  0.00  0.00    +0.000 C 
ATOM      2  C   UNL     1       6.751   5.300  18.058  0.00  0.00    +0.000 C 
ATOM      3  C   UNL     1       6.997   6.264  17.134  0.00  0.00    +0.000 C 
ATOM      4  C   UNL     1       6.058   7.460  17.206  0.00  0.00    +0.000 C 
ATOM      5  C   UNL     1       4.577   7.018  17.215  0.00  0.00    +0.000 C 
ATOM      6  C   UNL     1       4.357   5.847  18.202  0.00  0.00    +0.000 C 
ATOM      7  C   UNL     1       5.345   4.621  17.966  0.00  0.00    +0.000 C 
ATOM      8  C   UNL     1       5.262   3.966  16.552  0.00  0.00    +0.000 C 
ATOM      9  C   UNL     1       5.144   3.448  18.997  0.00  0.00    +0.000 C 
ATOM     10  C   UNL     1       3.810   3.357  19.769  0.00  0.00    +0.000 C 
ATOM     11  C   UNL     1       3.108   4.712  19.973  0.00  0.00    +0.000 C 
ATOM     12  C   UNL     1       1.926   4.613  20.938  0.00  0.00    +0.000 C 
ATOM     13  C   UNL     1       2.896   5.439  18.579  0.00  0.00    +0.000 C 
ATOM     14  C   UNL     1       2.293   4.449  17.521  0.00  0.00    +0.000 C 
ENDROOT
BRANCH  13  15
ATOM     15  C   UNL     1       1.840   6.610  18.513  0.00  0.00    +0.000 C 
BRANCH  15  16
ATOM     16  C   UNL     1       1.782   7.964  19.191  0.00  0.00    +0.000 A 
ATOM     17  C   UNL     1       1.518   8.183  20.539  0.00  0.00    +0.000 A 
ATOM     18  C   UNL     1       1.149   9.444  21.028  0.00  0.00    +0.000 A 
ATOM     19  C   UNL     1       1.120  10.561  20.201  0.00  0.00    +0.000 A 
ATOM     20  C   UNL     1       1.463  10.395  18.874  0.00  0.00    +0.000 A 
ATOM     21  C   UNL     1       1.766   9.122  18.376  0.00  0.00    +0.000 A 
BRANCH  17  22
ATOM     22  O   UNL     1       1.617   7.211  21.481  0.00  0.00    +0.000 OA
ATOM     23  H   UNL     1       1.685   7.683  22.324  0.00  0.00    +0.000 HD
ENDBRANCH  17  22
BRANCH  20  24
ATOM     24  O   UNL     1       1.499  11.448  17.999  0.00  0.00    +0.000 OA
ATOM     25  H   UNL     1       2.222  12.039  18.274  0.00  0.00    +0.000 HD
ENDBRANCH  20  24
BRANCH  21  26
ATOM     26  O   UNL     1       2.039   9.039  17.029  0.00  0.00    +0.000 OA
ATOM     27  H   UNL     1       1.898   9.947  16.689  0.00  0.00    +0.000 HD
ENDBRANCH  21  26
ENDBRANCH  15  16
ENDBRANCH  13  15
TORSDOF 5
ENDMDL
MODEL 3
REMARK VINA RESULT:      -7.0      3.728      6.414
REMARK  Name = 
REMARK  9 active torsions:
REMARK  status: ('A' for Active; 'I' for Inactive)
REMARK    1  A    between atoms: C_1  and  C_2
REMARK    2  A    between atoms: C_7  and  C_8
REMARK    3  A    between atoms: C_11  and  C_12
REMARK    4  A    between atoms: C_13  and  C_14
REMARK    5  A    between atoms: C_13  and  C_15
REMARK    6  A    between atoms: C_15  and  C_16
REMARK    7  A    between atoms: C_17  and  O_18
REMARK    8  A    between atoms: C_21  and  O_22
REMARK    9  A    between atoms: C_23  and  O_24
REMARK                            x       y       z     vdW  Elec       q    Type
REMARK                         _______ _______ _______ _____ _____    ______ ____
ROOT
ATOM      1  C   UNL     1       1.161   2.106  17.999  0.00  0.00    +0.000 C 
ATOM      2  C   UNL     1       2.053   2.161  19.239  0.00  0.00    +0.000 C 
ATOM      3  C   UNL     1       1.416   2.282  20.432  0.00  0.00    +0.000 C 
ATOM      4  C   UNL     1       0.979   3.700  20.772  0.00  0.00    +0.000 C 
ATOM      5  C   UNL     1       2.145   4.704  20.624  0.00  0.00    +0.000 C 
ATOM      6  C   UNL     1       2.913   4.465  19.301  0.00  0.00    +0.000 C 
ATOM      7  C   UNL     1       3.392   2.959  19.106  0.00  0.00    +0.000 C 
ATOM      8  C   UNL     1       4.342   2.416  20.218  0.00  0.00    +0.000 C 
ATOM      9  C   UNL     1       4.138   2.712  17.741  0.00  0.00    +0.000 C 
ATOM     10  C   UNL     1       4.737   3.922  16.991  0.00  0.00    +0.000 C 
ATOM     11  C   UNL     1       4.007   5.251  17.260  0.00  0.00    +0.000 C 
ATOM     12  C   UNL     1       4.474   6.368  16.325  0.00  0.00    +0.000 C 
ATOM     13  C   UNL     1       3.940   5.539  18.818  0.00  0.00    +0.000 C 
ATOM     14  C   UNL     1       5.344   5.322  19.485  0.00  0.00    +0.000 C 
ENDROOT
BRANCH  13  15
ATOM     15  C   UNL     1       3.626   7.016  19.280  0.00  0.00    +0.000 C 
BRANCH  15  16
ATOM     16  C   UNL     1       2.396   7.887  19.127  0.00  0.00    +0.000 A 
ATOM     17  C   UNL     1       2.073   8.641  18.004  0.00  0.00    +0.000 A 
ATOM     18  C   UNL     1       1.122   9.670  18.049  0.00  0.00    +0.000 A 
ATOM     19  C   UNL     1       0.384   9.925  19.199  0.00  0.00    +0.000 A 
ATOM     20  C   UNL     1       0.617   9.135  20.307  0.00  0.00    +0.000 A 
ATOM     21  C   UNL     1       1.615   8.153  20.279  0.00  0.00    +0.000 A 
BRANCH  17  22
ATOM     22  O   UNL     1       2.631   8.430  16.784  0.00  0.00    +0.000 OA
ATOM     23  H   UNL     1       3.385   9.036  16.745  0.00  0.00    +0.000 HD
ENDBRANCH  17  22
BRANCH  20  24
ATOM     24  O   UNL     1      -0.092   9.291  21.469  0.00  0.00    +0.000 OA
ATOM     25  H   UNL     1      -0.433   8.418  21.729  0.00  0.00    +0.000 HD
ENDBRANCH  20  24
BRANCH  21  26
ATOM     26  O   UNL     1       1.821   7.453  21.446  0.00  0.00    +0.000 OA
ATOM     27  H   UNL     1       2.321   8.068  22.021  0.00  0.00    +0.000 HD
ENDBRANCH  21  26
ENDBRANCH  15  16
ENDBRANCH  13  15
TORSDOF 5
ENDMDL
MODEL 4
REMARK VINA RESULT:      -6.8      6.137      8.684
REMARK  Name = 
REMARK  9 active torsions:
REMARK  status: ('A' for Active; 'I' for Inactive)
REMARK    1  A    between atoms: C_1  and  C_2
REMARK    2  A    between atoms: C_7  and  C_8
REMARK    3  A    between atoms: C_11  and  C_12
REMARK    4  A    between atoms: C_13  and  C_14
REMARK    5  A    between atoms: C_13  and  C_15
REMARK    6  A    between atoms: C_15  and  C_16
REMARK    7  A    between atoms: C_17  and  O_18
REMARK    8  A    between atoms: C_21  and  O_22
REMARK    9  A    between atoms: C_23  and  O_24
REMARK                            x       y       z     vdW  Elec       q    Type
REMARK                         _______ _______ _______ _____ _____    ______ ____
ROOT
ATOM      1  C   UNL     1      -4.152  11.724  19.074  0.00  0.00    +0.000 C 
ATOM      2  C   UNL     1      -2.927  12.033  18.215  0.00  0.00    +0.000 C 
ATOM      3  C   UNL     1      -2.916  11.494  16.968  0.00  0.00    +0.000 C 
ATOM      4  C   UNL     1      -2.494  10.033  16.917  0.00  0.00    +0.000 C 
ATOM      5  C   UNL     1      -1.164   9.800  17.670  0.00  0.00    +0.000 C 
ATOM      6  C   UNL     1      -1.174  10.518  19.040  0.00  0.00    +0.000 C 
ATOM      7  C   UNL     1      -1.545  12.064  18.947  0.00  0.00    +0.000 C 
ATOM      8  C   UNL     1      -0.593  12.923  18.058  0.00  0.00    +0.000 C 
ATOM      9  C   UNL     1      -1.593  12.781  20.349  0.00  0.00    +0.000 C 
ATOM     10  C   UNL     1      -0.860  12.131  21.542  0.00  0.00    +0.000 C 
ATOM     11  C   UNL     1      -0.741  10.599  21.447  0.00  0.00    +0.000 C 
ATOM     12  C   UNL     1      -0.229   9.975  22.746  0.00  0.00    +0.000 C 
ATOM     13  C   UNL     1      -0.054  10.183  20.078  0.00  0.00    +0.000 C 
ATOM     14  C   UNL     1       1.235  11.039  19.819  0.00  0.00    +0.000 C 
ENDROOT
BRANCH  13  15
ATOM     15  C   UNL     1       0.541   8.725  19.968  0.00  0.00    +0.000 C 
BRANCH  15  16
ATOM     16  C   UNL     1       1.779   8.183  19.282  0.00  0.00    +0.000 A 
ATOM     17  C   UNL     1       2.254   8.583  18.037  0.00  0.00    +0.000 A 
ATOM     18  C   UNL     1       3.188   7.822  17.321  0.00  0.00    +0.000 A 
ATOM     19  C   UNL     1       3.756   6.674  17.861  0.00  0.00    +0.000 A 
ATOM     20  C   UNL     1       3.371   6.297  19.132  0.00  0.00    +0.000 A 
ATOM     21  C   UNL     1       2.389   7.023  19.818  0.00  0.00    +0.000 A 
BRANCH  17  22
ATOM     22  O   UNL     1       1.874   9.739  17.436  0.00  0.00    +0.000 OA
ATOM     23  H   UNL     1       2.218  10.443  18.005  0.00  0.00    +0.000 HD
ENDBRANCH  17  22
BRANCH  20  24
ATOM     24  O   UNL     1       3.909   5.203  19.756  0.00  0.00    +0.000 OA
ATOM     25  H   UNL     1       4.115   5.455  20.674  0.00  0.00    +0.000 HD
ENDBRANCH  20  24
BRANCH  21  26
ATOM     26  O   UNL     1       2.022   6.542  21.055  0.00  0.00    +0.000 OA
ATOM     27  H   UNL     1       2.301   5.603  21.051  0.00  0.00    +0.000 HD
ENDBRANCH  21  26
ENDBRANCH  15  16
ENDBRANCH  13  15
TORSDOF 5
ENDMDL
MODEL 5
REMARK VINA RESULT:      -6.7      3.845      6.523
REMARK  Name = 
REMARK  9 active torsions:
REMARK  status: ('A' for Active; 'I' for Inactive)
REMARK    1  A    between atoms: C_1  and  C_2
REMARK    2  A    between atoms: C_7  and  C_8
REMARK    3  A    between atoms: C_11  and  C_12
REMARK    4  A    between atoms: C_13  and  C_14
REMARK    5  A    between atoms: C_13  and  C_15
REMARK    6  A    between atoms: C_15  and  C_16
REMARK    7  A    between atoms: C_17  and  O_18
REMARK    8  A    between atoms: C_21  and  O_22
REMARK    9  A    between atoms: C_23  and  O_24
REMARK                            x       y       z     vdW  Elec       q    Type
REMARK                         _______ _______ _______ _____ _____    ______ ____
ROOT
ATOM      1  C   UNL     1       3.052   1.662  17.087  0.00  0.00    +0.000 C 
ATOM      2  C   UNL     1       3.032   2.133  18.541  0.00  0.00    +0.000 C 
ATOM      3  C   UNL     1       1.872   1.939  19.220  0.00  0.00    +0.000 C 
ATOM      4  C   UNL     1       0.799   2.982  18.943  0.00  0.00    +0.000 C 
ATOM      5  C   UNL     1       1.346   4.418  19.112  0.00  0.00    +0.000 C 
ATOM      6  C   UNL     1       2.720   4.569  18.415  0.00  0.00    +0.000 C 
ATOM      7  C   UNL     1       3.782   3.469  18.856  0.00  0.00    +0.000 C 
ATOM      8  C   UNL     1       4.114   3.440  20.380  0.00  0.00    +0.000 C 
ATOM      9  C   UNL     1       5.166   3.603  18.115  0.00  0.00    +0.000 C 
ATOM     10  C   UNL     1       5.529   4.951  17.457  0.00  0.00    +0.000 C 
ATOM     11  C   UNL     1       4.311   5.778  17.004  0.00  0.00    +0.000 C 
ATOM     12  C   UNL     1       4.712   6.982  16.150  0.00  0.00    +0.000 C 
ATOM     13  C   UNL     1       3.313   6.001  18.218  0.00  0.00    +0.000 C 
ATOM     14  C   UNL     1       4.090   6.475  19.496  0.00  0.00    +0.000 C 
ENDROOT
BRANCH  13  15
ATOM     15  C   UNL     1       2.243   7.154  18.087  0.00  0.00    +0.000 C 
BRANCH  15  16
ATOM     16  C   UNL     1       1.878   8.309  18.997  0.00  0.00    +0.000 A 
ATOM     17  C   UNL     1       1.455   8.194  20.318  0.00  0.00    +0.000 A 
ATOM     18  C   UNL     1       0.819   9.249  20.987  0.00  0.00    +0.000 A 
ATOM     19  C   UNL     1       0.663  10.495  20.393  0.00  0.00    +0.000 A 
ATOM     20  C   UNL     1       1.152  10.669  19.113  0.00  0.00    +0.000 A 
ATOM     21  C   UNL     1       1.727   9.594  18.423  0.00  0.00    +0.000 A 
BRANCH  17  22
ATOM     22  O   UNL     1       1.642   7.074  21.061  0.00  0.00    +0.000 OA
ATOM     23  H   UNL     1       1.622   7.376  21.981  0.00  0.00    +0.000 HD
ENDBRANCH  17  22
BRANCH  20  24
ATOM     24  O   UNL     1       1.076  11.874  18.467  0.00  0.00    +0.000 OA
ATOM     25  H   UNL     1       0.520  12.466  19.004  0.00  0.00    +0.000 HD
ENDBRANCH  20  24
BRANCH  21  26
ATOM     26  O   UNL     1       2.132   9.841  17.131  0.00  0.00    +0.000 OA
ATOM     27  H   UNL     1       2.702   9.078  16.899  0.00  0.00    +0.000 HD
ENDBRANCH  21  26
ENDBRANCH  15  16
ENDBRANCH  13  15
TORSDOF 5
ENDMDL
MODEL 6
REMARK VINA RESULT:      -6.7     10.616     12.754
REMARK  Name = 
REMARK  9 active torsions:
REMARK  status: ('A' for Active; 'I' for Inactive)
REMARK    1  A    between atoms: C_1  and  C_2
REMARK    2  A    between atoms: C_7  and  C_8
REMARK    3  A    between atoms: C_11  and  C_12
REMARK    4  A    between atoms: C_13  and  C_14
REMARK    5  A    between atoms: C_13  and  C_15
REMARK    6  A    between atoms: C_15  and  C_16
REMARK    7  A    between atoms: C_17  and  O_18
REMARK    8  A    between atoms: C_21  and  O_22
REMARK    9  A    between atoms: C_23  and  O_24
REMARK                            x       y       z     vdW  Elec       q    Type
REMARK                         _______ _______ _______ _____ _____    ______ ____
ROOT
ATOM      1  C   UNL     1      -7.586  11.183  20.728  0.00  0.00    +0.000 C 
ATOM      2  C   UNL     1      -7.096  12.304  19.813  0.00  0.00    +0.000 C 
ATOM      3  C   UNL     1      -6.986  11.999  18.494  0.00  0.00    +0.000 C 
ATOM      4  C   UNL     1      -5.719  11.241  18.126  0.00  0.00    +0.000 C 
ATOM      5  C   UNL     1      -4.457  11.948  18.672  0.00  0.00    +0.000 C 
ATOM      6  C   UNL     1      -4.660  12.375  20.145  0.00  0.00    +0.000 C 
ATOM      7  C   UNL     1      -5.977  13.237  20.383  0.00  0.00    +0.000 C 
ATOM      8  C   UNL     1      -6.055  14.568  19.571  0.00  0.00    +0.000 C 
ATOM      9  C   UNL     1      -6.200  13.637  21.890  0.00  0.00    +0.000 C 
ATOM     10  C   UNL     1      -4.994  13.603  22.855  0.00  0.00    +0.000 C 
ATOM     11  C   UNL     1      -3.904  12.587  22.463  0.00  0.00    +0.000 C 
ATOM     12  C   UNL     1      -2.853  12.414  23.559  0.00  0.00    +0.000 C 
ATOM     13  C   UNL     1      -3.420  12.845  20.974  0.00  0.00    +0.000 C 
ATOM     14  C   UNL     1      -3.125  14.368  20.741  0.00  0.00    +0.000 C 
ENDROOT
BRANCH  13  15
ATOM     15  C   UNL     1      -2.044  12.213  20.530  0.00  0.00    +0.000 C 
BRANCH  15  16
ATOM     16  C   UNL     1      -0.757  12.834  20.026  0.00  0.00    +0.000 A 
ATOM     17  C   UNL     1      -0.374  12.933  18.692  0.00  0.00    +0.000 A 
ATOM     18  C   UNL     1       0.950  13.203  18.318  0.00  0.00    +0.000 A 
ATOM     19  C   UNL     1       1.929  13.478  19.265  0.00  0.00    +0.000 A 
ATOM     20  C   UNL     1       1.562  13.475  20.597  0.00  0.00    +0.000 A 
ATOM     21  C   UNL     1       0.255  13.140  20.969  0.00  0.00    +0.000 A 
BRANCH  17  22
ATOM     22  O   UNL     1      -1.245  12.799  17.660  0.00  0.00    +0.000 OA
ATOM     23  H   UNL     1      -2.089  13.131  18.000  0.00  0.00    +0.000 HD
ENDBRANCH  17  22
BRANCH  20  24
ATOM     24  O   UNL     1       2.453  13.775  21.593  0.00  0.00    +0.000 OA
ATOM     25  H   UNL     1       2.415  13.059  22.251  0.00  0.00    +0.000 HD
ENDBRANCH  20  24
BRANCH  21  26
ATOM     26  O   UNL     1      -0.008  13.104  22.320  0.00  0.00    +0.000 OA
ATOM     27  H   UNL     1      -0.151  12.156  22.521  0.00  0.00    +0.000 HD
ENDBRANCH  21  26
ENDBRANCH  15  16
ENDBRANCH  13  15
TORSDOF 5
ENDMDL
MODEL 7
REMARK VINA RESULT:      -6.6     10.380     13.217
REMARK  Name = 
REMARK  9 active torsions:
REMARK  status: ('A' for Active; 'I' for Inactive)
REMARK    1  A    between atoms: C_1  and  C_2
REMARK    2  A    between atoms: C_7  and  C_8
REMARK    3  A    between atoms: C_11  and  C_12
REMARK    4  A    between atoms: C_13  and  C_14
REMARK    5  A    between atoms: C_13  and  C_15
REMARK    6  A    between atoms: C_15  and  C_16
REMARK    7  A    between atoms: C_17  and  O_18
REMARK    8  A    between atoms: C_21  and  O_22
REMARK    9  A    between atoms: C_23  and  O_24
REMARK                            x       y       z     vdW  Elec       q    Type
REMARK                         _______ _______ _______ _____ _____    ______ ____
ROOT
ATOM      1  C   UNL     1      -7.329   9.957  20.446  0.00  0.00    +0.000 C 
ATOM      2  C   UNL     1      -7.250  11.196  19.555  0.00  0.00    +0.000 C 
ATOM      3  C   UNL     1      -6.763  11.004  18.301  0.00  0.00    +0.000 C 
ATOM      4  C   UNL     1      -5.246  10.937  18.219  0.00  0.00    +0.000 C 
ATOM      5  C   UNL     1      -4.585  12.141  18.928  0.00  0.00    +0.000 C 
ATOM      6  C   UNL     1      -5.238  12.394  20.308  0.00  0.00    +0.000 C 
ATOM      7  C   UNL     1      -6.823  12.532  20.246  0.00  0.00    +0.000 C 
ATOM      8  C   UNL     1      -7.353  13.687  19.341  0.00  0.00    +0.000 C 
ATOM      9  C   UNL     1      -7.488  12.750  21.658  0.00  0.00    +0.000 C 
ATOM     10  C   UNL     1      -6.612  13.265  22.820  0.00  0.00    +0.000 C 
ATOM     11  C   UNL     1      -5.123  12.887  22.701  0.00  0.00    +0.000 C 
ATOM     12  C   UNL     1      -4.341  13.204  23.976  0.00  0.00    +0.000 C 
ATOM     13  C   UNL     1      -4.540  13.372  21.307  0.00  0.00    +0.000 C 
ATOM     14  C   UNL     1      -4.947  14.860  21.022  0.00  0.00    +0.000 C 
ENDROOT
BRANCH  13  15
ATOM     15  C   UNL     1      -2.972  13.468  21.160  0.00  0.00    +0.000 C 
BRANCH  15  16
ATOM     16  C   UNL     1      -1.904  12.410  20.971  0.00  0.00    +0.000 A 
ATOM     17  C   UNL     1      -1.403  11.579  21.968  0.00  0.00    +0.000 A 
ATOM     18  C   UNL     1      -0.203  10.872  21.811  0.00  0.00    +0.000 A 
ATOM     19  C   UNL     1       0.500  10.894  20.611  0.00  0.00    +0.000 A 
ATOM     20  C   UNL     1      -0.018  11.639  19.570  0.00  0.00    +0.000 A 
ATOM     21  C   UNL     1      -1.181  12.396  19.753  0.00  0.00    +0.000 A 
BRANCH  17  22
ATOM     22  O   UNL     1      -2.039  11.372  23.149  0.00  0.00    +0.000 OA
ATOM     23  H   UNL     1      -1.378  10.955  23.721  0.00  0.00    +0.000 HD
ENDBRANCH  17  22
BRANCH  20  24
ATOM     24  O   UNL     1       0.587  11.684  18.343  0.00  0.00    +0.000 OA
ATOM     25  H   UNL     1       1.530  11.884  18.482  0.00  0.00    +0.000 HD
ENDBRANCH  20  24
BRANCH  21  26
ATOM     26  O   UNL     1      -1.593  13.157  18.681  0.00  0.00    +0.000 OA
ATOM     27  H   UNL     1      -2.120  12.544  18.128  0.00  0.00    +0.000 HD
ENDBRANCH  21  26
ENDBRANCH  15  16
ENDBRANCH  13  15
TORSDOF 5
ENDMDL
MODEL 8
REMARK VINA RESULT:      -6.5      9.584     12.733
REMARK  Name = 
REMARK  9 active torsions:
REMARK  status: ('A' for Active; 'I' for Inactive)
REMARK    1  A    between atoms: C_1  and  C_2
REMARK    2  A    between atoms: C_7  and  C_8
REMARK    3  A    between atoms: C_11  and  C_12
REMARK    4  A    between atoms: C_13  and  C_14
REMARK    5  A    between atoms: C_13  and  C_15
REMARK    6  A    between atoms: C_15  and  C_16
REMARK    7  A    between atoms: C_17  and  O_18
REMARK    8  A    between atoms: C_21  and  O_22
REMARK    9  A    between atoms: C_23  and  O_24
REMARK                            x       y       z     vdW  Elec       q    Type
REMARK                         _______ _______ _______ _____ _____    ______ ____
ROOT
ATOM      1  C   UNL     1       8.750  11.323  17.798  0.00  0.00    +0.000 C 
ATOM      2  C   UNL     1       9.913  12.303  17.948  0.00  0.00    +0.000 C 
ATOM      3  C   UNL     1      11.123  11.760  18.242  0.00  0.00    +0.000 C 
ATOM      4  C   UNL     1      11.318  11.415  19.711  0.00  0.00    +0.000 C 
ATOM      5  C   UNL     1      10.974  12.613  20.626  0.00  0.00    +0.000 C 
ATOM      6  C   UNL     1       9.642  13.271  20.193  0.00  0.00    +0.000 C 
ATOM      7  C   UNL     1       9.597  13.665  18.651  0.00  0.00    +0.000 C 
ATOM      8  C   UNL     1      10.701  14.666  18.190  0.00  0.00    +0.000 C 
ATOM      9  C   UNL     1       8.225  14.298  18.206  0.00  0.00    +0.000 C 
ATOM     10  C   UNL     1       7.299  14.897  19.286  0.00  0.00    +0.000 C 
ATOM     11  C   UNL     1       7.453  14.251  20.676  0.00  0.00    +0.000 C 
ATOM     12  C   UNL     1       6.362  14.700  21.649  0.00  0.00    +0.000 C 
ATOM     13  C   UNL     1       8.967  14.310  21.147  0.00  0.00    +0.000 C 
ATOM     14  C   UNL     1       9.561  15.746  20.932  0.00  0.00    +0.000 C 
ENDROOT
BRANCH  13  15
ATOM     15  C   UNL     1       9.268  14.098  22.681  0.00  0.00    +0.000 C 
BRANCH  15  16
ATOM     16  C   UNL     1       8.523  13.350  23.768  0.00  0.00    +0.000 A 
ATOM     17  C   UNL     1       8.107  12.024  23.698  0.00  0.00    +0.000 A 
ATOM     18  C   UNL     1       7.146  11.501  24.575  0.00  0.00    +0.000 A 
ATOM     19  C   UNL     1       6.628  12.259  25.619  0.00  0.00    +0.000 A 
ATOM     20  C   UNL     1       7.087  13.552  25.771  0.00  0.00    +0.000 A 
ATOM     21  C   UNL     1       7.997  14.092  24.854  0.00  0.00    +0.000 A 
BRANCH  17  22
ATOM     22  O   UNL     1       8.608  11.137  22.801  0.00  0.00    +0.000 OA
ATOM     23  H   UNL     1       7.992  11.161  22.054  0.00  0.00    +0.000 HD
ENDBRANCH  17  22
BRANCH  20  24
ATOM     24  O   UNL     1       6.661  14.355  26.796  0.00  0.00    +0.000 OA
ATOM     25  H   UNL     1       5.774  14.684  26.568  0.00  0.00    +0.000 HD
ENDBRANCH  20  24
BRANCH  21  26
ATOM     26  O   UNL     1       8.355  15.408  25.046  0.00  0.00    +0.000 OA
ATOM     27  H   UNL     1       7.565  15.923  24.780  0.00  0.00    +0.000 HD
ENDBRANCH  21  26
ENDBRANCH  15  16
ENDBRANCH  13  15
TORSDOF 5
ENDMDL
MODEL 9
REMARK VINA RESULT:      -6.5     10.006     12.774
REMARK  Name = 
REMARK  9 active torsions:
REMARK  status: ('A' for Active; 'I' for Inactive)
REMARK    1  A    between atoms: C_1  and  C_2
REMARK    2  A    between atoms: C_7  and  C_8
REMARK    3  A    between atoms: C_11  and  C_12
REMARK    4  A    between atoms: C_13  and  C_14
REMARK    5  A    between atoms: C_13  and  C_15
REMARK    6  A    between atoms: C_15  and  C_16
REMARK    7  A    between atoms: C_17  and  O_18
REMARK    8  A    between atoms: C_21  and  O_22
REMARK    9  A    between atoms: C_23  and  O_24
REMARK                            x       y       z     vdW  Elec       q    Type
REMARK                         _______ _______ _______ _____ _____    ______ ____
ROOT
ATOM      1  C   UNL     1       8.804  11.048  17.856  0.00  0.00    +0.000 C 
ATOM      2  C   UNL     1       9.981  11.046  18.831  0.00  0.00    +0.000 C 
ATOM      3  C   UNL     1       9.715  10.621  20.094  0.00  0.00    +0.000 C 
ATOM      4  C   UNL     1       9.069  11.669  20.987  0.00  0.00    +0.000 C 
ATOM      5  C   UNL     1       9.862  12.997  20.969  0.00  0.00    +0.000 C 
ATOM      6  C   UNL     1      10.239  13.393  19.522  0.00  0.00    +0.000 C 
ATOM      7  C   UNL     1      10.987  12.239  18.720  0.00  0.00    +0.000 C 
ATOM      8  C   UNL     1      12.325  11.749  19.357  0.00  0.00    +0.000 C 
ATOM      9  C   UNL     1      11.334  12.632  17.235  0.00  0.00    +0.000 C 
ATOM     10  C   UNL     1      11.375  14.127  16.852  0.00  0.00    +0.000 C 
ATOM     11  C   UNL     1      10.458  15.021  17.709  0.00  0.00    +0.000 C 
ATOM     12  C   UNL     1      10.345  16.439  17.150  0.00  0.00    +0.000 C 
ATOM     13  C   UNL     1      10.787  14.831  19.250  0.00  0.00    +0.000 C 
ATOM     14  C   UNL     1      12.333  14.906  19.502  0.00  0.00    +0.000 C 
ENDROOT
BRANCH  13  15
ATOM     15  C   UNL     1      10.276  15.939  20.251  0.00  0.00    +0.000 C 
BRANCH  15  16
ATOM     16  C   UNL     1       9.091  15.986  21.194  0.00  0.00    +0.000 A 
ATOM     17  C   UNL     1       9.153  15.858  22.578  0.00  0.00    +0.000 A 
ATOM     18  C   UNL     1       8.016  15.575  23.349  0.00  0.00    +0.000 A 
ATOM     19  C   UNL     1       6.752  15.500  22.775  0.00  0.00    +0.000 A 
ATOM     20  C   UNL     1       6.644  15.711  21.415  0.00  0.00    +0.000 A 
ATOM     21  C   UNL     1       7.789  15.927  20.639  0.00  0.00    +0.000 A 
BRANCH  17  22
ATOM     22  O   UNL     1      10.300  16.017  23.286  0.00  0.00    +0.000 OA
ATOM     23  H   UNL     1      10.637  15.119  23.423  0.00  0.00    +0.000 HD
ENDBRANCH  17  22
BRANCH  20  24
ATOM     24  O   UNL     1       5.433  15.695  20.775  0.00  0.00    +0.000 OA
ATOM     25  H   UNL     1       5.507  15.095  20.012  0.00  0.00    +0.000 HD
ENDBRANCH  20  24
BRANCH  21  26
ATOM     26  O   UNL     1       7.595  16.068  19.283  0.00  0.00    +0.000 OA
ATOM     27  H   UNL     1       7.435  15.157  18.959  0.00  0.00    +0.000 HD
ENDBRANCH  21  26
ENDBRANCH  15  16
ENDBRANCH  13  15
TORSDOF 5
ENDMDL
