MODEL 1
REMARK VINA RESULT:      -6.7      0.000      0.000
REMARK  Name = 
REMARK  3 active torsions:
REMARK  status: ('A' for Active; 'I' for Inactive)
REMARK    1  A    between atoms: C_1  and  N_2
REMARK    2  A    between atoms: C_8  and  C_9
REMARK    3  A    between atoms: N_16  and  C_17
REMARK                            x       y       z     vdW  Elec       q    Type
REMARK                         _______ _______ _______ _____ _____    ______ ____
ROOT
ATOM      1  C   UNL     1       0.231   9.236  22.318  0.00  0.00    +0.000 C 
ATOM      2  N   UNL     1       0.055   9.592  20.929  0.00  0.00    +0.000 N 
ATOM      3  C   UNL     1       0.949   8.964  20.074  0.00  0.00    +0.000 A 
ATOM      4  N   UNL     1       1.288   9.650  18.979  0.00  0.00    +0.000 NA
ATOM      5  C   UNL     1       2.159   9.059  18.140  0.00  0.00    +0.000 A 
ATOM      6  C   UNL     1       2.702   7.815  18.360  0.00  0.00    +0.000 A 
ATOM      7  C   UNL     1       3.639   7.180  17.454  0.00  0.00    +0.000 A 
ATOM      8  C   UNL     1       4.114   5.944  17.698  0.00  0.00    +0.000 A 
ATOM      9  C   UNL     1       3.639   5.211  18.944  0.00  0.00    +0.000 A 
ATOM     10  O   UNL     1       4.001   4.060  19.174  0.00  0.00    +0.000 OA
ATOM     11  N   UNL     1       2.778   5.890  19.794  0.00  0.00    +0.000 N 
ATOM     12  C   UNL     1       2.283   5.237  20.995  0.00  0.00    +0.000 C 
ATOM     13  C   UNL     1       2.294   7.187  19.516  0.00  0.00    +0.000 A 
ATOM     14  N   UNL     1       1.432   7.754  20.379  0.00  0.00    +0.000 NA
ATOM     15  H   UNL     1       0.120  10.583  20.721  0.00  0.00    +0.000 HD
ENDROOT
BRANCH   8  16
ATOM     16  C   UNL     1       5.058   5.321  16.803  0.00  0.00    +0.000 A 
ATOM     17  C   UNL     1       4.817   4.134  16.038  0.00  0.00    +0.000 A 
ATOM     18  C   UNL     1       5.877   3.809  15.222  0.00  0.00    +0.000 A 
ATOM     19  S   UNL     1       7.177   4.902  15.390  0.00  0.00    +0.000 S 
ATOM     20  C   UNL     1       6.320   5.823  16.547  0.00  0.00    +0.000 A 
ENDBRANCH   8  16
TORSDOF 1
ENDMDL
MODEL 2
REMARK VINA RESULT:      -6.4      4.472      6.954
REMARK  Name = 
REMARK  3 active torsions:
REMARK  status: ('A' for Active; 'I' for Inactive)
REMARK    1  A    between atoms: C_1  and  N_2
REMARK    2  A    between atoms: C_8  and  C_9
REMARK    3  A    between atoms: N_16  and  C_17
REMARK                            x       y       z     vdW  Elec       q    Type
REMARK                         _______ _______ _______ _____ _____    ______ ____
ROOT
ATOM      1  C   UNL     1       9.281   5.847  13.333  0.00  0.00    +0.000 C 
ATOM      2  N   UNL     1       7.950   5.499  12.891  0.00  0.00    +0.000 N 
ATOM      3  C   UNL     1       7.117   5.067  13.913  0.00  0.00    +0.000 A 
ATOM      4  N   UNL     1       6.183   4.178  13.566  0.00  0.00    +0.000 NA
ATOM      5  C   UNL     1       5.370   3.742  14.545  0.00  0.00    +0.000 A 
ATOM      6  C   UNL     1       5.461   4.160  15.853  0.00  0.00    +0.000 A 
ATOM      7  C   UNL     1       4.582   3.690  16.905  0.00  0.00    +0.000 A 
ATOM      8  C   UNL     1       4.689   4.158  18.163  0.00  0.00    +0.000 A 
ATOM      9  C   UNL     1       5.750   5.208  18.464  0.00  0.00    +0.000 A 
ATOM     10  O   UNL     1       5.845   5.705  19.583  0.00  0.00    +0.000 OA
ATOM     11  N   UNL     1       6.589   5.583  17.424  0.00  0.00    +0.000 N 
ATOM     12  C   UNL     1       7.615   6.588  17.649  0.00  0.00    +0.000 C 
ATOM     13  C   UNL     1       6.456   5.076  16.112  0.00  0.00    +0.000 A 
ATOM     14  N   UNL     1       7.290   5.524  15.159  0.00  0.00    +0.000 NA
ATOM     15  H   UNL     1       7.902   4.786  12.171  0.00  0.00    +0.000 HD
ENDROOT
BRANCH   8  16
ATOM     16  C   UNL     1       3.825   3.677  19.212  0.00  0.00    +0.000 A 
ATOM     17  C   UNL     1       4.119   2.587  20.094  0.00  0.00    +0.000 A 
ATOM     18  C   UNL     1       3.137   2.396  21.040  0.00  0.00    +0.000 A 
ATOM     19  S   UNL     1       1.844   3.495  20.856  0.00  0.00    +0.000 S 
ATOM     20  C   UNL     1       2.602   4.242  19.519  0.00  0.00    +0.000 A 
ENDBRANCH   8  16
TORSDOF 1
ENDMDL
MODEL 3
REMARK VINA RESULT:      -6.3      2.645      4.532
REMARK  Name = 
REMARK  3 active torsions:
REMARK  status: ('A' for Active; 'I' for Inactive)
REMARK    1  A    between atoms: C_1  and  N_2
REMARK    2  A    between atoms: C_8  and  C_9
REMARK    3  A    between atoms: N_16  and  C_17
REMARK                            x       y       z     vdW  Elec       q    Type
REMARK                         _______ _______ _______ _____ _____    ______ ____
ROOT
ATOM      1  C   UNL     1      -2.245  12.999  22.154  0.00  0.00    +0.000 C 
ATOM      2  N   UNL     1      -1.325  12.349  23.059  0.00  0.00    +0.000 N 
ATOM      3  C   UNL     1      -0.619  11.303  22.482  0.00  0.00    +0.000 A 
ATOM      4  N   UNL     1      -0.278  10.307  23.304  0.00  0.00    +0.000 NA
ATOM      5  C   UNL     1       0.401   9.280  22.761  0.00  0.00    +0.000 A 
ATOM      6  C   UNL     1       0.745   9.214  21.431  0.00  0.00    +0.000 A 
ATOM      7  C   UNL     1       1.478   8.107  20.849  0.00  0.00    +0.000 A 
ATOM      8  C   UNL     1       1.821   8.107  19.548  0.00  0.00    +0.000 A 
ATOM      9  C   UNL     1       1.436   9.305  18.690  0.00  0.00    +0.000 A 
ATOM     10  O   UNL     1       1.779   9.373  17.513  0.00  0.00    +0.000 OA
ATOM     11  N   UNL     1       0.695  10.310  19.295  0.00  0.00    +0.000 N 
ATOM     12  C   UNL     1       0.305  11.482  18.529  0.00  0.00    +0.000 C 
ATOM     13  C   UNL     1       0.347  10.286  20.663  0.00  0.00    +0.000 A 
ATOM     14  N   UNL     1      -0.340  11.323  21.173  0.00  0.00    +0.000 NA
ATOM     15  H   UNL     1      -1.738  11.974  23.906  0.00  0.00    +0.000 HD
ENDROOT
BRANCH   8  16
ATOM     16  C   UNL     1       2.537   6.998  18.967  0.00  0.00    +0.000 A 
ATOM     17  C   UNL     1       3.474   7.089  17.887  0.00  0.00    +0.000 A 
ATOM     18  C   UNL     1       4.051   5.876  17.587  0.00  0.00    +0.000 A 
ATOM     19  S   UNL     1       3.451   4.618  18.571  0.00  0.00    +0.000 S 
ATOM     20  C   UNL     1       2.427   5.695  19.413  0.00  0.00    +0.000 A 
ENDBRANCH   8  16
TORSDOF 1
ENDMDL
MODEL 4
REMARK VINA RESULT:      -6.2      3.059      4.525
REMARK  Name = 
REMARK  3 active torsions:
REMARK  status: ('A' for Active; 'I' for Inactive)
REMARK    1  A    between atoms: C_1  and  N_2
REMARK    2  A    between atoms: C_8  and  C_9
REMARK    3  A    between atoms: N_16  and  C_17
REMARK                            x       y       z     vdW  Elec       q    Type
REMARK                         _______ _______ _______ _____ _____    ______ ____
ROOT
ATOM      1  C   UNL     1       0.921   4.426  20.742  0.00  0.00    +0.000 C 
ATOM      2  N   UNL     1       1.876   3.344  20.677  0.00  0.00    +0.000 N 
ATOM      3  C   UNL     1       2.667   3.366  19.538  0.00  0.00    +0.000 A 
ATOM      4  N   UNL     1       3.074   2.175  19.089  0.00  0.00    +0.000 NA
ATOM      5  C   UNL     1       3.837   2.174  17.980  0.00  0.00    +0.000 A 
ATOM      6  C   UNL     1       4.202   3.317  17.308  0.00  0.00    +0.000 A 
ATOM      7  C   UNL     1       5.025   3.314  16.115  0.00  0.00    +0.000 A 
ATOM      8  C   UNL     1       5.384   4.464  15.514  0.00  0.00    +0.000 A 
ATOM      9  C   UNL     1       4.919   5.781  16.118  0.00  0.00    +0.000 A 
ATOM     10  O   UNL     1       5.271   6.855  15.637  0.00  0.00    +0.000 OA
ATOM     11  N   UNL     1       4.095   5.715  17.234  0.00  0.00    +0.000 N 
ATOM     12  C   UNL     1       3.626   6.940  17.860  0.00  0.00    +0.000 C 
ATOM     13  C   UNL     1       3.732   4.495  17.845  0.00  0.00    +0.000 A 
ATOM     14  N   UNL     1       2.961   4.529  18.946  0.00  0.00    +0.000 NA
ATOM     15  H   UNL     1       1.482   2.411  20.727  0.00  0.00    +0.000 HD
ENDROOT
BRANCH   8  16
ATOM     16  C   UNL     1       6.190   4.458  14.318  0.00  0.00    +0.000 A 
ATOM     17  C   UNL     1       5.920   3.687  13.140  0.00  0.00    +0.000 A 
ATOM     18  C   UNL     1       6.825   3.933  12.132  0.00  0.00    +0.000 A 
ATOM     19  S   UNL     1       8.018   5.059  12.600  0.00  0.00    +0.000 S 
ATOM     20  C   UNL     1       7.320   5.233  14.149  0.00  0.00    +0.000 A 
ENDBRANCH   8  16
TORSDOF 1
ENDMDL
MODEL 5
REMARK VINA RESULT:      -6.2      2.595      3.848
REMARK  Name = 
REMARK  3 active torsions:
REMARK  status: ('A' for Active; 'I' for Inactive)
REMARK    1  A    between atoms: C_1  and  N_2
REMARK    2  A    between atoms: C_8  and  C_9
REMARK    3  A    between atoms: N_16  and  C_17
REMARK                            x       y       z     vdW  Elec       q    Type
REMARK                         _______ _______ _______ _____ _____    ______ ____
ROOT
ATOM      1  C   UNL     1      -1.106  12.871  20.709  0.00  0.00    +0.000 C 
ATOM      2  N   UNL     1      -0.489  12.248  21.858  0.00  0.00    +0.000 N 
ATOM      3  C   UNL     1       0.078  11.012  21.585  0.00  0.00    +0.000 A 
ATOM      4  N   UNL     1       0.080  10.136  22.594  0.00  0.00    +0.000 NA
ATOM      5  C   UNL     1       0.620   8.929  22.346  0.00  0.00    +0.000 A 
ATOM      6  C   UNL     1       1.151   8.567  21.130  0.00  0.00    +0.000 A 
ATOM      7  C   UNL     1       1.733   7.267  20.867  0.00  0.00    +0.000 A 
ATOM      8  C   UNL     1       2.272   6.975  19.668  0.00  0.00    +0.000 A 
ATOM      9  C   UNL     1       2.273   8.046  18.587  0.00  0.00    +0.000 A 
ATOM     10  O   UNL     1       2.805   7.843  17.499  0.00  0.00    +0.000 OA
ATOM     11  N   UNL     1       1.659   9.255  18.886  0.00  0.00    +0.000 N 
ATOM     12  C   UNL     1       1.636  10.318  17.896  0.00  0.00    +0.000 C 
ATOM     13  C   UNL     1       1.100   9.536  20.152  0.00  0.00    +0.000 A 
ATOM     14  N   UNL     1       0.560  10.748  20.364  0.00  0.00    +0.000 NA
ATOM     15  H   UNL     1      -1.097  12.106  22.656  0.00  0.00    +0.000 HD
ENDROOT
BRANCH   8  16
ATOM     16  C   UNL     1       2.837   5.674  19.403  0.00  0.00    +0.000 A 
ATOM     17  C   UNL     1       2.102   4.526  18.964  0.00  0.00    +0.000 A 
ATOM     18  C   UNL     1       2.914   3.439  18.729  0.00  0.00    +0.000 A 
ATOM     19  S   UNL     1       4.553   3.778  19.064  0.00  0.00    +0.000 S 
ATOM     20  C   UNL     1       4.183   5.385  19.511  0.00  0.00    +0.000 A 
ENDBRANCH   8  16
TORSDOF 1
ENDMDL
MODEL 6
REMARK VINA RESULT:      -6.0      3.871      4.642
REMARK  Name = 
REMARK  3 active torsions:
REMARK  status: ('A' for Active; 'I' for Inactive)
REMARK    1  A    between atoms: C_1  and  N_2
REMARK    2  A    between atoms: C_8  and  C_9
REMARK    3  A    between atoms: N_16  and  C_17
REMARK                            x       y       z     vdW  Elec       q    Type
REMARK                         _______ _______ _______ _____ _____    ______ ____
ROOT
ATOM      1  C   UNL     1       2.311   4.241  21.624  0.00  0.00    +0.000 C 
ATOM      2  N   UNL     1       2.073   3.141  20.718  0.00  0.00    +0.000 N 
ATOM      3  C   UNL     1       2.721   3.271  19.499  0.00  0.00    +0.000 A 
ATOM      4  N   UNL     1       2.106   2.717  18.450  0.00  0.00    +0.000 NA
ATOM      5  C   UNL     1       2.717   2.839  17.257  0.00  0.00    +0.000 A 
ATOM      6  C   UNL     1       3.912   3.495  17.078  0.00  0.00    +0.000 A 
ATOM      7  C   UNL     1       4.568   3.622  15.792  0.00  0.00    +0.000 A 
ATOM      8  C   UNL     1       5.756   4.244  15.675  0.00  0.00    +0.000 A 
ATOM      9  C   UNL     1       6.414   4.805  16.929  0.00  0.00    +0.000 A 
ATOM     10  O   UNL     1       7.524   5.328  16.877  0.00  0.00    +0.000 OA
ATOM     11  N   UNL     1       5.714   4.691  18.121  0.00  0.00    +0.000 N 
ATOM     12  C   UNL     1       6.295   5.200  19.352  0.00  0.00    +0.000 C 
ATOM     13  C   UNL     1       4.467   4.034  18.217  0.00  0.00    +0.000 A 
ATOM     14  N   UNL     1       3.879   3.938  19.422  0.00  0.00    +0.000 NA
ATOM     15  H   UNL     1       1.099   2.959  20.499  0.00  0.00    +0.000 HD
ENDROOT
BRANCH   8  16
ATOM     16  C   UNL     1       6.400   4.385  14.392  0.00  0.00    +0.000 A 
ATOM     17  C   UNL     1       7.451   5.309  14.088  0.00  0.00    +0.000 A 
ATOM     18  C   UNL     1       7.916   5.173  12.800  0.00  0.00    +0.000 A 
ATOM     19  S   UNL     1       7.077   3.962  11.938  0.00  0.00    +0.000 S 
ATOM     20  C   UNL     1       6.097   3.606  13.292  0.00  0.00    +0.000 A 
ENDBRANCH   8  16
TORSDOF 1
ENDMDL
MODEL 7
REMARK VINA RESULT:      -6.0      2.568      3.977
REMARK  Name = 
REMARK  3 active torsions:
REMARK  status: ('A' for Active; 'I' for Inactive)
REMARK    1  A    between atoms: C_1  and  N_2
REMARK    2  A    between atoms: C_8  and  C_9
REMARK    3  A    between atoms: N_16  and  C_17
REMARK                            x       y       z     vdW  Elec       q    Type
REMARK                         _______ _______ _______ _____ _____    ______ ____
ROOT
ATOM      1  C   UNL     1      -1.371  12.851  21.288  0.00  0.00    +0.000 C 
ATOM      2  N   UNL     1      -0.646  12.147  22.321  0.00  0.00    +0.000 N 
ATOM      3  C   UNL     1      -0.039  10.980  21.881  0.00  0.00    +0.000 A 
ATOM      4  N   UNL     1       0.076  10.006  22.788  0.00  0.00    +0.000 NA
ATOM      5  C   UNL     1       0.656   8.863  22.378  0.00  0.00    +0.000 A 
ATOM      6  C   UNL     1       1.118   8.660  21.098  0.00  0.00    +0.000 A 
ATOM      7  C   UNL     1       1.744   7.429  20.660  0.00  0.00    +0.000 A 
ATOM      8  C   UNL     1       2.212   7.294  19.405  0.00  0.00    +0.000 A 
ATOM      9  C   UNL     1       2.085   8.471  18.447  0.00  0.00    +0.000 A 
ATOM     10  O   UNL     1       2.550   8.412  17.312  0.00  0.00    +0.000 OA
ATOM     11  N   UNL     1       1.435   9.605  18.913  0.00  0.00    +0.000 N 
ATOM     12  C   UNL     1       1.291  10.763  18.047  0.00  0.00    +0.000 C 
ATOM     13  C   UNL     1       0.952   9.721  20.235  0.00  0.00    +0.000 A 
ATOM     14  N   UNL     1       0.369  10.872  20.611  0.00  0.00    +0.000 NA
ATOM     15  H   UNL     1      -1.190  11.889  23.137  0.00  0.00    +0.000 HD
ENDROOT
BRANCH   8  16
ATOM     16  C   UNL     1       2.820   6.062  18.966  0.00  0.00    +0.000 A 
ATOM     17  C   UNL     1       4.160   5.649  19.257  0.00  0.00    +0.000 A 
ATOM     18  C   UNL     1       4.444   4.396  18.763  0.00  0.00    +0.000 A 
ATOM     19  S   UNL     1       3.122   3.722  17.920  0.00  0.00    +0.000 S 
ATOM     20  C   UNL     1       2.159   5.100  18.226  0.00  0.00    +0.000 A 
ENDBRANCH   8  16
TORSDOF 1
ENDMDL
MODEL 8
REMARK VINA RESULT:      -6.0      3.426      6.114
REMARK  Name = 
REMARK  3 active torsions:
REMARK  status: ('A' for Active; 'I' for Inactive)
REMARK    1  A    between atoms: C_1  and  N_2
REMARK    2  A    between atoms: C_8  and  C_9
REMARK    3  A    between atoms: N_16  and  C_17
REMARK                            x       y       z     vdW  Elec       q    Type
REMARK                         _______ _______ _______ _____ _____    ______ ____
ROOT
ATOM      1  C   UNL     1       4.389   2.711  18.970  0.00  0.00    +0.000 C 
ATOM      2  N   UNL     1       5.137   3.743  18.289  0.00  0.00    +0.000 N 
ATOM      3  C   UNL     1       4.465   4.953  18.202  0.00  0.00    +0.000 A 
ATOM      4  N   UNL     1       4.741   5.697  17.127  0.00  0.00    +0.000 NA
ATOM      5  C   UNL     1       4.095   6.872  17.021  0.00  0.00    +0.000 A 
ATOM      6  C   UNL     1       3.183   7.325  17.946  0.00  0.00    +0.000 A 
ATOM      7  C   UNL     1       2.489   8.592  17.830  0.00  0.00    +0.000 A 
ATOM      8  C   UNL     1       1.632   9.006  18.782  0.00  0.00    +0.000 A 
ATOM      9  C   UNL     1       1.410   8.120  20.001  0.00  0.00    +0.000 A 
ATOM     10  O   UNL     1       0.683   8.485  20.921  0.00  0.00    +0.000 OA
ATOM     11  N   UNL     1       2.069   6.899  20.030  0.00  0.00    +0.000 N 
ATOM     12  C   UNL     1       1.903   6.015  21.172  0.00  0.00    +0.000 C 
ATOM     13  C   UNL     1       2.963   6.488  19.017  0.00  0.00    +0.000 A 
ATOM     14  N   UNL     1       3.586   5.304  19.148  0.00  0.00    +0.000 NA
ATOM     15  H   UNL     1       5.430   3.517  17.345  0.00  0.00    +0.000 HD
ENDROOT
BRANCH   8  16
ATOM     16  C   UNL     1       0.930  10.260  18.657  0.00  0.00    +0.000 A 
ATOM     17  C   UNL     1      -0.455  10.404  18.325  0.00  0.00    +0.000 A 
ATOM     18  C   UNL     1      -0.867  11.718  18.343  0.00  0.00    +0.000 A 
ATOM     19  S   UNL     1       0.409  12.786  18.723  0.00  0.00    +0.000 S 
ATOM     20  C   UNL     1       1.514  11.492  18.880  0.00  0.00    +0.000 A 
ENDBRANCH   8  16
TORSDOF 1
ENDMDL
MODEL 9
REMARK VINA RESULT:      -5.9      3.993      4.675
REMARK  Name = 
REMARK  3 active torsions:
REMARK  status: ('A' for Active; 'I' for Inactive)
REMARK    1  A    between atoms: C_1  and  N_2
REMARK    2  A    between atoms: C_8  and  C_9
REMARK    3  A    between atoms: N_16  and  C_17
REMARK                            x       y       z     vdW  Elec       q    Type
REMARK                         _______ _______ _______ _____ _____    ______ ____
ROOT
ATOM      1  C   UNL     1       2.087   3.827  21.760  0.00  0.00    +0.000 C 
ATOM      2  N   UNL     1       2.018   2.661  20.909  0.00  0.00    +0.000 N 
ATOM      3  C   UNL     1       2.663   2.820  19.691  0.00  0.00    +0.000 A 
ATOM      4  N   UNL     1       2.148   2.135  18.666  0.00  0.00    +0.000 NA
ATOM      5  C   UNL     1       2.756   2.281  17.475  0.00  0.00    +0.000 A 
ATOM      6  C   UNL     1       3.852   3.087  17.274  0.00  0.00    +0.000 A 
ATOM      7  C   UNL     1       4.506   3.241  15.990  0.00  0.00    +0.000 A 
ATOM      8  C   UNL     1       5.599   4.016  15.853  0.00  0.00    +0.000 A 
ATOM      9  C   UNL     1       6.151   4.724  17.083  0.00  0.00    +0.000 A 
ATOM     10  O   UNL     1       7.179   5.392  17.016  0.00  0.00    +0.000 OA
ATOM     11  N   UNL     1       5.453   4.572  18.273  0.00  0.00    +0.000 N 
ATOM     12  C   UNL     1       5.938   5.217  19.482  0.00  0.00    +0.000 C 
ATOM     13  C   UNL     1       4.308   3.754  18.389  0.00  0.00    +0.000 A 
ATOM     14  N   UNL     1       3.718   3.636  19.592  0.00  0.00    +0.000 NA
ATOM     15  H   UNL     1       1.083   2.336  20.690  0.00  0.00    +0.000 HD
ENDROOT
BRANCH   8  16
ATOM     16  C   UNL     1       6.238   4.181  14.571  0.00  0.00    +0.000 A 
ATOM     17  C   UNL     1       5.864   3.505  13.365  0.00  0.00    +0.000 A 
ATOM     18  C   UNL     1       6.610   3.910  12.281  0.00  0.00    +0.000 A 
ATOM     19  S   UNL     1       7.783   5.074  12.707  0.00  0.00    +0.000 S 
ATOM     20  C   UNL     1       7.286   5.051  14.342  0.00  0.00    +0.000 A 
ENDBRANCH   8  16
TORSDOF 1
ENDMDL
