MODEL 1
REMARK VINA RESULT:      -7.3      0.000      0.000
REMARK  Name = 
REMARK  8 active torsions:
REMARK  status: ('A' for Active; 'I' for Inactive)
REMARK    1  A    between atoms: C_1  and  C_2
REMARK    2  A    between atoms: C_2  and  C_3
REMARK    3  A    between atoms: C_3  and  C_4
REMARK    4  A    between atoms: N_7  and  C_8
REMARK    5  A    between atoms: N_10  and  C_11
REMARK    6  A    between atoms: C_15  and  O_16
REMARK    7  A    between atoms: O_16  and  C_17
REMARK    8  A    between atoms: N_19  and  C_20
REMARK                            x       y       z     vdW  Elec       q    Type
REMARK                         _______ _______ _______ _____ _____    ______ ____
ROOT
ATOM      1  C   UNL     1      -1.554  12.555  19.532  0.00  0.00    +0.000 C 
ATOM      2  C   UNL     1      -0.594  13.277  18.594  0.00  0.00    +0.000 C 
ATOM      3  C   UNL     1      -0.106  14.506  19.336  0.00  0.00    +0.000 C 
ATOM      4  N   UNL     1      -1.053  14.750  20.408  0.00  0.00    +0.000 NA
ATOM      5  C   UNL     1      -0.471  15.219  21.653  0.00  0.00    +0.000 C 
ATOM      6  C   UNL     1      -2.102  13.710  20.446  0.00  0.00    +0.000 C 
ATOM      7  N   UNL     1      -2.504  13.105  21.726  0.00  0.00    +0.000 N 
ATOM      8  C   UNL     1      -3.918  12.872  21.973  0.00  0.00    +0.000 C 
ATOM      9  C   UNL     1      -1.668  11.974  21.820  0.00  0.00    +0.000 A 
ATOM     10  C   UNL     1      -1.402  11.287  22.988  0.00  0.00    +0.000 A 
ATOM     11  C   UNL     1      -0.370  10.354  22.979  0.00  0.00    +0.000 A 
ATOM     12  C   UNL     1       0.322  10.058  21.786  0.00  0.00    +0.000 A 
ATOM     13  C   UNL     1       0.018  10.718  20.592  0.00  0.00    +0.000 A 
ATOM     14  C   UNL     1      -0.983  11.680  20.626  0.00  0.00    +0.000 A 
ENDROOT
BRANCH   1  15
ATOM     15  C   UNL     1      -2.645  11.784  18.725  0.00  0.00    +0.000 C 
BRANCH  15  17
ATOM     16  C   UNL     1      -1.780   9.936  17.175  0.00  0.00    +0.000 C 
ATOM     17  C   UNL     1      -2.173  11.399  17.310  0.00  0.00    +0.000 C 
ENDBRANCH  15  17
ENDBRANCH   1  15
BRANCH  12  18
ATOM     18  O   UNL     1       1.377   9.117  21.764  0.00  0.00    +0.000 OA
BRANCH  18  19
ATOM     19  C   UNL     1       1.062   7.898  21.175  0.00  0.00    +0.000 C 
ATOM     20  O   UNL     1      -0.079   7.430  21.139  0.00  0.00    +0.000 OA
ATOM     21  N   UNL     1       2.181   7.279  20.663  0.00  0.00    +0.000 N 
ATOM     22  H   UNL     1       3.079   7.643  20.959  0.00  0.00    +0.000 HD
BRANCH  21  23
ATOM     23  C   UNL     1       2.121   6.042  19.984  0.00  0.00    +0.000 A 
ATOM     24  C   UNL     1       2.315   5.956  18.599  0.00  0.00    +0.000 A 
ATOM     25  C   UNL     1       2.111   4.763  17.902  0.00  0.00    +0.000 A 
ATOM     26  C   UNL     1       1.758   3.622  18.602  0.00  0.00    +0.000 A 
ATOM     27  C   UNL     1       1.641   3.668  19.994  0.00  0.00    +0.000 A 
ATOM     28  C   UNL     1       1.833   4.870  20.689  0.00  0.00    +0.000 A 
ENDBRANCH  21  23
ENDBRANCH  18  19
ENDBRANCH  12  18
TORSDOF 5
ENDMDL
MODEL 2
REMARK VINA RESULT:      -7.2      1.983      2.660
REMARK  Name = 
REMARK  8 active torsions:
REMARK  status: ('A' for Active; 'I' for Inactive)
REMARK    1  A    between atoms: C_1  and  C_2
REMARK    2  A    between atoms: C_2  and  C_3
REMARK    3  A    between atoms: C_3  and  C_4
REMARK    4  A    between atoms: N_7  and  C_8
REMARK    5  A    between atoms: N_10  and  C_11
REMARK    6  A    between atoms: C_15  and  O_16
REMARK    7  A    between atoms: O_16  and  C_17
REMARK    8  A    between atoms: N_19  and  C_20
REMARK                            x       y       z     vdW  Elec       q    Type
REMARK                         _______ _______ _______ _____ _____    ______ ____
ROOT
ATOM      1  C   UNL     1      -0.754  11.798  19.146  0.00  0.00    +0.000 C 
ATOM      2  C   UNL     1      -0.408  12.925  18.179  0.00  0.00    +0.000 C 
ATOM      3  C   UNL     1       0.607  13.803  18.883  0.00  0.00    +0.000 C 
ATOM      4  N   UNL     1       0.504  13.508  20.300  0.00  0.00    +0.000 NA
ATOM      5  C   UNL     1       1.762  13.504  21.025  0.00  0.00    +0.000 C 
ATOM      6  C   UNL     1      -0.482  12.437  20.555  0.00  0.00    +0.000 C 
ATOM      7  N   UNL     1      -0.165  11.339  21.483  0.00  0.00    +0.000 N 
ATOM      8  C   UNL     1      -1.195  10.888  22.405  0.00  0.00    +0.000 C 
ATOM      9  C   UNL     1       0.379  10.354  20.635  0.00  0.00    +0.000 A 
ATOM     10  C   UNL     1       1.154   9.292  21.059  0.00  0.00    +0.000 A 
ATOM     11  C   UNL     1       1.827   8.548  20.096  0.00  0.00    +0.000 A 
ATOM     12  C   UNL     1       1.649   8.817  18.723  0.00  0.00    +0.000 A 
ATOM     13  C   UNL     1       0.823   9.860  18.293  0.00  0.00    +0.000 A 
ATOM     14  C   UNL     1       0.194  10.625  19.266  0.00  0.00    +0.000 A 
ENDROOT
BRANCH   1  15
ATOM     15  C   UNL     1      -2.216  11.302  18.921  0.00  0.00    +0.000 C 
BRANCH  15  17
ATOM     16  C   UNL     1      -2.601  10.033  16.729  0.00  0.00    +0.000 C 
ATOM     17  C   UNL     1      -2.645  11.375  17.443  0.00  0.00    +0.000 C 
ENDBRANCH  15  17
ENDBRANCH   1  15
BRANCH  12  18
ATOM     18  O   UNL     1       2.331   8.072  17.734  0.00  0.00    +0.000 OA
BRANCH  18  19
ATOM     19  C   UNL     1       2.730   6.801  18.129  0.00  0.00    +0.000 C 
ATOM     20  O   UNL     1       3.891   6.510  18.428  0.00  0.00    +0.000 OA
ATOM     21  N   UNL     1       1.675   5.914  18.122  0.00  0.00    +0.000 N 
ATOM     22  H   UNL     1       0.836   6.209  17.637  0.00  0.00    +0.000 HD
BRANCH  21  23
ATOM     23  C   UNL     1       1.814   4.565  18.516  0.00  0.00    +0.000 A 
ATOM     24  C   UNL     1       2.278   3.587  17.628  0.00  0.00    +0.000 A 
ATOM     25  C   UNL     1       2.278   2.231  17.963  0.00  0.00    +0.000 A 
ATOM     26  C   UNL     1       1.856   1.846  19.224  0.00  0.00    +0.000 A 
ATOM     27  C   UNL     1       1.468   2.814  20.154  0.00  0.00    +0.000 A 
ATOM     28  C   UNL     1       1.456   4.174  19.809  0.00  0.00    +0.000 A 
ENDBRANCH  21  23
ENDBRANCH  18  19
ENDBRANCH  12  18
TORSDOF 5
ENDMDL
MODEL 3
REMARK VINA RESULT:      -6.8      0.732      1.241
REMARK  Name = 
REMARK  8 active torsions:
REMARK  status: ('A' for Active; 'I' for Inactive)
REMARK    1  A    between atoms: C_1  and  C_2
REMARK    2  A    between atoms: C_2  and  C_3
REMARK    3  A    between atoms: C_3  and  C_4
REMARK    4  A    between atoms: N_7  and  C_8
REMARK    5  A    between atoms: N_10  and  C_11
REMARK    6  A    between atoms: C_15  and  O_16
REMARK    7  A    between atoms: O_16  and  C_17
REMARK    8  A    between atoms: N_19  and  C_20
REMARK                            x       y       z     vdW  Elec       q    Type
REMARK                         _______ _______ _______ _____ _____    ______ ____
ROOT
ATOM      1  C   UNL     1      -1.518  12.178  19.239  0.00  0.00    +0.000 C 
ATOM      2  C   UNL     1      -0.665  12.866  18.179  0.00  0.00    +0.000 C 
ATOM      3  C   UNL     1      -0.098  14.115  18.824  0.00  0.00    +0.000 C 
ATOM      4  N   UNL     1      -0.921  14.397  19.984  0.00  0.00    +0.000 NA
ATOM      5  C   UNL     1      -0.207  14.902  21.143  0.00  0.00    +0.000 C 
ATOM      6  C   UNL     1      -1.961  13.363  20.170  0.00  0.00    +0.000 C 
ATOM      7  N   UNL     1      -2.222  12.801  21.505  0.00  0.00    +0.000 N 
ATOM      8  C   UNL     1      -3.601  12.583  21.911  0.00  0.00    +0.000 C 
ATOM      9  C   UNL     1      -1.382  11.670  21.543  0.00  0.00    +0.000 A 
ATOM     10  C   UNL     1      -0.991  11.019  22.697  0.00  0.00    +0.000 A 
ATOM     11  C   UNL     1       0.032  10.082  22.604  0.00  0.00    +0.000 A 
ATOM     12  C   UNL     1       0.590   9.745  21.354  0.00  0.00    +0.000 A 
ATOM     13  C   UNL     1       0.158  10.368  20.179  0.00  0.00    +0.000 A 
ATOM     14  C   UNL     1      -0.832  11.335  20.291  0.00  0.00    +0.000 A 
ENDROOT
BRANCH   1  15
ATOM     15  C   UNL     1      -2.691  11.387  18.581  0.00  0.00    +0.000 C 
BRANCH  15  17
ATOM     16  C   UNL     1      -3.770  11.208  16.264  0.00  0.00    +0.000 C 
ATOM     17  C   UNL     1      -2.482  11.166  17.070  0.00  0.00    +0.000 C 
ENDBRANCH  15  17
ENDBRANCH   1  15
BRANCH  12  18
ATOM     18  O   UNL     1       1.636   8.798  21.247  0.00  0.00    +0.000 OA
BRANCH  18  19
ATOM     19  C   UNL     1       1.223   7.498  20.982  0.00  0.00    +0.000 C 
ATOM     20  O   UNL     1       0.057   7.112  21.105  0.00  0.00    +0.000 OA
ATOM     21  N   UNL     1       2.277   6.702  20.591  0.00  0.00    +0.000 N 
ATOM     22  H   UNL     1       3.209   7.066  20.756  0.00  0.00    +0.000 HD
BRANCH  21  23
ATOM     23  C   UNL     1       2.113   5.346  20.234  0.00  0.00    +0.000 A 
ATOM     24  C   UNL     1       2.051   4.335  21.203  0.00  0.00    +0.000 A 
ATOM     25  C   UNL     1       2.038   2.983  20.854  0.00  0.00    +0.000 A 
ATOM     26  C   UNL     1       2.035   2.630  19.516  0.00  0.00    +0.000 A 
ATOM     27  C   UNL     1       2.013   3.624  18.533  0.00  0.00    +0.000 A 
ATOM     28  C   UNL     1       2.040   4.981  18.887  0.00  0.00    +0.000 A 
ENDBRANCH  21  23
ENDBRANCH  18  19
ENDBRANCH  12  18
TORSDOF 5
ENDMDL
MODEL 4
REMARK VINA RESULT:      -6.8      3.039      8.674
REMARK  Name = 
REMARK  8 active torsions:
REMARK  status: ('A' for Active; 'I' for Inactive)
REMARK    1  A    between atoms: C_1  and  C_2
REMARK    2  A    between atoms: C_2  and  C_3
REMARK    3  A    between atoms: C_3  and  C_4
REMARK    4  A    between atoms: N_7  and  C_8
REMARK    5  A    between atoms: N_10  and  C_11
REMARK    6  A    between atoms: C_15  and  O_16
REMARK    7  A    between atoms: O_16  and  C_17
REMARK    8  A    between atoms: N_19  and  C_20
REMARK                            x       y       z     vdW  Elec       q    Type
REMARK                         _______ _______ _______ _____ _____    ______ ____
ROOT
ATOM      1  C   UNL     1       3.887   4.419  18.669  0.00  0.00    +0.000 C 
ATOM      2  C   UNL     1       3.939   3.848  17.256  0.00  0.00    +0.000 C 
ATOM      3  C   UNL     1       2.617   3.142  17.026  0.00  0.00    +0.000 C 
ATOM      4  N   UNL     1       2.040   2.898  18.334  0.00  0.00    +0.000 NA
ATOM      5  C   UNL     1       0.598   3.046  18.413  0.00  0.00    +0.000 C 
ATOM      6  C   UNL     1       2.885   3.460  19.408  0.00  0.00    +0.000 C 
ATOM      7  N   UNL     1       2.278   4.223  20.510  0.00  0.00    +0.000 N 
ATOM      8  C   UNL     1       2.761   3.998  21.863  0.00  0.00    +0.000 C 
ATOM      9  C   UNL     1       2.338   5.553  20.047  0.00  0.00    +0.000 A 
ATOM     10  C   UNL     1       1.580   6.595  20.545  0.00  0.00    +0.000 A 
ATOM     11  C   UNL     1       1.559   7.788  19.831  0.00  0.00    +0.000 A 
ATOM     12  C   UNL     1       2.359   7.955  18.683  0.00  0.00    +0.000 A 
ATOM     13  C   UNL     1       3.166   6.917  18.208  0.00  0.00    +0.000 A 
ATOM     14  C   UNL     1       3.142   5.715  18.904  0.00  0.00    +0.000 A 
ENDROOT
BRANCH   1  15
ATOM     15  C   UNL     1       5.314   4.485  19.294  0.00  0.00    +0.000 C 
BRANCH  15  17
ATOM     16  C   UNL     1       7.539   5.662  18.816  0.00  0.00    +0.000 C 
ATOM     17  C   UNL     1       6.401   4.824  18.255  0.00  0.00    +0.000 C 
ENDBRANCH  15  17
ENDBRANCH   1  15
BRANCH  12  18
ATOM     18  O   UNL     1       2.343   9.161  17.944  0.00  0.00    +0.000 OA
BRANCH  18  19
ATOM     19  C   UNL     1       1.284  10.012  18.236  0.00  0.00    +0.000 C 
ATOM     20  O   UNL     1       1.389  11.015  18.947  0.00  0.00    +0.000 OA
ATOM     21  N   UNL     1       0.112   9.581  17.654  0.00  0.00    +0.000 N 
ATOM     22  H   UNL     1       0.102   8.633  17.298  0.00  0.00    +0.000 HD
BRANCH  21  23
ATOM     23  C   UNL     1      -1.102  10.292  17.774  0.00  0.00    +0.000 A 
ATOM     24  C   UNL     1      -1.359  11.122  18.873  0.00  0.00    +0.000 A 
ATOM     25  C   UNL     1      -2.610  11.709  19.073  0.00  0.00    +0.000 A 
ATOM     26  C   UNL     1      -3.609  11.510  18.135  0.00  0.00    +0.000 A 
ATOM     27  C   UNL     1      -3.347  10.754  16.989  0.00  0.00    +0.000 A 
ATOM     28  C   UNL     1      -2.093  10.154  16.799  0.00  0.00    +0.000 A 
ENDBRANCH  21  23
ENDBRANCH  18  19
ENDBRANCH  12  18
TORSDOF 5
ENDMDL
MODEL 5
REMARK VINA RESULT:      -6.7      2.014      2.927
REMARK  Name = 
REMARK  8 active torsions:
REMARK  status: ('A' for Active; 'I' for Inactive)
REMARK    1  A    between atoms: C_1  and  C_2
REMARK    2  A    between atoms: C_2  and  C_3
REMARK    3  A    between atoms: C_3  and  C_4
REMARK    4  A    between atoms: N_7  and  C_8
REMARK    5  A    between atoms: N_10  and  C_11
REMARK    6  A    between atoms: C_15  and  O_16
REMARK    7  A    between atoms: O_16  and  C_17
REMARK    8  A    between atoms: N_19  and  C_20
REMARK                            x       y       z     vdW  Elec       q    Type
REMARK                         _______ _______ _______ _____ _____    ______ ____
ROOT
ATOM      1  C   UNL     1      -0.790  11.681  19.128  0.00  0.00    +0.000 C 
ATOM      2  C   UNL     1      -0.468  12.781  18.122  0.00  0.00    +0.000 C 
ATOM      3  C   UNL     1       0.534  13.700  18.793  0.00  0.00    +0.000 C 
ATOM      4  N   UNL     1       0.441  13.451  20.219  0.00  0.00    +0.000 NA
ATOM      5  C   UNL     1       1.702  13.493  20.938  0.00  0.00    +0.000 C 
ATOM      6  C   UNL     1      -0.524  12.372  20.514  0.00  0.00    +0.000 C 
ATOM      7  N   UNL     1      -0.184  11.311  21.477  0.00  0.00    +0.000 N 
ATOM      8  C   UNL     1      -1.202  10.872  22.417  0.00  0.00    +0.000 C 
ATOM      9  C   UNL     1       0.374  10.308  20.660  0.00  0.00    +0.000 A 
ATOM     10  C   UNL     1       1.170   9.275  21.115  0.00  0.00    +0.000 A 
ATOM     11  C   UNL     1       1.852   8.511  20.174  0.00  0.00    +0.000 A 
ATOM     12  C   UNL     1       1.664   8.731  18.794  0.00  0.00    +0.000 A 
ATOM     13  C   UNL     1       0.818   9.744  18.333  0.00  0.00    +0.000 A 
ATOM     14  C   UNL     1       0.179  10.530  19.283  0.00  0.00    +0.000 A 
ENDROOT
BRANCH   1  15
ATOM     15  C   UNL     1      -2.243  11.152  18.926  0.00  0.00    +0.000 C 
BRANCH  15  17
ATOM     16  C   UNL     1      -4.666  11.957  18.705  0.00  0.00    +0.000 C 
ATOM     17  C   UNL     1      -3.311  12.174  19.361  0.00  0.00    +0.000 C 
ENDBRANCH  15  17
ENDBRANCH   1  15
BRANCH  12  18
ATOM     18  O   UNL     1       2.357   7.965  17.827  0.00  0.00    +0.000 OA
BRANCH  18  19
ATOM     19  C   UNL     1       2.691   6.678  18.229  0.00  0.00    +0.000 C 
ATOM     20  O   UNL     1       3.769   6.383  18.754  0.00  0.00    +0.000 OA
ATOM     21  N   UNL     1       1.683   5.782  17.948  0.00  0.00    +0.000 N 
ATOM     22  H   UNL     1       0.959   6.095  17.312  0.00  0.00    +0.000 HD
BRANCH  21  23
ATOM     23  C   UNL     1       1.766   4.414  18.289  0.00  0.00    +0.000 A 
ATOM     24  C   UNL     1       1.284   3.934  19.514  0.00  0.00    +0.000 A 
ATOM     25  C   UNL     1       1.496   2.614  19.920  0.00  0.00    +0.000 A 
ATOM     26  C   UNL     1       2.153   1.742  19.069  0.00  0.00    +0.000 A 
ATOM     27  C   UNL     1       2.567   2.179  17.808  0.00  0.00    +0.000 A 
ATOM     28  C   UNL     1       2.366   3.509  17.410  0.00  0.00    +0.000 A 
ENDBRANCH  21  23
ENDBRANCH  18  19
ENDBRANCH  12  18
TORSDOF 5
ENDMDL
MODEL 6
REMARK VINA RESULT:      -6.6      1.085      1.263
REMARK  Name = 
REMARK  8 active torsions:
REMARK  status: ('A' for Active; 'I' for Inactive)
REMARK    1  A    between atoms: C_1  and  C_2
REMARK    2  A    between atoms: C_2  and  C_3
REMARK    3  A    between atoms: C_3  and  C_4
REMARK    4  A    between atoms: N_7  and  C_8
REMARK    5  A    between atoms: N_10  and  C_11
REMARK    6  A    between atoms: C_15  and  O_16
REMARK    7  A    between atoms: O_16  and  C_17
REMARK    8  A    between atoms: N_19  and  C_20
REMARK                            x       y       z     vdW  Elec       q    Type
REMARK                         _______ _______ _______ _____ _____    ______ ____
ROOT
ATOM      1  C   UNL     1      -0.962  11.925  19.420  0.00  0.00    +0.000 C 
ATOM      2  C   UNL     1       0.109  12.449  18.470  0.00  0.00    +0.000 C 
ATOM      3  C   UNL     1       0.749  13.641  19.155  0.00  0.00    +0.000 C 
ATOM      4  N   UNL     1      -0.177  14.078  20.184  0.00  0.00    +0.000 NA
ATOM      5  C   UNL     1       0.438  14.537  21.416  0.00  0.00    +0.000 C 
ATOM      6  C   UNL     1      -1.362  13.198  20.250  0.00  0.00    +0.000 C 
ATOM      7  N   UNL     1      -1.872  12.733  21.550  0.00  0.00    +0.000 N 
ATOM      8  C   UNL     1      -3.309  12.715  21.768  0.00  0.00    +0.000 C 
ATOM      9  C   UNL     1      -1.204  11.506  21.733  0.00  0.00    +0.000 A 
ATOM     10  C   UNL     1      -1.062  10.860  22.946  0.00  0.00    +0.000 A 
ATOM     11  C   UNL     1      -0.172   9.795  23.020  0.00  0.00    +0.000 A 
ATOM     12  C   UNL     1       0.497   9.334  21.867  0.00  0.00    +0.000 A 
ATOM     13  C   UNL     1       0.314   9.955  20.628  0.00  0.00    +0.000 A 
ATOM     14  C   UNL     1      -0.543  11.048  20.578  0.00  0.00    +0.000 A 
ENDROOT
BRANCH   1  15
ATOM     15  C   UNL     1      -2.133  11.266  18.627  0.00  0.00    +0.000 C 
BRANCH  15  17
ATOM     16  C   UNL     1      -2.580  10.131  16.373  0.00  0.00    +0.000 C 
ATOM     17  C   UNL     1      -1.638  10.272  17.558  0.00  0.00    +0.000 C 
ENDBRANCH  15  17
ENDBRANCH   1  15
BRANCH  12  18
ATOM     18  O   UNL     1       1.410   8.255  21.929  0.00  0.00    +0.000 OA
BRANCH  18  19
ATOM     19  C   UNL     1       1.757   7.710  20.699  0.00  0.00    +0.000 C 
ATOM     20  O   UNL     1       1.771   8.352  19.646  0.00  0.00    +0.000 OA
ATOM     21  N   UNL     1       2.058   6.369  20.806  0.00  0.00    +0.000 N 
ATOM     22  H   UNL     1       1.784   5.909  21.666  0.00  0.00    +0.000 HD
BRANCH  21  23
ATOM     23  C   UNL     1       2.472   5.594  19.701  0.00  0.00    +0.000 A 
ATOM     24  C   UNL     1       3.805   5.585  19.271  0.00  0.00    +0.000 A 
ATOM     25  C   UNL     1       4.192   4.940  18.094  0.00  0.00    +0.000 A 
ATOM     26  C   UNL     1       3.245   4.247  17.359  0.00  0.00    +0.000 A 
ATOM     27  C   UNL     1       1.926   4.174  17.816  0.00  0.00    +0.000 A 
ATOM     28  C   UNL     1       1.538   4.835  18.990  0.00  0.00    +0.000 A 
ENDBRANCH  21  23
ENDBRANCH  18  19
ENDBRANCH  12  18
TORSDOF 5
ENDMDL
MODEL 7
REMARK VINA RESULT:      -6.6      1.666      2.239
REMARK  Name = 
REMARK  8 active torsions:
REMARK  status: ('A' for Active; 'I' for Inactive)
REMARK    1  A    between atoms: C_1  and  C_2
REMARK    2  A    between atoms: C_2  and  C_3
REMARK    3  A    between atoms: C_3  and  C_4
REMARK    4  A    between atoms: N_7  and  C_8
REMARK    5  A    between atoms: N_10  and  C_11
REMARK    6  A    between atoms: C_15  and  O_16
REMARK    7  A    between atoms: O_16  and  C_17
REMARK    8  A    between atoms: N_19  and  C_20
REMARK                            x       y       z     vdW  Elec       q    Type
REMARK                         _______ _______ _______ _____ _____    ______ ____
ROOT
ATOM      1  C   UNL     1      -0.902  12.023  19.299  0.00  0.00    +0.000 C 
ATOM      2  C   UNL     1      -0.453  13.024  18.241  0.00  0.00    +0.000 C 
ATOM      3  C   UNL     1       0.492  13.988  18.931  0.00  0.00    +0.000 C 
ATOM      4  N   UNL     1       0.244  13.868  20.356  0.00  0.00    +0.000 NA
ATOM      5  C   UNL     1       1.422  13.960  21.199  0.00  0.00    +0.000 C 
ATOM      6  C   UNL     1      -0.770  12.831  20.639  0.00  0.00    +0.000 C 
ATOM      7  N   UNL     1      -0.556  11.857  21.722  0.00  0.00    +0.000 N 
ATOM      8  C   UNL     1      -1.676  11.516  22.584  0.00  0.00    +0.000 C 
ATOM      9  C   UNL     1       0.064  10.779  21.061  0.00  0.00    +0.000 A 
ATOM     10  C   UNL     1       0.785   9.781  21.687  0.00  0.00    +0.000 A 
ATOM     11  C   UNL     1       1.547   8.928  20.896  0.00  0.00    +0.000 A 
ATOM     12  C   UNL     1       1.510   9.026  19.490  0.00  0.00    +0.000 A 
ATOM     13  C   UNL     1       0.739  10.004  18.854  0.00  0.00    +0.000 A 
ATOM     14  C   UNL     1       0.020  10.879  19.658  0.00  0.00    +0.000 A 
ENDROOT
BRANCH   1  15
ATOM     15  C   UNL     1      -2.337  11.495  18.990  0.00  0.00    +0.000 C 
BRANCH  15  17
ATOM     16  C   UNL     1      -2.449   9.969  16.935  0.00  0.00    +0.000 C 
ATOM     17  C   UNL     1      -2.613  11.379  17.479  0.00  0.00    +0.000 C 
ENDBRANCH  15  17
ENDBRANCH   1  15
BRANCH  12  18
ATOM     18  O   UNL     1       2.284   8.169  18.673  0.00  0.00    +0.000 OA
BRANCH  18  19
ATOM     19  C   UNL     1       2.298   6.837  19.069  0.00  0.00    +0.000 C 
ATOM     20  O   UNL     1       1.903   6.447  20.171  0.00  0.00    +0.000 OA
ATOM     21  N   UNL     1       2.825   6.023  18.091  0.00  0.00    +0.000 N 
ATOM     22  H   UNL     1       3.326   6.481  17.338  0.00  0.00    +0.000 HD
BRANCH  21  23
ATOM     23  C   UNL     1       2.918   4.622  18.238  0.00  0.00    +0.000 A 
ATOM     24  C   UNL     1       1.870   3.774  17.858  0.00  0.00    +0.000 A 
ATOM     25  C   UNL     1       1.894   2.405  18.136  0.00  0.00    +0.000 A 
ATOM     26  C   UNL     1       3.005   1.861  18.757  0.00  0.00    +0.000 A 
ATOM     27  C   UNL     1       4.097   2.675  19.069  0.00  0.00    +0.000 A 
ATOM     28  C   UNL     1       4.063   4.052  18.801  0.00  0.00    +0.000 A 
ENDBRANCH  21  23
ENDBRANCH  18  19
ENDBRANCH  12  18
TORSDOF 5
ENDMDL
MODEL 8
REMARK VINA RESULT:      -6.5      2.835      9.168
REMARK  Name = 
REMARK  8 active torsions:
REMARK  status: ('A' for Active; 'I' for Inactive)
REMARK    1  A    between atoms: C_1  and  C_2
REMARK    2  A    between atoms: C_2  and  C_3
REMARK    3  A    between atoms: C_3  and  C_4
REMARK    4  A    between atoms: N_7  and  C_8
REMARK    5  A    between atoms: N_10  and  C_11
REMARK    6  A    between atoms: C_15  and  O_16
REMARK    7  A    between atoms: O_16  and  C_17
REMARK    8  A    between atoms: N_19  and  C_20
REMARK                            x       y       z     vdW  Elec       q    Type
REMARK                         _______ _______ _______ _____ _____    ______ ____
ROOT
ATOM      1  C   UNL     1       3.851   4.179  18.115  0.00  0.00    +0.000 C 
ATOM      2  C   UNL     1       4.110   3.454  19.432  0.00  0.00    +0.000 C 
ATOM      3  C   UNL     1       5.510   3.839  19.869  0.00  0.00    +0.000 C 
ATOM      4  N   UNL     1       6.191   4.344  18.692  0.00  0.00    +0.000 NA
ATOM      5  C   UNL     1       7.085   5.465  18.926  0.00  0.00    +0.000 C 
ATOM      6  C   UNL     1       5.292   4.369  17.520  0.00  0.00    +0.000 C 
ATOM      7  N   UNL     1       5.252   5.546  16.637  0.00  0.00    +0.000 N 
ATOM      8  C   UNL     1       5.192   5.337  15.199  0.00  0.00    +0.000 C 
ATOM      9  C   UNL     1       4.215   6.323  17.191  0.00  0.00    +0.000 A 
ATOM     10  C   UNL     1       4.027   7.670  16.953  0.00  0.00    +0.000 A 
ATOM     11  C   UNL     1       3.123   8.358  17.756  0.00  0.00    +0.000 A 
ATOM     12  C   UNL     1       2.357   7.676  18.724  0.00  0.00    +0.000 A 
ATOM     13  C   UNL     1       2.510   6.302  18.930  0.00  0.00    +0.000 A 
ATOM     14  C   UNL     1       3.450   5.636  18.153  0.00  0.00    +0.000 A 
ENDROOT
BRANCH   1  15
ATOM     15  C   UNL     1       2.872   3.362  17.216  0.00  0.00    +0.000 C 
BRANCH  15  17
ATOM     16  C   UNL     1       0.895   2.546  18.628  0.00  0.00    +0.000 C 
ATOM     17  C   UNL     1       2.217   2.187  17.968  0.00  0.00    +0.000 C 
ENDBRANCH  15  17
ENDBRANCH   1  15
BRANCH  12  18
ATOM     18  O   UNL     1       1.440   8.364  19.552  0.00  0.00    +0.000 OA
BRANCH  18  19
ATOM     19  C   UNL     1       0.920   9.531  19.006  0.00  0.00    +0.000 C 
ATOM     20  O   UNL     1       0.356   9.582  17.910  0.00  0.00    +0.000 OA
ATOM     21  N   UNL     1       1.134  10.615  19.830  0.00  0.00    +0.000 N 
ATOM     22  H   UNL     1       1.806  10.492  20.578  0.00  0.00    +0.000 HD
BRANCH  21  23
ATOM     23  C   UNL     1       0.672  11.911  19.515  0.00  0.00    +0.000 A 
ATOM     24  C   UNL     1       1.484  12.837  18.847  0.00  0.00    +0.000 A 
ATOM     25  C   UNL     1       1.089  14.164  18.665  0.00  0.00    +0.000 A 
ATOM     26  C   UNL     1      -0.160  14.565  19.109  0.00  0.00    +0.000 A 
ATOM     27  C   UNL     1      -1.019  13.636  19.703  0.00  0.00    +0.000 A 
ATOM     28  C   UNL     1      -0.613  12.308  19.897  0.00  0.00    +0.000 A 
ENDBRANCH  21  23
ENDBRANCH  18  19
ENDBRANCH  12  18
TORSDOF 5
ENDMDL
MODEL 9
REMARK VINA RESULT:      -6.5      5.962      9.982
REMARK  Name = 
REMARK  8 active torsions:
REMARK  status: ('A' for Active; 'I' for Inactive)
REMARK    1  A    between atoms: C_1  and  C_2
REMARK    2  A    between atoms: C_2  and  C_3
REMARK    3  A    between atoms: C_3  and  C_4
REMARK    4  A    between atoms: N_7  and  C_8
REMARK    5  A    between atoms: N_10  and  C_11
REMARK    6  A    between atoms: C_15  and  O_16
REMARK    7  A    between atoms: O_16  and  C_17
REMARK    8  A    between atoms: N_19  and  C_20
REMARK                            x       y       z     vdW  Elec       q    Type
REMARK                         _______ _______ _______ _____ _____    ______ ____
ROOT
ATOM      1  C   UNL     1       3.410   5.355  18.682  0.00  0.00    +0.000 C 
ATOM      2  C   UNL     1       2.999   5.400  20.149  0.00  0.00    +0.000 C 
ATOM      3  C   UNL     1       3.143   3.988  20.682  0.00  0.00    +0.000 C 
ATOM      4  N   UNL     1       3.163   3.106  19.530  0.00  0.00    +0.000 NA
ATOM      5  C   UNL     1       4.065   1.973  19.633  0.00  0.00    +0.000 C 
ATOM      6  C   UNL     1       3.102   3.871  18.267  0.00  0.00    +0.000 C 
ATOM      7  N   UNL     1       3.996   3.532  17.148  0.00  0.00    +0.000 N 
ATOM      8  C   UNL     1       3.453   3.529  15.799  0.00  0.00    +0.000 C 
ATOM      9  C   UNL     1       5.107   4.371  17.363  0.00  0.00    +0.000 A 
ATOM     10  C   UNL     1       6.357   4.180  16.807  0.00  0.00    +0.000 A 
ATOM     11  C   UNL     1       7.415   4.935  17.302  0.00  0.00    +0.000 A 
ATOM     12  C   UNL     1       7.198   5.927  18.280  0.00  0.00    +0.000 A 
ATOM     13  C   UNL     1       5.922   6.155  18.806  0.00  0.00    +0.000 A 
ATOM     14  C   UNL     1       4.883   5.363  18.337  0.00  0.00    +0.000 A 
ENDROOT
BRANCH   1  15
ATOM     15  C   UNL     1       2.647   6.438  17.858  0.00  0.00    +0.000 C 
BRANCH  15  17
ATOM     16  C   UNL     1       1.978   8.910  17.794  0.00  0.00    +0.000 C 
ATOM     17  C   UNL     1       2.423   7.738  18.654  0.00  0.00    +0.000 C 
ENDBRANCH  15  17
ENDBRANCH   1  15
BRANCH  12  18
ATOM     18  O   UNL     1       8.266   6.697  18.796  0.00  0.00    +0.000 OA
BRANCH  18  19
ATOM     19  C   UNL     1       8.254   8.037  18.427  0.00  0.00    +0.000 C 
ATOM     20  O   UNL     1       7.633   8.473  17.453  0.00  0.00    +0.000 OA
ATOM     21  N   UNL     1       9.035   8.801  19.267  0.00  0.00    +0.000 N 
ATOM     22  H   UNL     1       9.673   8.301  19.875  0.00  0.00    +0.000 HD
BRANCH  21  23
ATOM     23  C   UNL     1       9.161  10.199  19.122  0.00  0.00    +0.000 A 
ATOM     24  C   UNL     1       9.340  10.793  17.866  0.00  0.00    +0.000 A 
ATOM     25  C   UNL     1       9.614  12.156  17.730  0.00  0.00    +0.000 A 
ATOM     26  C   UNL     1       9.659  12.953  18.861  0.00  0.00    +0.000 A 
ATOM     27  C   UNL     1       9.401  12.396  20.117  0.00  0.00    +0.000 A 
ATOM     28  C   UNL     1       9.141  11.024  20.251  0.00  0.00    +0.000 A 
ENDBRANCH  21  23
ENDBRANCH  18  19
ENDBRANCH  12  18
TORSDOF 5
ENDMDL
