MODEL 1
REMARK VINA RESULT:     -10.0      0.000      0.000
REMARK  Name = 
REMARK  7 active torsions:
REMARK  status: ('A' for Active; 'I' for Inactive)
REMARK    1  A    between atoms: C_1  and  C_2
REMARK    2  A    between atoms: C_2  and  C_3
REMARK    3  A    between atoms: C_2  and  C_4
REMARK    4  A    between atoms: C_2  and  C_5
REMARK    5  A    between atoms: N_6  and  N_7
REMARK    6  A    between atoms: C_8  and  C_10
REMARK    7  A    between atoms: C_12  and  C_13
REMARK                            x       y       z     vdW  Elec       q    Type
REMARK                         _______ _______ _______ _____ _____    ______ ____
ROOT
ATOM      1  C   UNL     1       7.186   6.465  17.458  0.00  0.00    +0.000 A 
ATOM      2  C   UNL     1       6.123   5.845  18.097  0.00  0.00    +0.000 A 
ATOM      3  C   UNL     1       5.282   4.954  17.412  0.00  0.00    +0.000 A 
ATOM      4  C   UNL     1       5.623   4.675  16.051  0.00  0.00    +0.000 A 
ATOM      5  C   UNL     1       4.926   3.780  15.201  0.00  0.00    +0.000 A 
ATOM      6  C   UNL     1       5.325   3.491  13.905  0.00  0.00    +0.000 A 
ATOM      7  C   UNL     1       6.451   4.108  13.407  0.00  0.00    +0.000 A 
ATOM      8  C   UNL     1       7.146   5.024  14.199  0.00  0.00    +0.000 A 
ATOM      9  C   UNL     1       6.762   5.336  15.497  0.00  0.00    +0.000 A 
ATOM     10  N   UNL     1       7.511   6.239  16.163  0.00  0.00    +0.000 NA
ENDROOT
BRANCH   3  11
ATOM     11  C   UNL     1       4.074   4.331  18.163  0.00  0.00    +0.000 C 
ATOM     12  C   UNL     1       4.171   2.766  18.225  0.00  0.00    +0.000 C 
ATOM     13  C   UNL     1       2.955   2.153  18.933  0.00  0.00    +0.000 C 
ATOM     14  C   UNL     1       2.921   2.655  20.380  0.00  0.00    +0.000 C 
ATOM     15  C   UNL     1       2.791   4.184  20.390  0.00  0.00    +0.000 C 
ATOM     16  C   UNL     1       1.495   4.599  19.676  0.00  0.00    +0.000 C 
ATOM     17  C   UNL     1       1.528   4.104  18.223  0.00  0.00    +0.000 C 
ATOM     18  C   UNL     1       1.675   2.579  18.201  0.00  0.00    +0.000 C 
ATOM     19  C   UNL     1       2.725   4.731  17.497  0.00  0.00    +0.000 C 
ATOM     20  C   UNL     1       3.996   4.798  19.654  0.00  0.00    +0.000 C 
ENDBRANCH   3  11
BRANCH   1  22
ATOM     21  N   UNL     1       8.002   8.746  17.828  0.00  0.00    +0.000 N 
ATOM     22  C   UNL     1       8.001   7.434  18.251  0.00  0.00    +0.000 C 
ATOM     23  O   UNL     1       8.621   7.019  19.246  0.00  0.00    +0.000 OA
ATOM     24  H   UNL     1       7.430   9.020  17.031  0.00  0.00    +0.000 HD
BRANCH  21  26
ATOM     25  C   UNL     1       9.233  10.665  17.958  0.00  0.00    +0.000 C 
ATOM     26  N   UNL     1       8.680   9.670  18.568  0.00  0.00    +0.000 NA
BRANCH  25  28
ATOM     27  C   UNL     1       9.393  13.112  18.535  0.00  0.00    +0.000 C 
ATOM     28  C   UNL     1      10.012  11.724  18.750  0.00  0.00    +0.000 C 
ATOM     29  C   UNL     1      11.468  11.738  18.265  0.00  0.00    +0.000 C 
ATOM     30  C   UNL     1       9.972  11.384  20.247  0.00  0.00    +0.000 C 
ENDBRANCH  25  28
ENDBRANCH  21  26
ENDBRANCH   1  22
TORSDOF 4
ENDMDL
MODEL 2
REMARK VINA RESULT:     -10.0      0.063      1.638
REMARK  Name = 
REMARK  7 active torsions:
REMARK  status: ('A' for Active; 'I' for Inactive)
REMARK    1  A    between atoms: C_1  and  C_2
REMARK    2  A    between atoms: C_2  and  C_3
REMARK    3  A    between atoms: C_2  and  C_4
REMARK    4  A    between atoms: C_2  and  C_5
REMARK    5  A    between atoms: N_6  and  N_7
REMARK    6  A    between atoms: C_8  and  C_10
REMARK    7  A    between atoms: C_12  and  C_13
REMARK                            x       y       z     vdW  Elec       q    Type
REMARK                         _______ _______ _______ _____ _____    ______ ____
ROOT
ATOM      1  C   UNL     1       7.170   6.459  17.454  0.00  0.00    +0.000 A 
ATOM      2  C   UNL     1       6.112   5.833  18.095  0.00  0.00    +0.000 A 
ATOM      3  C   UNL     1       5.273   4.939  17.410  0.00  0.00    +0.000 A 
ATOM      4  C   UNL     1       5.613   4.662  16.049  0.00  0.00    +0.000 A 
ATOM      5  C   UNL     1       4.918   3.765  15.199  0.00  0.00    +0.000 A 
ATOM      6  C   UNL     1       5.316   3.480  13.902  0.00  0.00    +0.000 A 
ATOM      7  C   UNL     1       6.438   4.103  13.403  0.00  0.00    +0.000 A 
ATOM      8  C   UNL     1       7.130   5.021  14.194  0.00  0.00    +0.000 A 
ATOM      9  C   UNL     1       6.748   5.330  15.493  0.00  0.00    +0.000 A 
ATOM     10  N   UNL     1       7.493   6.235  16.159  0.00  0.00    +0.000 NA
ENDROOT
BRANCH   3  11
ATOM     11  C   UNL     1       4.071   4.309  18.164  0.00  0.00    +0.000 C 
ATOM     12  C   UNL     1       3.935   4.873  19.621  0.00  0.00    +0.000 C 
ATOM     13  C   UNL     1       2.770   4.218  20.374  0.00  0.00    +0.000 C 
ATOM     14  C   UNL     1       1.463   4.546  19.646  0.00  0.00    +0.000 C 
ATOM     15  C   UNL     1       1.517   3.986  18.217  0.00  0.00    +0.000 C 
ATOM     16  C   UNL     1       1.705   2.463  18.264  0.00  0.00    +0.000 C 
ATOM     17  C   UNL     1       3.018   2.129  18.988  0.00  0.00    +0.000 C 
ATOM     18  C   UNL     1       2.982   2.698  20.410  0.00  0.00    +0.000 C 
ATOM     19  C   UNL     1       4.193   2.757  18.230  0.00  0.00    +0.000 C 
ATOM     20  C   UNL     1       2.704   4.623  17.471  0.00  0.00    +0.000 C 
ENDBRANCH   3  11
BRANCH   1  22
ATOM     21  N   UNL     1       7.976   8.744  17.826  0.00  0.00    +0.000 N 
ATOM     22  C   UNL     1       7.982   7.430  18.246  0.00  0.00    +0.000 C 
ATOM     23  O   UNL     1       8.607   7.018  19.240  0.00  0.00    +0.000 OA
ATOM     24  H   UNL     1       7.399   9.015  17.030  0.00  0.00    +0.000 HD
BRANCH  21  26
ATOM     25  C   UNL     1       9.261  10.627  17.949  0.00  0.00    +0.000 C 
ATOM     26  N   UNL     1       8.650   9.669  18.565  0.00  0.00    +0.000 NA
BRANCH  25  28
ATOM     27  C   UNL     1      10.075  11.318  20.230  0.00  0.00    +0.000 C 
ATOM     28  C   UNL     1      10.039  11.687  18.741  0.00  0.00    +0.000 C 
ATOM     29  C   UNL     1       9.345  13.045  18.571  0.00  0.00    +0.000 C 
ATOM     30  C   UNL     1      11.478  11.776  18.212  0.00  0.00    +0.000 C 
ENDBRANCH  25  28
ENDBRANCH  21  26
ENDBRANCH   1  22
TORSDOF 4
ENDMDL
MODEL 3
REMARK VINA RESULT:      -9.9      0.062      1.606
REMARK  Name = 
REMARK  7 active torsions:
REMARK  status: ('A' for Active; 'I' for Inactive)
REMARK    1  A    between atoms: C_1  and  C_2
REMARK    2  A    between atoms: C_2  and  C_3
REMARK    3  A    between atoms: C_2  and  C_4
REMARK    4  A    between atoms: C_2  and  C_5
REMARK    5  A    between atoms: N_6  and  N_7
REMARK    6  A    between atoms: C_8  and  C_10
REMARK    7  A    between atoms: C_12  and  C_13
REMARK                            x       y       z     vdW  Elec       q    Type
REMARK                         _______ _______ _______ _____ _____    ______ ____
ROOT
ATOM      1  C   UNL     1       7.175   6.434  17.478  0.00  0.00    +0.000 A 
ATOM      2  C   UNL     1       6.111   5.815  18.116  0.00  0.00    +0.000 A 
ATOM      3  C   UNL     1       5.263   4.934  17.428  0.00  0.00    +0.000 A 
ATOM      4  C   UNL     1       5.597   4.663  16.064  0.00  0.00    +0.000 A 
ATOM      5  C   UNL     1       4.892   3.778  15.209  0.00  0.00    +0.000 A 
ATOM      6  C   UNL     1       5.285   3.497  13.910  0.00  0.00    +0.000 A 
ATOM      7  C   UNL     1       6.412   4.112  13.413  0.00  0.00    +0.000 A 
ATOM      8  C   UNL     1       7.115   5.017  14.209  0.00  0.00    +0.000 A 
ATOM      9  C   UNL     1       6.738   5.322  15.511  0.00  0.00    +0.000 A 
ATOM     10  N   UNL     1       7.494   6.216  16.181  0.00  0.00    +0.000 NA
ENDROOT
BRANCH   3  11
ATOM     11  C   UNL     1       4.055   4.312  18.179  0.00  0.00    +0.000 C 
ATOM     12  C   UNL     1       2.697   4.621  17.457  0.00  0.00    +0.000 C 
ATOM     13  C   UNL     1       1.503   4.038  18.225  0.00  0.00    +0.000 C 
ATOM     14  C   UNL     1       1.644   2.514  18.275  0.00  0.00    +0.000 C 
ATOM     15  C   UNL     1       2.943   2.142  19.005  0.00  0.00    +0.000 C 
ATOM     16  C   UNL     1       2.910   2.698  20.436  0.00  0.00    +0.000 C 
ATOM     17  C   UNL     1       2.775   4.227  20.391  0.00  0.00    +0.000 C 
ATOM     18  C   UNL     1       1.490   4.610  19.650  0.00  0.00    +0.000 C 
ATOM     19  C   UNL     1       3.977   4.823  19.648  0.00  0.00    +0.000 C 
ATOM     20  C   UNL     1       4.138   2.751  18.250  0.00  0.00    +0.000 C 
ENDBRANCH   3  11
BRANCH   1  22
ATOM     21  N   UNL     1       8.018   8.705  17.853  0.00  0.00    +0.000 N 
ATOM     22  C   UNL     1       7.999   7.392  18.275  0.00  0.00    +0.000 C 
ATOM     23  O   UNL     1       8.609   6.970  19.273  0.00  0.00    +0.000 OA
ATOM     24  H   UNL     1       7.452   8.986  17.053  0.00  0.00    +0.000 HD
BRANCH  21  26
ATOM     25  C   UNL     1       9.174  10.668  18.007  0.00  0.00    +0.000 C 
ATOM     26  N   UNL     1       8.703   9.619  18.597  0.00  0.00    +0.000 NA
BRANCH  25  28
ATOM     27  C   UNL     1      11.430  11.726  18.370  0.00  0.00    +0.000 C 
ATOM     28  C   UNL     1       9.958  11.720  18.803  0.00  0.00    +0.000 C 
ATOM     29  C   UNL     1       9.871  11.381  20.297  0.00  0.00    +0.000 C 
ATOM     30  C   UNL     1       9.358  13.111  18.556  0.00  0.00    +0.000 C 
ENDBRANCH  25  28
ENDBRANCH  21  26
ENDBRANCH   1  22
TORSDOF 4
ENDMDL
MODEL 4
REMARK VINA RESULT:      -9.0      4.545      7.365
REMARK  Name = 
REMARK  7 active torsions:
REMARK  status: ('A' for Active; 'I' for Inactive)
REMARK    1  A    between atoms: C_1  and  C_2
REMARK    2  A    between atoms: C_2  and  C_3
REMARK    3  A    between atoms: C_2  and  C_4
REMARK    4  A    between atoms: C_2  and  C_5
REMARK    5  A    between atoms: N_6  and  N_7
REMARK    6  A    between atoms: C_8  and  C_10
REMARK    7  A    between atoms: C_12  and  C_13
REMARK                            x       y       z     vdW  Elec       q    Type
REMARK                         _______ _______ _______ _____ _____    ______ ____
ROOT
ATOM      1  C   UNL     1       1.912   7.005  20.226  0.00  0.00    +0.000 A 
ATOM      2  C   UNL     1       2.989   6.910  19.358  0.00  0.00    +0.000 A 
ATOM      3  C   UNL     1       3.673   5.697  19.178  0.00  0.00    +0.000 A 
ATOM      4  C   UNL     1       3.156   4.564  19.881  0.00  0.00    +0.000 A 
ATOM      5  C   UNL     1       3.678   3.248  19.807  0.00  0.00    +0.000 A 
ATOM      6  C   UNL     1       3.111   2.164  20.459  0.00  0.00    +0.000 A 
ATOM      7  C   UNL     1       1.988   2.369  21.228  0.00  0.00    +0.000 A 
ATOM      8  C   UNL     1       1.463   3.656  21.357  0.00  0.00    +0.000 A 
ATOM      9  C   UNL     1       2.017   4.760  20.721  0.00  0.00    +0.000 A 
ATOM     10  N   UNL     1       1.423   5.953  20.925  0.00  0.00    +0.000 NA
ENDROOT
BRANCH   3  11
ATOM     11  C   UNL     1       4.905   5.662  18.234  0.00  0.00    +0.000 C 
ATOM     12  C   UNL     1       6.253   5.646  19.037  0.00  0.00    +0.000 C 
ATOM     13  C   UNL     1       7.468   5.652  18.100  0.00  0.00    +0.000 C 
ATOM     14  C   UNL     1       7.442   4.379  17.248  0.00  0.00    +0.000 C 
ATOM     15  C   UNL     1       6.158   4.350  16.407  0.00  0.00    +0.000 C 
ATOM     16  C   UNL     1       6.113   5.580  15.487  0.00  0.00    +0.000 C 
ATOM     17  C   UNL     1       6.133   6.859  16.337  0.00  0.00    +0.000 C 
ATOM     18  C   UNL     1       7.403   6.889  17.193  0.00  0.00    +0.000 C 
ATOM     19  C   UNL     1       4.908   6.877  17.260  0.00  0.00    +0.000 C 
ATOM     20  C   UNL     1       4.939   4.374  17.347  0.00  0.00    +0.000 C 
ENDBRANCH   3  11
BRANCH   1  22
ATOM     21  N   UNL     1       1.203   9.149  19.273  0.00  0.00    +0.000 N 
ATOM     22  C   UNL     1       1.272   8.345  20.391  0.00  0.00    +0.000 C 
ATOM     23  O   UNL     1       0.828   8.662  21.509  0.00  0.00    +0.000 OA
ATOM     24  H   UNL     1       1.546   8.800  18.379  0.00  0.00    +0.000 HD
BRANCH  21  26
ATOM     25  C   UNL     1      -0.654  10.438  18.953  0.00  0.00    +0.000 C 
ATOM     26  N   UNL     1       0.565  10.350  19.371  0.00  0.00    +0.000 NA
BRANCH  25  28
ATOM     27  C   UNL     1      -2.792  11.644  18.385  0.00  0.00    +0.000 C 
ATOM     28  C   UNL     1      -1.408  11.773  19.036  0.00  0.00    +0.000 C 
ATOM     29  C   UNL     1      -0.599  12.849  18.300  0.00  0.00    +0.000 C 
ATOM     30  C   UNL     1      -1.582  12.177  20.507  0.00  0.00    +0.000 C 
ENDBRANCH  25  28
ENDBRANCH  21  26
ENDBRANCH   1  22
TORSDOF 4
ENDMDL
MODEL 5
REMARK VINA RESULT:      -8.9      4.543      7.403
REMARK  Name = 
REMARK  7 active torsions:
REMARK  status: ('A' for Active; 'I' for Inactive)
REMARK    1  A    between atoms: C_1  and  C_2
REMARK    2  A    between atoms: C_2  and  C_3
REMARK    3  A    between atoms: C_2  and  C_4
REMARK    4  A    between atoms: C_2  and  C_5
REMARK    5  A    between atoms: N_6  and  N_7
REMARK    6  A    between atoms: C_8  and  C_10
REMARK    7  A    between atoms: C_12  and  C_13
REMARK                            x       y       z     vdW  Elec       q    Type
REMARK                         _______ _______ _______ _____ _____    ______ ____
ROOT
ATOM      1  C   UNL     1       1.906   7.008  20.224  0.00  0.00    +0.000 A 
ATOM      2  C   UNL     1       2.983   6.919  19.355  0.00  0.00    +0.000 A 
ATOM      3  C   UNL     1       3.675   5.710  19.177  0.00  0.00    +0.000 A 
ATOM      4  C   UNL     1       3.168   4.575  19.884  0.00  0.00    +0.000 A 
ATOM      5  C   UNL     1       3.699   3.263  19.813  0.00  0.00    +0.000 A 
ATOM      6  C   UNL     1       3.141   2.176  20.468  0.00  0.00    +0.000 A 
ATOM      7  C   UNL     1       2.017   2.376  21.238  0.00  0.00    +0.000 A 
ATOM      8  C   UNL     1       1.483   3.659  21.365  0.00  0.00    +0.000 A 
ATOM      9  C   UNL     1       2.028   4.765  20.725  0.00  0.00    +0.000 A 
ATOM     10  N   UNL     1       1.426   5.955  20.926  0.00  0.00    +0.000 NA
ENDROOT
BRANCH   3  11
ATOM     11  C   UNL     1       4.907   5.681  18.232  0.00  0.00    +0.000 C 
ATOM     12  C   UNL     1       4.907   4.410  17.313  0.00  0.00    +0.000 C 
ATOM     13  C   UNL     1       6.147   4.366  16.410  0.00  0.00    +0.000 C 
ATOM     14  C   UNL     1       6.127   5.586  15.484  0.00  0.00    +0.000 C 
ATOM     15  C   UNL     1       6.162   6.870  16.325  0.00  0.00    +0.000 C 
ATOM     16  C   UNL     1       7.441   6.897  17.176  0.00  0.00    +0.000 C 
ATOM     17  C   UNL     1       7.461   5.679  18.111  0.00  0.00    +0.000 C 
ATOM     18  C   UNL     1       7.410   4.391  17.283  0.00  0.00    +0.000 C 
ATOM     19  C   UNL     1       6.240   5.726  19.037  0.00  0.00    +0.000 C 
ATOM     20  C   UNL     1       4.933   6.899  17.251  0.00  0.00    +0.000 C 
ENDBRANCH   3  11
BRANCH   1  22
ATOM     21  N   UNL     1       1.246   9.174  19.285  0.00  0.00    +0.000 N 
ATOM     22  C   UNL     1       1.257   8.344  20.387  0.00  0.00    +0.000 C 
ATOM     23  O   UNL     1       0.755   8.635  21.487  0.00  0.00    +0.000 OA
ATOM     24  H   UNL     1       1.635   8.846  18.402  0.00  0.00    +0.000 HD
BRANCH  21  26
ATOM     25  C   UNL     1      -0.625  10.447  18.978  0.00  0.00    +0.000 C 
ATOM     26  N   UNL     1       0.602  10.372  19.378  0.00  0.00    +0.000 NA
BRANCH  25  28
ATOM     27  C   UNL     1      -1.596  12.186  20.520  0.00  0.00    +0.000 C 
ATOM     28  C   UNL     1      -1.385  11.778  19.056  0.00  0.00    +0.000 C 
ATOM     29  C   UNL     1      -2.751  11.612  18.375  0.00  0.00    +0.000 C 
ATOM     30  C   UNL     1      -0.584  12.875  18.341  0.00  0.00    +0.000 C 
ENDBRANCH  25  28
ENDBRANCH  21  26
ENDBRANCH   1  22
TORSDOF 4
ENDMDL
MODEL 6
REMARK VINA RESULT:      -8.9      4.567      7.349
REMARK  Name = 
REMARK  7 active torsions:
REMARK  status: ('A' for Active; 'I' for Inactive)
REMARK    1  A    between atoms: C_1  and  C_2
REMARK    2  A    between atoms: C_2  and  C_3
REMARK    3  A    between atoms: C_2  and  C_4
REMARK    4  A    between atoms: C_2  and  C_5
REMARK    5  A    between atoms: N_6  and  N_7
REMARK    6  A    between atoms: C_8  and  C_10
REMARK    7  A    between atoms: C_12  and  C_13
REMARK                            x       y       z     vdW  Elec       q    Type
REMARK                         _______ _______ _______ _____ _____    ______ ____
ROOT
ATOM      1  C   UNL     1       1.936   7.030  20.207  0.00  0.00    +0.000 A 
ATOM      2  C   UNL     1       3.037   6.936  19.369  0.00  0.00    +0.000 A 
ATOM      3  C   UNL     1       3.666   5.703  19.132  0.00  0.00    +0.000 A 
ATOM      4  C   UNL     1       3.070   4.556  19.742  0.00  0.00    +0.000 A 
ATOM      5  C   UNL     1       3.529   3.222  19.598  0.00  0.00    +0.000 A 
ATOM      6  C   UNL     1       2.887   2.129  20.159  0.00  0.00    +0.000 A 
ATOM      7  C   UNL     1       1.748   2.342  20.903  0.00  0.00    +0.000 A 
ATOM      8  C   UNL     1       1.283   3.643  21.100  0.00  0.00    +0.000 A 
ATOM      9  C   UNL     1       1.912   4.755  20.556  0.00  0.00    +0.000 A 
ATOM     10  N   UNL     1       1.371   5.963  20.818  0.00  0.00    +0.000 NA
ENDROOT
BRANCH   3  11
ATOM     11  C   UNL     1       4.928   5.665  18.229  0.00  0.00    +0.000 C 
ATOM     12  C   UNL     1       5.007   6.915  17.283  0.00  0.00    +0.000 C 
ATOM     13  C   UNL     1       6.234   6.852  16.365  0.00  0.00    +0.000 C 
ATOM     14  C   UNL     1       7.499   6.866  17.228  0.00  0.00    +0.000 C 
ATOM     15  C   UNL     1       7.502   5.643  18.156  0.00  0.00    +0.000 C 
ATOM     16  C   UNL     1       7.472   4.356  17.318  0.00  0.00    +0.000 C 
ATOM     17  C   UNL     1       6.202   4.334  16.455  0.00  0.00    +0.000 C 
ATOM     18  C   UNL     1       6.181   5.560  15.536  0.00  0.00    +0.000 C 
ATOM     19  C   UNL     1       4.967   4.371  17.364  0.00  0.00    +0.000 C 
ATOM     20  C   UNL     1       6.255   5.692  19.057  0.00  0.00    +0.000 C 
ENDBRANCH   3  11
BRANCH   1  22
ATOM     21  N   UNL     1       1.151   9.180  19.329  0.00  0.00    +0.000 N 
ATOM     22  C   UNL     1       1.357   8.388  20.439  0.00  0.00    +0.000 C 
ATOM     23  O   UNL     1       1.082   8.730  21.603  0.00  0.00    +0.000 OA
ATOM     24  H   UNL     1       1.356   8.811  18.401  0.00  0.00    +0.000 HD
BRANCH  21  26
ATOM     25  C   UNL     1      -0.653  10.559  19.085  0.00  0.00    +0.000 C 
ATOM     26  N   UNL     1       0.561  10.398  19.497  0.00  0.00    +0.000 NA
BRANCH  25  28
ATOM     27  C   UNL     1      -0.637  12.986  18.413  0.00  0.00    +0.000 C 
ATOM     28  C   UNL     1      -1.353  11.915  19.246  0.00  0.00    +0.000 C 
ATOM     29  C   UNL     1      -1.322  12.319  20.727  0.00  0.00    +0.000 C 
ATOM     30  C   UNL     1      -2.810  11.805  18.775  0.00  0.00    +0.000 C 
ENDBRANCH  25  28
ENDBRANCH  21  26
ENDBRANCH   1  22
TORSDOF 4
ENDMDL
MODEL 7
REMARK VINA RESULT:      -8.8      4.547      7.290
REMARK  Name = 
REMARK  7 active torsions:
REMARK  status: ('A' for Active; 'I' for Inactive)
REMARK    1  A    between atoms: C_1  and  C_2
REMARK    2  A    between atoms: C_2  and  C_3
REMARK    3  A    between atoms: C_2  and  C_4
REMARK    4  A    between atoms: C_2  and  C_5
REMARK    5  A    between atoms: N_6  and  N_7
REMARK    6  A    between atoms: C_8  and  C_10
REMARK    7  A    between atoms: C_12  and  C_13
REMARK                            x       y       z     vdW  Elec       q    Type
REMARK                         _______ _______ _______ _____ _____    ______ ____
ROOT
ATOM      1  C   UNL     1       1.921   6.860  20.209  0.00  0.00    +0.000 A 
ATOM      2  C   UNL     1       3.078   6.822  19.445  0.00  0.00    +0.000 A 
ATOM      3  C   UNL     1       3.637   5.602  19.034  0.00  0.00    +0.000 A 
ATOM      4  C   UNL     1       2.914   4.419  19.385  0.00  0.00    +0.000 A 
ATOM      5  C   UNL     1       3.289   3.097  19.035  0.00  0.00    +0.000 A 
ATOM      6  C   UNL     1       2.529   1.980  19.345  0.00  0.00    +0.000 A 
ATOM      7  C   UNL     1       1.351   2.154  20.036  0.00  0.00    +0.000 A 
ATOM      8  C   UNL     1       0.963   3.435  20.432  0.00  0.00    +0.000 A 
ATOM      9  C   UNL     1       1.711   4.569  20.141  0.00  0.00    +0.000 A 
ATOM     10  N   UNL     1       1.235   5.753  20.578  0.00  0.00    +0.000 NA
ENDROOT
BRANCH   3  11
ATOM     11  C   UNL     1       4.963   5.617  18.226  0.00  0.00    +0.000 C 
ATOM     12  C   UNL     1       6.219   5.574  19.166  0.00  0.00    +0.000 C 
ATOM     13  C   UNL     1       7.526   5.630  18.365  0.00  0.00    +0.000 C 
ATOM     14  C   UNL     1       7.605   4.396  17.461  0.00  0.00    +0.000 C 
ATOM     15  C   UNL     1       6.418   4.397  16.487  0.00  0.00    +0.000 C 
ATOM     16  C   UNL     1       6.457   5.666  15.623  0.00  0.00    +0.000 C 
ATOM     17  C   UNL     1       6.372   6.905  16.525  0.00  0.00    +0.000 C 
ATOM     18  C   UNL     1       7.543   6.906  17.512  0.00  0.00    +0.000 C 
ATOM     19  C   UNL     1       5.056   6.874  17.312  0.00  0.00    +0.000 C 
ATOM     20  C   UNL     1       5.106   4.370  17.292  0.00  0.00    +0.000 C 
ENDBRANCH   3  11
BRANCH   1  22
ATOM     21  N   UNL     1       1.136   9.114  19.649  0.00  0.00    +0.000 N 
ATOM     22  C   UNL     1       1.421   8.200  20.642  0.00  0.00    +0.000 C 
ATOM     23  O   UNL     1       1.277   8.421  21.857  0.00  0.00    +0.000 OA
ATOM     24  H   UNL     1       1.234   8.843  18.671  0.00  0.00    +0.000 HD
BRANCH  21  26
ATOM     25  C   UNL     1      -0.607  10.589  19.674  0.00  0.00    +0.000 C 
ATOM     26  N   UNL     1       0.614  10.322  20.004  0.00  0.00    +0.000 NA
BRANCH  25  28
ATOM     27  C   UNL     1      -1.431  12.034  21.565  0.00  0.00    +0.000 C 
ATOM     28  C   UNL     1      -1.233  11.939  20.047  0.00  0.00    +0.000 C 
ATOM     29  C   UNL     1      -2.594  12.067  19.349  0.00  0.00    +0.000 C 
ATOM     30  C   UNL     1      -0.313  13.080  19.590  0.00  0.00    +0.000 C 
ENDBRANCH  25  28
ENDBRANCH  21  26
ENDBRANCH   1  22
TORSDOF 4
ENDMDL
MODEL 8
REMARK VINA RESULT:      -8.7      4.611      6.884
REMARK  Name = 
REMARK  7 active torsions:
REMARK  status: ('A' for Active; 'I' for Inactive)
REMARK    1  A    between atoms: C_1  and  C_2
REMARK    2  A    between atoms: C_2  and  C_3
REMARK    3  A    between atoms: C_2  and  C_4
REMARK    4  A    between atoms: C_2  and  C_5
REMARK    5  A    between atoms: N_6  and  N_7
REMARK    6  A    between atoms: C_8  and  C_10
REMARK    7  A    between atoms: C_12  and  C_13
REMARK                            x       y       z     vdW  Elec       q    Type
REMARK                         _______ _______ _______ _____ _____    ______ ____
ROOT
ATOM      1  C   UNL     1       1.899   7.018  20.232  0.00  0.00    +0.000 A 
ATOM      2  C   UNL     1       2.968   6.920  19.354  0.00  0.00    +0.000 A 
ATOM      3  C   UNL     1       3.621   5.697  19.138  0.00  0.00    +0.000 A 
ATOM      4  C   UNL     1       3.083   4.558  19.815  0.00  0.00    +0.000 A 
ATOM      5  C   UNL     1       3.572   3.232  19.703  0.00  0.00    +0.000 A 
ATOM      6  C   UNL     1       2.984   2.145  20.331  0.00  0.00    +0.000 A 
ATOM      7  C   UNL     1       1.871   2.357  21.113  0.00  0.00    +0.000 A 
ATOM      8  C   UNL     1       1.377   3.652  21.279  0.00  0.00    +0.000 A 
ATOM      9  C   UNL     1       1.953   4.759  20.668  0.00  0.00    +0.000 A 
ATOM     10  N   UNL     1       1.390   5.961  20.907  0.00  0.00    +0.000 NA
ENDROOT
BRANCH   3  11
ATOM     11  C   UNL     1       4.847   5.656  18.185  0.00  0.00    +0.000 C 
ATOM     12  C   UNL     1       4.821   4.394  17.254  0.00  0.00    +0.000 C 
ATOM     13  C   UNL     1       6.054   4.338  16.344  0.00  0.00    +0.000 C 
ATOM     14  C   UNL     1       6.049   5.566  15.428  0.00  0.00    +0.000 C 
ATOM     15  C   UNL     1       6.110   6.842  16.281  0.00  0.00    +0.000 C 
ATOM     16  C   UNL     1       7.393   6.841  17.124  0.00  0.00    +0.000 C 
ATOM     17  C   UNL     1       7.400   5.614  18.049  0.00  0.00    +0.000 C 
ATOM     18  C   UNL     1       7.323   4.336  17.209  0.00  0.00    +0.000 C 
ATOM     19  C   UNL     1       6.185   5.673  18.982  0.00  0.00    +0.000 C 
ATOM     20  C   UNL     1       4.887   6.883  17.215  0.00  0.00    +0.000 C 
ENDBRANCH   3  11
BRANCH   1  22
ATOM     21  N   UNL     1       1.304   9.230  19.361  0.00  0.00    +0.000 N 
ATOM     22  C   UNL     1       1.293   8.368  20.437  0.00  0.00    +0.000 C 
ATOM     23  O   UNL     1       0.803   8.642  21.547  0.00  0.00    +0.000 OA
ATOM     24  H   UNL     1       1.680   8.916  18.467  0.00  0.00    +0.000 HD
BRANCH  21  26
ATOM     25  C   UNL     1       1.287  11.485  19.000  0.00  0.00    +0.000 C 
ATOM     26  N   UNL     1       0.699  10.445  19.491  0.00  0.00    +0.000 NA
BRANCH  25  28
ATOM     27  C   UNL     1       1.607  13.954  18.621  0.00  0.00    +0.000 C 
ATOM     28  C   UNL     1       0.645  12.873  19.130  0.00  0.00    +0.000 C 
ATOM     29  C   UNL     1       0.323  13.136  20.608  0.00  0.00    +0.000 C 
ATOM     30  C   UNL     1      -0.649  12.925  18.305  0.00  0.00    +0.000 C 
ENDBRANCH  25  28
ENDBRANCH  21  26
ENDBRANCH   1  22
TORSDOF 4
ENDMDL
MODEL 9
REMARK VINA RESULT:      -8.7      4.626      6.874
REMARK  Name = 
REMARK  7 active torsions:
REMARK  status: ('A' for Active; 'I' for Inactive)
REMARK    1  A    between atoms: C_1  and  C_2
REMARK    2  A    between atoms: C_2  and  C_3
REMARK    3  A    between atoms: C_2  and  C_4
REMARK    4  A    between atoms: C_2  and  C_5
REMARK    5  A    between atoms: N_6  and  N_7
REMARK    6  A    between atoms: C_8  and  C_10
REMARK    7  A    between atoms: C_12  and  C_13
REMARK                            x       y       z     vdW  Elec       q    Type
REMARK                         _______ _______ _______ _____ _____    ______ ____
ROOT
ATOM      1  C   UNL     1       1.903   6.865  20.214  0.00  0.00    +0.000 A 
ATOM      2  C   UNL     1       3.073   6.828  19.470  0.00  0.00    +0.000 A 
ATOM      3  C   UNL     1       3.626   5.610  19.044  0.00  0.00    +0.000 A 
ATOM      4  C   UNL     1       2.883   4.429  19.359  0.00  0.00    +0.000 A 
ATOM      5  C   UNL     1       3.250   3.110  18.990  0.00  0.00    +0.000 A 
ATOM      6  C   UNL     1       2.471   1.996  19.264  0.00  0.00    +0.000 A 
ATOM      7  C   UNL     1       1.283   2.171  19.938  0.00  0.00    +0.000 A 
ATOM      8  C   UNL     1       0.903   3.448  20.352  0.00  0.00    +0.000 A 
ATOM      9  C   UNL     1       1.668   4.579  20.097  0.00  0.00    +0.000 A 
ATOM     10  N   UNL     1       1.199   5.759  20.549  0.00  0.00    +0.000 NA
ENDROOT
BRANCH   3  11
ATOM     11  C   UNL     1       4.966   5.625  18.260  0.00  0.00    +0.000 C 
ATOM     12  C   UNL     1       6.204   5.563  19.221  0.00  0.00    +0.000 C 
ATOM     13  C   UNL     1       7.526   5.619  18.444  0.00  0.00    +0.000 C 
ATOM     14  C   UNL     1       7.612   4.396  17.526  0.00  0.00    +0.000 C 
ATOM     15  C   UNL     1       6.442   4.416  16.532  0.00  0.00    +0.000 C 
ATOM     16  C   UNL     1       6.505   5.695  15.684  0.00  0.00    +0.000 C 
ATOM     17  C   UNL     1       6.413   6.924  16.599  0.00  0.00    +0.000 C 
ATOM     18  C   UNL     1       7.567   6.905  17.606  0.00  0.00    +0.000 C 
ATOM     19  C   UNL     1       5.083   6.893  17.362  0.00  0.00    +0.000 C 
ATOM     20  C   UNL     1       5.116   4.389  17.314  0.00  0.00    +0.000 C 
ENDBRANCH   3  11
BRANCH   1  22
ATOM     21  N   UNL     1       1.043   9.098  19.683  0.00  0.00    +0.000 N 
ATOM     22  C   UNL     1       1.411   8.202  20.664  0.00  0.00    +0.000 C 
ATOM     23  O   UNL     1       1.347   8.436  21.884  0.00  0.00    +0.000 OA
ATOM     24  H   UNL     1       1.078   8.817  18.704  0.00  0.00    +0.000 HD
BRANCH  21  26
ATOM     25  C   UNL     1       0.833  11.350  19.369  0.00  0.00    +0.000 C 
ATOM     26  N   UNL     1       0.525  10.302  20.059  0.00  0.00    +0.000 NA
BRANCH  25  28
ATOM     27  C   UNL     1      -0.162  13.499  18.511  0.00  0.00    +0.000 C 
ATOM     28  C   UNL     1       0.279  12.727  19.761  0.00  0.00    +0.000 C 
ATOM     29  C   UNL     1       1.377  13.518  20.485  0.00  0.00    +0.000 C 
ATOM     30  C   UNL     1      -0.928  12.553  20.694  0.00  0.00    +0.000 C 
ENDBRANCH  25  28
ENDBRANCH  21  26
ENDBRANCH   1  22
TORSDOF 4
ENDMDL
