MODEL 1
REMARK VINA RESULT:      -8.0      0.000      0.000
REMARK  Name = 
REMARK  7 active torsions:
REMARK  status: ('A' for Active; 'I' for Inactive)
REMARK    1  A    between atoms: C_1  and  O_2
REMARK    2  A    between atoms: O_2  and  C_3
REMARK    3  A    between atoms: C_6  and  N_7
REMARK    4  A    between atoms: C_8  and  C_10
REMARK    5  A    between atoms: C_10  and  C_11
REMARK    6  A    between atoms: C_11  and  N_12
REMARK    7  A    between atoms: N_15  and  C_16
REMARK                            x       y       z     vdW  Elec       q    Type
REMARK                         _______ _______ _______ _____ _____    ______ ____
ROOT
ATOM      1  C   UNL     1       7.367   7.622  17.531  0.00  0.00    +0.000 C 
ENDROOT
BRANCH   1   2
ATOM      2  N   UNL     1       7.463   6.214  17.085  0.00  0.00    +0.000 NA
ATOM      3  C   UNL     1       7.415   5.229  18.194  0.00  0.00    +0.000 C 
ATOM      4  C   UNL     1       6.066   5.108  18.929  0.00  0.00    +0.000 C 
ATOM      5  N   UNL     1       4.969   4.887  17.975  0.00  0.00    +0.000 N 
ATOM      6  C   UNL     1       4.951   5.780  16.795  0.00  0.00    +0.000 C 
ATOM      7  C   UNL     1       6.357   5.880  16.153  0.00  0.00    +0.000 C 
BRANCH   5   8
ATOM      8  C   UNL     1       3.735   4.445  18.460  0.00  0.00    +0.000 A 
ATOM      9  C   UNL     1       2.621   4.420  17.603  0.00  0.00    +0.000 A 
ATOM     10  C   UNL     1       1.372   3.957  18.024  0.00  0.00    +0.000 A 
ATOM     11  C   UNL     1       1.206   3.498  19.324  0.00  0.00    +0.000 A 
ATOM     12  C   UNL     1       2.297   3.492  20.186  0.00  0.00    +0.000 A 
ATOM     13 CL   UNL     1       2.103   2.910  21.796  0.00  0.00    +0.000 Cl
ATOM     14  C   UNL     1       3.547   3.952  19.759  0.00  0.00    +0.000 A 
ENDBRANCH   5   8
ENDBRANCH   1   2
BRANCH   1  15
ATOM     15  C   UNL     1       8.452   8.052  18.521  0.00  0.00    +0.000 C 
BRANCH  15  17
ATOM     16  N   UNL     1       9.421   9.922  19.750  0.00  0.00    +0.000 N 
ATOM     17  C   UNL     1       8.736   9.539  18.606  0.00  0.00    +0.000 C 
ATOM     18  O   UNL     1       8.312  10.291  17.740  0.00  0.00    +0.000 OA
ATOM     19  H   UNL     1       9.756   9.153  20.332  0.00  0.00    +0.000 HD
BRANCH  16  23
ATOM     20  C   UNL     1      10.681  13.828  20.665  0.00  0.00    +0.000 A 
ATOM     21  C   UNL     1       9.514  13.333  21.247  0.00  0.00    +0.000 A 
ATOM     22  C   UNL     1       9.091  12.026  20.991  0.00  0.00    +0.000 A 
ATOM     23  C   UNL     1       9.819  11.208  20.129  0.00  0.00    +0.000 A 
ATOM     24  C   UNL     1      11.007  11.697  19.573  0.00  0.00    +0.000 A 
ATOM     25  C   UNL     1      11.433  13.003  19.832  0.00  0.00    +0.000 A 
BRANCH  20  27
ATOM     26  C   UNL     1      10.212  16.100  20.231  0.00  0.00    +0.000 C 
ATOM     27  O   UNL     1      10.964  15.133  20.953  0.00  0.00    +0.000 OA
ENDBRANCH  20  27
ENDBRANCH  16  23
ENDBRANCH  15  17
ENDBRANCH   1  15
TORSDOF 6
ENDMDL
MODEL 2
REMARK VINA RESULT:      -7.6      1.101      1.277
REMARK  Name = 
REMARK  7 active torsions:
REMARK  status: ('A' for Active; 'I' for Inactive)
REMARK    1  A    between atoms: C_1  and  O_2
REMARK    2  A    between atoms: O_2  and  C_3
REMARK    3  A    between atoms: C_6  and  N_7
REMARK    4  A    between atoms: C_8  and  C_10
REMARK    5  A    between atoms: C_10  and  C_11
REMARK    6  A    between atoms: C_11  and  N_12
REMARK    7  A    between atoms: N_15  and  C_16
REMARK                            x       y       z     vdW  Elec       q    Type
REMARK                         _______ _______ _______ _____ _____    ______ ____
ROOT
ATOM      1  C   UNL     1       6.947   8.006  17.457  0.00  0.00    +0.000 C 
ENDROOT
BRANCH   1   2
ATOM      2  N   UNL     1       6.851   6.638  16.898  0.00  0.00    +0.000 NA
ATOM      3  C   UNL     1       6.967   5.565  17.916  0.00  0.00    +0.000 C 
ATOM      4  C   UNL     1       5.795   5.450  18.910  0.00  0.00    +0.000 C 
ATOM      5  N   UNL     1       4.511   5.370  18.197  0.00  0.00    +0.000 N 
ATOM      6  C   UNL     1       4.310   6.362  17.118  0.00  0.00    +0.000 C 
ATOM      7  C   UNL     1       5.556   6.444  16.200  0.00  0.00    +0.000 C 
BRANCH   5   8
ATOM      8  C   UNL     1       3.378   4.952  18.899  0.00  0.00    +0.000 A 
ATOM      9  C   UNL     1       2.878   5.744  19.948  0.00  0.00    +0.000 A 
ATOM     10  C   UNL     1       1.730   5.394  20.662  0.00  0.00    +0.000 A 
ATOM     11  C   UNL     1       1.042   4.231  20.337  0.00  0.00    +0.000 A 
ATOM     12  C   UNL     1       1.502   3.440  19.291  0.00  0.00    +0.000 A 
ATOM     13 CL   UNL     1       0.646   2.005  18.872  0.00  0.00    +0.000 Cl
ATOM     14  C   UNL     1       2.650   3.798  18.575  0.00  0.00    +0.000 A 
ENDBRANCH   5   8
ENDBRANCH   1   2
BRANCH   1  15
ATOM     15  C   UNL     1       8.272   8.317  18.157  0.00  0.00    +0.000 C 
BRANCH  15  17
ATOM     16  N   UNL     1       9.384  10.044  19.470  0.00  0.00    +0.000 N 
ATOM     17  C   UNL     1       8.603   9.783  18.353  0.00  0.00    +0.000 C 
ATOM     18  O   UNL     1       8.136  10.620  17.594  0.00  0.00    +0.000 OA
ATOM     19  H   UNL     1       9.741   9.218  19.952  0.00  0.00    +0.000 HD
BRANCH  16  23
ATOM     20  C   UNL     1      10.799  13.831  20.629  0.00  0.00    +0.000 A 
ATOM     21  C   UNL     1       9.742  13.252  21.331  0.00  0.00    +0.000 A 
ATOM     22  C   UNL     1       9.276  11.980  20.993  0.00  0.00    +0.000 A 
ATOM     23  C   UNL     1       9.847  11.282  19.930  0.00  0.00    +0.000 A 
ATOM     24  C   UNL     1      10.929  11.852  19.249  0.00  0.00    +0.000 A 
ATOM     25  C   UNL     1      11.398  13.123  19.589  0.00  0.00    +0.000 A 
BRANCH  20  27
ATOM     26  C   UNL     1      12.113  15.750  20.225  0.00  0.00    +0.000 C 
ATOM     27  O   UNL     1      11.133  15.096  21.021  0.00  0.00    +0.000 OA
ENDBRANCH  20  27
ENDBRANCH  16  23
ENDBRANCH  15  17
ENDBRANCH   1  15
TORSDOF 6
ENDMDL
MODEL 3
REMARK VINA RESULT:      -7.6      1.703      1.738
REMARK  Name = 
REMARK  7 active torsions:
REMARK  status: ('A' for Active; 'I' for Inactive)
REMARK    1  A    between atoms: C_1  and  O_2
REMARK    2  A    between atoms: O_2  and  C_3
REMARK    3  A    between atoms: C_6  and  N_7
REMARK    4  A    between atoms: C_8  and  C_10
REMARK    5  A    between atoms: C_10  and  C_11
REMARK    6  A    between atoms: C_11  and  N_12
REMARK    7  A    between atoms: N_15  and  C_16
REMARK                            x       y       z     vdW  Elec       q    Type
REMARK                         _______ _______ _______ _____ _____    ______ ____
ROOT
ATOM      1  C   UNL     1       7.478   8.057  17.654  0.00  0.00    +0.000 C 
ENDROOT
BRANCH   1   2
ATOM      2  N   UNL     1       7.491   6.729  17.000  0.00  0.00    +0.000 NA
ATOM      3  C   UNL     1       7.490   5.592  17.953  0.00  0.00    +0.000 C 
ATOM      4  C   UNL     1       6.195   5.395  18.766  0.00  0.00    +0.000 C 
ATOM      5  N   UNL     1       5.023   5.346  17.878  0.00  0.00    +0.000 N 
ATOM      6  C   UNL     1       4.950   6.405  16.847  0.00  0.00    +0.000 C 
ATOM      7  C   UNL     1       6.308   6.565  16.119  0.00  0.00    +0.000 C 
BRANCH   5   8
ATOM      8  C   UNL     1       3.814   4.867  18.388  0.00  0.00    +0.000 A 
ATOM      9  C   UNL     1       2.720   4.685  17.524  0.00  0.00    +0.000 A 
ATOM     10  C   UNL     1       1.497   4.178  17.972  0.00  0.00    +0.000 A 
ATOM     11  C   UNL     1       1.340   3.831  19.307  0.00  0.00    +0.000 A 
ATOM     12  C   UNL     1       2.412   3.981  20.179  0.00  0.00    +0.000 A 
ATOM     13 CL   UNL     1       2.229   3.539  21.834  0.00  0.00    +0.000 Cl
ATOM     14  C   UNL     1       3.636   4.484  19.725  0.00  0.00    +0.000 A 
ENDBRANCH   5   8
ENDBRANCH   1   2
BRANCH   1  15
ATOM     15  C   UNL     1       8.642   8.305  18.617  0.00  0.00    +0.000 C 
BRANCH  15  17
ATOM     16  N   UNL     1       9.244  10.541  17.853  0.00  0.00    +0.000 N 
ATOM     17  C   UNL     1       8.942   9.753  18.954  0.00  0.00    +0.000 C 
ATOM     18  O   UNL     1       8.964  10.114  20.122  0.00  0.00    +0.000 OA
ATOM     19  H   UNL     1       9.110  10.089  16.947  0.00  0.00    +0.000 HD
BRANCH  16  23
ATOM     20  C   UNL     1      10.351  14.588  17.573  0.00  0.00    +0.000 A 
ATOM     21  C   UNL     1       9.069  14.259  18.015  0.00  0.00    +0.000 A 
ATOM     22  C   UNL     1       8.686  12.923  18.154  0.00  0.00    +0.000 A 
ATOM     23  C   UNL     1       9.574  11.900  17.827  0.00  0.00    +0.000 A 
ATOM     24  C   UNL     1      10.870  12.233  17.416  0.00  0.00    +0.000 A 
ATOM     25  C   UNL     1      11.255  13.570  17.281  0.00  0.00    +0.000 A 
BRANCH  20  27
ATOM     26  C   UNL     1      10.274  16.730  18.561  0.00  0.00    +0.000 C 
ATOM     27  O   UNL     1      10.591  15.926  17.432  0.00  0.00    +0.000 OA
ENDBRANCH  20  27
ENDBRANCH  16  23
ENDBRANCH  15  17
ENDBRANCH   1  15
TORSDOF 6
ENDMDL
MODEL 4
REMARK VINA RESULT:      -7.5      1.843      2.084
REMARK  Name = 
REMARK  7 active torsions:
REMARK  status: ('A' for Active; 'I' for Inactive)
REMARK    1  A    between atoms: C_1  and  O_2
REMARK    2  A    between atoms: O_2  and  C_3
REMARK    3  A    between atoms: C_6  and  N_7
REMARK    4  A    between atoms: C_8  and  C_10
REMARK    5  A    between atoms: C_10  and  C_11
REMARK    6  A    between atoms: C_11  and  N_12
REMARK    7  A    between atoms: N_15  and  C_16
REMARK                            x       y       z     vdW  Elec       q    Type
REMARK                         _______ _______ _______ _____ _____    ______ ____
ROOT
ATOM      1  C   UNL     1       7.473   8.164  17.670  0.00  0.00    +0.000 C 
ENDROOT
BRANCH   1   2
ATOM      2  N   UNL     1       7.501   6.837  17.015  0.00  0.00    +0.000 NA
ATOM      3  C   UNL     1       7.530   5.699  17.967  0.00  0.00    +0.000 C 
ATOM      4  C   UNL     1       6.249   5.479  18.794  0.00  0.00    +0.000 C 
ATOM      5  N   UNL     1       5.068   5.410  17.920  0.00  0.00    +0.000 N 
ATOM      6  C   UNL     1       4.965   6.468  16.890  0.00  0.00    +0.000 C 
ATOM      7  C   UNL     1       6.311   6.652  16.147  0.00  0.00    +0.000 C 
BRANCH   5   8
ATOM      8  C   UNL     1       3.873   4.909  18.443  0.00  0.00    +0.000 A 
ATOM      9  C   UNL     1       2.714   4.906  17.648  0.00  0.00    +0.000 A 
ATOM     10  C   UNL     1       1.500   4.389  18.106  0.00  0.00    +0.000 A 
ATOM     11  C   UNL     1       1.417   3.850  19.384  0.00  0.00    +0.000 A 
ATOM     12  C   UNL     1       2.553   3.821  20.184  0.00  0.00    +0.000 A 
ATOM     13 CL   UNL     1       2.461   3.140  21.764  0.00  0.00    +0.000 Cl
ATOM     14  C   UNL     1       3.768   4.336  19.719  0.00  0.00    +0.000 A 
ENDBRANCH   5   8
ENDBRANCH   1   2
BRANCH   1  15
ATOM     15  C   UNL     1       8.621   8.417  18.649  0.00  0.00    +0.000 C 
BRANCH  15  17
ATOM     16  N   UNL     1       8.886  10.696  17.827  0.00  0.00    +0.000 N 
ATOM     17  C   UNL     1       8.955   9.867  18.936  0.00  0.00    +0.000 C 
ATOM     18  O   UNL     1       9.312  10.200  20.058  0.00  0.00    +0.000 OA
ATOM     19  H   UNL     1       8.504  10.263  16.984  0.00  0.00    +0.000 HD
BRANCH  16  23
ATOM     20  C   UNL     1       9.512  14.855  17.794  0.00  0.00    +0.000 A 
ATOM     21  C   UNL     1      10.598  13.999  17.613  0.00  0.00    +0.000 A 
ATOM     22  C   UNL     1      10.415  12.614  17.582  0.00  0.00    +0.000 A 
ATOM     23  C   UNL     1       9.144  12.070  17.756  0.00  0.00    +0.000 A 
ATOM     24  C   UNL     1       8.052  12.932  17.904  0.00  0.00    +0.000 A 
ATOM     25  C   UNL     1       8.234  14.318  17.932  0.00  0.00    +0.000 A 
BRANCH  20  27
ATOM     26  C   UNL     1      10.920  16.597  17.048  0.00  0.00    +0.000 C 
ATOM     27  O   UNL     1       9.824  16.184  17.854  0.00  0.00    +0.000 OA
ENDBRANCH  20  27
ENDBRANCH  16  23
ENDBRANCH  15  17
ENDBRANCH   1  15
TORSDOF 6
ENDMDL
MODEL 5
REMARK VINA RESULT:      -7.5      6.364      7.910
REMARK  Name = 
REMARK  7 active torsions:
REMARK  status: ('A' for Active; 'I' for Inactive)
REMARK    1  A    between atoms: C_1  and  O_2
REMARK    2  A    between atoms: O_2  and  C_3
REMARK    3  A    between atoms: C_6  and  N_7
REMARK    4  A    between atoms: C_8  and  C_10
REMARK    5  A    between atoms: C_10  and  C_11
REMARK    6  A    between atoms: C_11  and  N_12
REMARK    7  A    between atoms: N_15  and  C_16
REMARK                            x       y       z     vdW  Elec       q    Type
REMARK                         _______ _______ _______ _____ _____    ______ ____
ROOT
ATOM      1  C   UNL     1       4.429   4.134  19.014  0.00  0.00    +0.000 C 
ENDROOT
BRANCH   1   2
ATOM      2  N   UNL     1       5.338   5.276  18.769  0.00  0.00    +0.000 NA
ATOM      3  C   UNL     1       6.714   4.875  18.383  0.00  0.00    +0.000 C 
ATOM      4  C   UNL     1       6.860   4.211  17.001  0.00  0.00    +0.000 C 
ATOM      5  N   UNL     1       6.235   5.037  15.956  0.00  0.00    +0.000 N 
ATOM      6  C   UNL     1       4.876   5.541  16.259  0.00  0.00    +0.000 C 
ATOM      7  C   UNL     1       4.813   6.144  17.684  0.00  0.00    +0.000 C 
BRANCH   5   8
ATOM      8  C   UNL     1       6.531   4.765  14.618  0.00  0.00    +0.000 A 
ATOM      9  C   UNL     1       7.541   5.495  13.967  0.00  0.00    +0.000 A 
ATOM     10  C   UNL     1       7.902   5.245  12.642  0.00  0.00    +0.000 A 
ATOM     11  C   UNL     1       7.258   4.242  11.927  0.00  0.00    +0.000 A 
ATOM     12  C   UNL     1       6.270   3.491  12.552  0.00  0.00    +0.000 A 
ATOM     13 CL   UNL     1       5.478   2.236  11.678  0.00  0.00    +0.000 Cl
ATOM     14  C   UNL     1       5.915   3.742  13.882  0.00  0.00    +0.000 A 
ENDBRANCH   5   8
ENDBRANCH   1   2
BRANCH   1  15
ATOM     15  C   UNL     1       3.510   4.300  20.226  0.00  0.00    +0.000 C 
BRANCH  15  17
ATOM     16  N   UNL     1       2.822   6.628  19.992  0.00  0.00    +0.000 N 
ATOM     17  C   UNL     1       2.390   5.313  20.089  0.00  0.00    +0.000 C 
ATOM     18  O   UNL     1       1.225   4.943  20.134  0.00  0.00    +0.000 OA
ATOM     19  H   UNL     1       3.833   6.746  19.903  0.00  0.00    +0.000 HD
BRANCH  16  23
ATOM     20  C   UNL     1       0.403  10.020  19.422  0.00  0.00    +0.000 A 
ATOM     21  C   UNL     1       0.547   9.491  20.704  0.00  0.00    +0.000 A 
ATOM     22  C   UNL     1       1.373   8.388  20.930  0.00  0.00    +0.000 A 
ATOM     23  C   UNL     1       2.047   7.786  19.869  0.00  0.00    +0.000 A 
ATOM     24  C   UNL     1       1.927   8.339  18.589  0.00  0.00    +0.000 A 
ATOM     25  C   UNL     1       1.103   9.445  18.363  0.00  0.00    +0.000 A 
BRANCH  20  27
ATOM     26  C   UNL     1      -1.273  11.313  20.466  0.00  0.00    +0.000 C 
ATOM     27  O   UNL     1      -0.468  11.067  19.320  0.00  0.00    +0.000 OA
ENDBRANCH  20  27
ENDBRANCH  16  23
ENDBRANCH  15  17
ENDBRANCH   1  15
TORSDOF 6
ENDMDL
MODEL 6
REMARK VINA RESULT:      -7.3      6.583      8.100
REMARK  Name = 
REMARK  7 active torsions:
REMARK  status: ('A' for Active; 'I' for Inactive)
REMARK    1  A    between atoms: C_1  and  O_2
REMARK    2  A    between atoms: O_2  and  C_3
REMARK    3  A    between atoms: C_6  and  N_7
REMARK    4  A    between atoms: C_8  and  C_10
REMARK    5  A    between atoms: C_10  and  C_11
REMARK    6  A    between atoms: C_11  and  N_12
REMARK    7  A    between atoms: N_15  and  C_16
REMARK                            x       y       z     vdW  Elec       q    Type
REMARK                         _______ _______ _______ _____ _____    ______ ____
ROOT
ATOM      1  C   UNL     1       4.508   5.841  19.115  0.00  0.00    +0.000 C 
ENDROOT
BRANCH   1   2
ATOM      2  N   UNL     1       5.042   4.466  18.989  0.00  0.00    +0.000 NA
ATOM      3  C   UNL     1       4.296   3.619  18.026  0.00  0.00    +0.000 C 
ATOM      4  C   UNL     1       4.425   4.013  16.542  0.00  0.00    +0.000 C 
ATOM      5  N   UNL     1       5.839   4.138  16.156  0.00  0.00    +0.000 N 
ATOM      6  C   UNL     1       6.693   4.919  17.078  0.00  0.00    +0.000 C 
ATOM      7  C   UNL     1       6.459   4.489  18.548  0.00  0.00    +0.000 C 
BRANCH   5   8
ATOM      8  C   UNL     1       6.164   4.179  14.797  0.00  0.00    +0.000 A 
ATOM      9  C   UNL     1       7.286   4.910  14.373  0.00  0.00    +0.000 A 
ATOM     10  C   UNL     1       7.678   4.959  13.033  0.00  0.00    +0.000 A 
ATOM     11  C   UNL     1       6.950   4.265  12.074  0.00  0.00    +0.000 A 
ATOM     12  C   UNL     1       5.847   3.517  12.469  0.00  0.00    +0.000 A 
ATOM     13 CL   UNL     1       4.949   2.641  11.289  0.00  0.00    +0.000 Cl
ATOM     14  C   UNL     1       5.462   3.466  13.814  0.00  0.00    +0.000 A 
ENDBRANCH   5   8
ENDBRANCH   1   2
BRANCH   1  15
ATOM     15  C   UNL     1       3.021   5.980  18.786  0.00  0.00    +0.000 C 
BRANCH  15  17
ATOM     16  N   UNL     1       1.938   7.919  19.793  0.00  0.00    +0.000 N 
ATOM     17  C   UNL     1       2.138   6.549  19.880  0.00  0.00    +0.000 C 
ATOM     18  O   UNL     1       1.723   5.819  20.769  0.00  0.00    +0.000 OA
ATOM     19  H   UNL     1       2.303   8.357  18.946  0.00  0.00    +0.000 HD
BRANCH  16  23
ATOM     20  C   UNL     1      -0.488  10.356  22.214  0.00  0.00    +0.000 A 
ATOM     21  C   UNL     1       0.390   9.454  22.815  0.00  0.00    +0.000 A 
ATOM     22  C   UNL     1       1.235   8.658  22.038  0.00  0.00    +0.000 A 
ATOM     23  C   UNL     1       1.193   8.739  20.647  0.00  0.00    +0.000 A 
ATOM     24  C   UNL     1       0.334   9.668  20.048  0.00  0.00    +0.000 A 
ATOM     25  C   UNL     1      -0.509  10.467  20.826  0.00  0.00    +0.000 A 
BRANCH  20  27
ATOM     26  C   UNL     1      -1.277  12.457  22.944  0.00  0.00    +0.000 C 
ATOM     27  O   UNL     1      -1.296  11.041  23.076  0.00  0.00    +0.000 OA
ENDBRANCH  20  27
ENDBRANCH  16  23
ENDBRANCH  15  17
ENDBRANCH   1  15
TORSDOF 6
ENDMDL
MODEL 7
REMARK VINA RESULT:      -7.3      1.836      1.975
REMARK  Name = 
REMARK  7 active torsions:
REMARK  status: ('A' for Active; 'I' for Inactive)
REMARK    1  A    between atoms: C_1  and  O_2
REMARK    2  A    between atoms: O_2  and  C_3
REMARK    3  A    between atoms: C_6  and  N_7
REMARK    4  A    between atoms: C_8  and  C_10
REMARK    5  A    between atoms: C_10  and  C_11
REMARK    6  A    between atoms: C_11  and  N_12
REMARK    7  A    between atoms: N_15  and  C_16
REMARK                            x       y       z     vdW  Elec       q    Type
REMARK                         _______ _______ _______ _____ _____    ______ ____
ROOT
ATOM      1  C   UNL     1       8.040   7.312  18.289  0.00  0.00    +0.000 C 
ENDROOT
BRANCH   1   2
ATOM      2  N   UNL     1       7.529   6.243  17.401  0.00  0.00    +0.000 NA
ATOM      3  C   UNL     1       7.309   4.946  18.088  0.00  0.00    +0.000 C 
ATOM      4  C   UNL     1       6.159   4.913  19.112  0.00  0.00    +0.000 C 
ATOM      5  N   UNL     1       4.912   5.415  18.513  0.00  0.00    +0.000 N 
ATOM      6  C   UNL     1       5.025   6.679  17.752  0.00  0.00    +0.000 C 
ATOM      7  C   UNL     1       6.237   6.639  16.788  0.00  0.00    +0.000 C 
BRANCH   5   8
ATOM      8  C   UNL     1       3.705   5.173  19.174  0.00  0.00    +0.000 A 
ATOM      9  C   UNL     1       3.248   3.853  19.327  0.00  0.00    +0.000 A 
ATOM     10  C   UNL     1       2.066   3.550  20.007  0.00  0.00    +0.000 A 
ATOM     11  C   UNL     1       1.306   4.572  20.561  0.00  0.00    +0.000 A 
ATOM     12  C   UNL     1       1.745   5.885  20.443  0.00  0.00    +0.000 A 
ATOM     13 CL   UNL     1       0.815   7.157  21.141  0.00  0.00    +0.000 Cl
ATOM     14  C   UNL     1       2.932   6.184  19.765  0.00  0.00    +0.000 A 
ENDBRANCH   5   8
ENDBRANCH   1   2
BRANCH   1  15
ATOM     15  C   UNL     1       7.959   8.722  17.700  0.00  0.00    +0.000 C 
BRANCH  15  17
ATOM     16  N   UNL     1       8.985  10.933  17.644  0.00  0.00    +0.000 N 
ATOM     17  C   UNL     1       8.766   9.794  18.406  0.00  0.00    +0.000 C 
ATOM     18  O   UNL     1       9.210   9.584  19.525  0.00  0.00    +0.000 OA
ATOM     19  H   UNL     1       8.481  10.964  16.756  0.00  0.00    +0.000 HD
BRANCH  16  23
ATOM     20  C   UNL     1      11.247  14.371  18.511  0.00  0.00    +0.000 A 
ATOM     21  C   UNL     1       9.872  14.381  18.744  0.00  0.00    +0.000 A 
ATOM     22  C   UNL     1       9.101  13.242  18.501  0.00  0.00    +0.000 A 
ATOM     23  C   UNL     1       9.695  12.086  17.998  0.00  0.00    +0.000 A 
ATOM     24  C   UNL     1      11.080  12.068  17.796  0.00  0.00    +0.000 A 
ATOM     25  C   UNL     1      11.852  13.206  18.043  0.00  0.00    +0.000 A 
BRANCH  20  27
ATOM     26  C   UNL     1      11.046  16.704  18.803  0.00  0.00    +0.000 C 
ATOM     27  O   UNL     1      11.884  15.557  18.740  0.00  0.00    +0.000 OA
ENDBRANCH  20  27
ENDBRANCH  16  23
ENDBRANCH  15  17
ENDBRANCH   1  15
TORSDOF 6
ENDMDL
MODEL 8
REMARK VINA RESULT:      -7.3      1.257      1.449
REMARK  Name = 
REMARK  7 active torsions:
REMARK  status: ('A' for Active; 'I' for Inactive)
REMARK    1  A    between atoms: C_1  and  O_2
REMARK    2  A    between atoms: O_2  and  C_3
REMARK    3  A    between atoms: C_6  and  N_7
REMARK    4  A    between atoms: C_8  and  C_10
REMARK    5  A    between atoms: C_10  and  C_11
REMARK    6  A    between atoms: C_11  and  N_12
REMARK    7  A    between atoms: N_15  and  C_16
REMARK                            x       y       z     vdW  Elec       q    Type
REMARK                         _______ _______ _______ _____ _____    ______ ____
ROOT
ATOM      1  C   UNL     1       7.579   7.012  17.104  0.00  0.00    +0.000 C 
ENDROOT
BRANCH   1   2
ATOM      2  N   UNL     1       7.598   5.534  17.171  0.00  0.00    +0.000 NA
ATOM      3  C   UNL     1       7.479   4.994  18.548  0.00  0.00    +0.000 C 
ATOM      4  C   UNL     1       6.118   5.202  19.238  0.00  0.00    +0.000 C 
ATOM      5  N   UNL     1       5.020   4.722  18.384  0.00  0.00    +0.000 N 
ATOM      6  C   UNL     1       5.068   5.155  16.969  0.00  0.00    +0.000 C 
ATOM      7  C   UNL     1       6.485   4.956  16.376  0.00  0.00    +0.000 C 
BRANCH   5   8
ATOM      8  C   UNL     1       3.758   4.537  18.952  0.00  0.00    +0.000 A 
ATOM      9  C   UNL     1       3.294   5.440  19.925  0.00  0.00    +0.000 A 
ATOM     10  C   UNL     1       2.028   5.324  20.503  0.00  0.00    +0.000 A 
ATOM     11  C   UNL     1       1.182   4.293  20.113  0.00  0.00    +0.000 A 
ATOM     12  C   UNL     1       1.607   3.398  19.138  0.00  0.00    +0.000 A 
ATOM     13 CL   UNL     1       0.557   2.126  18.639  0.00  0.00    +0.000 Cl
ATOM     14  C   UNL     1       2.874   3.521  18.558  0.00  0.00    +0.000 A 
ENDBRANCH   5   8
ENDBRANCH   1   2
BRANCH   1  15
ATOM     15  C   UNL     1       8.215   7.713  18.306  0.00  0.00    +0.000 C 
BRANCH  15  17
ATOM     16  N   UNL     1       9.251   9.750  19.156  0.00  0.00    +0.000 N 
ATOM     17  C   UNL     1       8.425   9.209  18.181  0.00  0.00    +0.000 C 
ATOM     18  O   UNL     1       7.836   9.837  17.312  0.00  0.00    +0.000 OA
ATOM     19  H   UNL     1       9.711   9.068  19.761  0.00  0.00    +0.000 HD
BRANCH  16  23
ATOM     20  C   UNL     1      10.614  13.700  19.626  0.00  0.00    +0.000 A 
ATOM     21  C   UNL     1       9.440  13.463  18.912  0.00  0.00    +0.000 A 
ATOM     22  C   UNL     1       8.943  12.165  18.771  0.00  0.00    +0.000 A 
ATOM     23  C   UNL     1       9.630  11.086  19.324  0.00  0.00    +0.000 A 
ATOM     24  C   UNL     1      10.790  11.331  20.068  0.00  0.00    +0.000 A 
ATOM     25  C   UNL     1      11.286  12.630  20.212  0.00  0.00    +0.000 A 
BRANCH  20  27
ATOM     26  C   UNL     1      10.256  15.907  18.870  0.00  0.00    +0.000 C 
ATOM     27  O   UNL     1      11.025  15.003  19.653  0.00  0.00    +0.000 OA
ENDBRANCH  20  27
ENDBRANCH  16  23
ENDBRANCH  15  17
ENDBRANCH   1  15
TORSDOF 6
ENDMDL
MODEL 9
REMARK VINA RESULT:      -7.3      1.148      1.626
REMARK  Name = 
REMARK  7 active torsions:
REMARK  status: ('A' for Active; 'I' for Inactive)
REMARK    1  A    between atoms: C_1  and  O_2
REMARK    2  A    between atoms: O_2  and  C_3
REMARK    3  A    between atoms: C_6  and  N_7
REMARK    4  A    between atoms: C_8  and  C_10
REMARK    5  A    between atoms: C_10  and  C_11
REMARK    6  A    between atoms: C_11  and  N_12
REMARK    7  A    between atoms: N_15  and  C_16
REMARK                            x       y       z     vdW  Elec       q    Type
REMARK                         _______ _______ _______ _____ _____    ______ ____
ROOT
ATOM      1  C   UNL     1       7.009   8.010  17.712  0.00  0.00    +0.000 C 
ENDROOT
BRANCH   1   2
ATOM      2  N   UNL     1       6.909   6.680  17.071  0.00  0.00    +0.000 NA
ATOM      3  C   UNL     1       6.999   5.546  18.024  0.00  0.00    +0.000 C 
ATOM      4  C   UNL     1       5.810   5.384  18.991  0.00  0.00    +0.000 C 
ATOM      5  N   UNL     1       4.537   5.359  18.254  0.00  0.00    +0.000 N 
ATOM      6  C   UNL     1       4.362   6.417  17.233  0.00  0.00    +0.000 C 
ATOM      7  C   UNL     1       5.623   6.541  16.342  0.00  0.00    +0.000 C 
BRANCH   5   8
ATOM      8  C   UNL     1       3.388   4.912  18.912  0.00  0.00    +0.000 A 
ATOM      9  C   UNL     1       2.887   5.637  20.006  0.00  0.00    +0.000 A 
ATOM     10  C   UNL     1       1.724   5.256  20.680  0.00  0.00    +0.000 A 
ATOM     11  C   UNL     1       1.024   4.129  20.268  0.00  0.00    +0.000 A 
ATOM     12  C   UNL     1       1.486   3.405  19.176  0.00  0.00    +0.000 A 
ATOM     13 CL   UNL     1       0.615   2.015  18.649  0.00  0.00    +0.000 Cl
ATOM     14  C   UNL     1       2.648   3.794  18.500  0.00  0.00    +0.000 A 
ENDBRANCH   5   8
ENDBRANCH   1   2
BRANCH   1  15
ATOM     15  C   UNL     1       8.430   8.429  18.094  0.00  0.00    +0.000 C 
BRANCH  15  17
ATOM     16  N   UNL     1       9.282  10.190  19.550  0.00  0.00    +0.000 N 
ATOM     17  C   UNL     1       8.652   9.908  18.347  0.00  0.00    +0.000 C 
ATOM     18  O   UNL     1       8.229  10.733  17.549  0.00  0.00    +0.000 OA
ATOM     19  H   UNL     1       9.627   9.375  20.060  0.00  0.00    +0.000 HD
BRANCH  16  23
ATOM     20  C   UNL     1      10.250  13.864  21.353  0.00  0.00    +0.000 A 
ATOM     21  C   UNL     1      11.005  13.414  20.269  0.00  0.00    +0.000 A 
ATOM     22  C   UNL     1      10.684  12.216  19.627  0.00  0.00    +0.000 A 
ATOM     23  C   UNL     1       9.617  11.441  20.078  0.00  0.00    +0.000 A 
ATOM     24  C   UNL     1       8.841  11.911  21.145  0.00  0.00    +0.000 A 
ATOM     25  C   UNL     1       9.160  13.111  21.785  0.00  0.00    +0.000 A 
BRANCH  20  27
ATOM     26  C   UNL     1       9.736  16.072  22.008  0.00  0.00    +0.000 C 
ATOM     27  O   UNL     1      10.691  15.022  21.927  0.00  0.00    +0.000 OA
ENDBRANCH  20  27
ENDBRANCH  16  23
ENDBRANCH  15  17
ENDBRANCH   1  15
TORSDOF 6
ENDMDL
