MODEL 1
REMARK VINA RESULT:      -8.4      0.000      0.000
REMARK  Name = 
REMARK  5 active torsions:
REMARK  status: ('A' for Active; 'I' for Inactive)
REMARK    1  A    between atoms: C_6  and  O_7
REMARK    2  A    between atoms: O_7  and  C_8
REMARK    3  A    between atoms: C_11  and  C_12
REMARK    4  A    between atoms: C_12  and  C_13
REMARK    5  A    between atoms: C_13  and  N_14
REMARK                            x       y       z     vdW  Elec       q    Type
REMARK                         _______ _______ _______ _____ _____    ______ ____
ROOT
ATOM      1  C   UNL     1       7.058   5.329  18.030  0.00  0.00    +0.000 A 
ATOM      2  C   UNL     1       6.628   6.170  17.006  0.00  0.00    +0.000 A 
ATOM      3  C   UNL     1       7.060   7.499  16.964  0.00  0.00    +0.000 A 
ATOM      4  C   UNL     1       7.897   8.010  17.962  0.00  0.00    +0.000 A 
ATOM      5  C   UNL     1       8.359   7.151  18.967  0.00  0.00    +0.000 A 
ATOM      6  C   UNL     1       7.939   5.821  18.998  0.00  0.00    +0.000 A 
ENDROOT
BRANCH   1   7
ATOM      7  O   UNL     1       6.533   4.054  18.088  0.00  0.00    +0.000 OA
BRANCH   7  13
ATOM      8  C   UNL     1       0.795   3.317  19.699  0.00  0.00    +0.000 A 
ATOM      9  C   UNL     1       1.547   3.237  20.861  0.00  0.00    +0.000 A 
ATOM     10  N   UNL     1       2.894   3.372  20.922  0.00  0.00    +0.000 NA
ATOM     11  C   UNL     1       3.506   3.567  19.734  0.00  0.00    +0.000 A 
ATOM     12  N   UNL     1       4.868   3.698  19.669  0.00  0.00    +0.000 NA
ATOM     13  C   UNL     1       5.246   3.878  18.425  0.00  0.00    +0.000 A 
ATOM     14  S   UNL     1       3.988   3.867  17.258  0.00  0.00    +0.000 S 
ATOM     15  C   UNL     1       2.832   3.647  18.515  0.00  0.00    +0.000 A 
ATOM     16  C   UNL     1       1.443   3.537  18.485  0.00  0.00    +0.000 A 
ENDBRANCH   7  13
ENDBRANCH   1   7
BRANCH   4  17
ATOM     17  C   UNL     1       8.296   9.465  17.934  0.00  0.00    +0.000 C 
BRANCH  17  18
ATOM     18  C   UNL     1       8.999   9.931  19.229  0.00  0.00    +0.000 C 
BRANCH  18  19
ATOM     19  N   UNL     1      10.228  10.709  18.967  0.00  0.00    +0.000 NA
ATOM     20  C   UNL     1       9.985  11.683  17.888  0.00  0.00    +0.000 C 
ATOM     21  C   UNL     1      11.255  12.470  17.563  0.00  0.00    +0.000 C 
ATOM     22  C   UNL     1      11.808  13.167  18.801  0.00  0.00    +0.000 C 
ATOM     23  C   UNL     1      11.971  12.176  19.943  0.00  0.00    +0.000 C 
ATOM     24  C   UNL     1      10.683  11.400  20.183  0.00  0.00    +0.000 C 
ENDBRANCH  18  19
ENDBRANCH  17  18
ENDBRANCH   4  17
TORSDOF 5
ENDMDL
MODEL 2
REMARK VINA RESULT:      -8.3      0.738      1.186
REMARK  Name = 
REMARK  5 active torsions:
REMARK  status: ('A' for Active; 'I' for Inactive)
REMARK    1  A    between atoms: C_6  and  O_7
REMARK    2  A    between atoms: O_7  and  C_8
REMARK    3  A    between atoms: C_11  and  C_12
REMARK    4  A    between atoms: C_12  and  C_13
REMARK    5  A    between atoms: C_13  and  N_14
REMARK                            x       y       z     vdW  Elec       q    Type
REMARK                         _______ _______ _______ _____ _____    ______ ____
ROOT
ATOM      1  C   UNL     1       6.897   5.340  17.874  0.00  0.00    +0.000 A 
ATOM      2  C   UNL     1       6.560   6.218  16.846  0.00  0.00    +0.000 A 
ATOM      3  C   UNL     1       7.060   7.523  16.847  0.00  0.00    +0.000 A 
ATOM      4  C   UNL     1       7.876   7.974  17.891  0.00  0.00    +0.000 A 
ATOM      5  C   UNL     1       8.245   7.077  18.902  0.00  0.00    +0.000 A 
ATOM      6  C   UNL     1       7.756   5.771  18.890  0.00  0.00    +0.000 A 
ENDROOT
BRANCH   1   7
ATOM      7  O   UNL     1       6.305   4.094  17.885  0.00  0.00    +0.000 OA
BRANCH   7  13
ATOM      8  C   UNL     1       0.955   3.378  20.518  0.00  0.00    +0.000 A 
ATOM      9  C   UNL     1       1.879   2.708  21.306  0.00  0.00    +0.000 A 
ATOM     10  N   UNL     1       3.209   2.647  21.058  0.00  0.00    +0.000 NA
ATOM     11  C   UNL     1       3.612   3.276  19.933  0.00  0.00    +0.000 A 
ATOM     12  N   UNL     1       4.932   3.267  19.568  0.00  0.00    +0.000 NA
ATOM     13  C   UNL     1       5.098   3.934  18.450  0.00  0.00    +0.000 A 
ATOM     14  S   UNL     1       3.669   4.583  17.755  0.00  0.00    +0.000 S 
ATOM     15  C   UNL     1       2.753   3.963  19.075  0.00  0.00    +0.000 A 
ATOM     16  C   UNL     1       1.393   4.036  19.371  0.00  0.00    +0.000 A 
ENDBRANCH   7  13
ENDBRANCH   1   7
BRANCH   4  17
ATOM     17  C   UNL     1       8.350   9.407  17.908  0.00  0.00    +0.000 C 
BRANCH  17  18
ATOM     18  C   UNL     1       9.106   9.786  19.201  0.00  0.00    +0.000 C 
BRANCH  18  19
ATOM     19  N   UNL     1       9.475  11.216  19.252  0.00  0.00    +0.000 NA
ATOM     20  C   UNL     1      10.937  11.353  19.371  0.00  0.00    +0.000 C 
ATOM     21  C   UNL     1      11.345  12.824  19.474  0.00  0.00    +0.000 C 
ATOM     22  C   UNL     1      10.824  13.628  18.289  0.00  0.00    +0.000 C 
ATOM     23  C   UNL     1       9.328  13.413  18.112  0.00  0.00    +0.000 C 
ATOM     24  C   UNL     1       8.991  11.929  18.060  0.00  0.00    +0.000 C 
ENDBRANCH  18  19
ENDBRANCH  17  18
ENDBRANCH   4  17
TORSDOF 5
ENDMDL
MODEL 3
REMARK VINA RESULT:      -8.3      0.524      1.107
REMARK  Name = 
REMARK  5 active torsions:
REMARK  status: ('A' for Active; 'I' for Inactive)
REMARK    1  A    between atoms: C_6  and  O_7
REMARK    2  A    between atoms: O_7  and  C_8
REMARK    3  A    between atoms: C_11  and  C_12
REMARK    4  A    between atoms: C_12  and  C_13
REMARK    5  A    between atoms: C_13  and  N_14
REMARK                            x       y       z     vdW  Elec       q    Type
REMARK                         _______ _______ _______ _____ _____    ______ ____
ROOT
ATOM      1  C   UNL     1       6.712   5.512  18.147  0.00  0.00    +0.000 A 
ATOM      2  C   UNL     1       7.781   5.884  18.960  0.00  0.00    +0.000 A 
ATOM      3  C   UNL     1       8.315   7.172  18.869  0.00  0.00    +0.000 A 
ATOM      4  C   UNL     1       7.810   8.091  17.941  0.00  0.00    +0.000 A 
ATOM      5  C   UNL     1       6.710   7.726  17.153  0.00  0.00    +0.000 A 
ATOM      6  C   UNL     1       6.170   6.444  17.258  0.00  0.00    +0.000 A 
ENDROOT
BRANCH   1   7
ATOM      7  O   UNL     1       6.279   4.203  18.201  0.00  0.00    +0.000 OA
BRANCH   7  13
ATOM      8  C   UNL     1       0.574   3.110  19.725  0.00  0.00    +0.000 A 
ATOM      9  C   UNL     1       1.091   3.952  20.698  0.00  0.00    +0.000 A 
ATOM     10  N   UNL     1       2.352   4.445  20.704  0.00  0.00    +0.000 NA
ATOM     11  C   UNL     1       3.135   4.035  19.683  0.00  0.00    +0.000 A 
ATOM     12  N   UNL     1       4.436   4.453  19.594  0.00  0.00    +0.000 NA
ATOM     13  C   UNL     1       5.006   3.935  18.531  0.00  0.00    +0.000 A 
ATOM     14  S   UNL     1       4.019   2.889  17.596  0.00  0.00    +0.000 S 
ATOM     15  C   UNL     1       2.704   3.179  18.668  0.00  0.00    +0.000 A 
ATOM     16  C   UNL     1       1.391   2.712  18.669  0.00  0.00    +0.000 A 
ENDBRANCH   7  13
ENDBRANCH   1   7
BRANCH   4  17
ATOM     17  C   UNL     1       8.445   9.453  17.812  0.00  0.00    +0.000 C 
BRANCH  17  18
ATOM     18  C   UNL     1       9.035   9.982  19.138  0.00  0.00    +0.000 C 
BRANCH  18  19
ATOM     19  N   UNL     1      10.272  10.766  18.944  0.00  0.00    +0.000 NA
ATOM     20  C   UNL     1      10.108  11.688  17.806  0.00  0.00    +0.000 C 
ATOM     21  C   UNL     1      11.392  12.480  17.552  0.00  0.00    +0.000 C 
ATOM     22  C   UNL     1      11.832  13.239  18.799  0.00  0.00    +0.000 C 
ATOM     23  C   UNL     1      11.911  12.302  19.994  0.00  0.00    +0.000 C 
ATOM     24  C   UNL     1      10.617  11.517  20.161  0.00  0.00    +0.000 C 
ENDBRANCH  18  19
ENDBRANCH  17  18
ENDBRANCH   4  17
TORSDOF 5
ENDMDL
MODEL 4
REMARK VINA RESULT:      -8.1      0.695      1.207
REMARK  Name = 
REMARK  5 active torsions:
REMARK  status: ('A' for Active; 'I' for Inactive)
REMARK    1  A    between atoms: C_6  and  O_7
REMARK    2  A    between atoms: O_7  and  C_8
REMARK    3  A    between atoms: C_11  and  C_12
REMARK    4  A    between atoms: C_12  and  C_13
REMARK    5  A    between atoms: C_13  and  N_14
REMARK                            x       y       z     vdW  Elec       q    Type
REMARK                         _______ _______ _______ _____ _____    ______ ____
ROOT
ATOM      1  C   UNL     1       7.064   5.485  18.098  0.00  0.00    +0.000 A 
ATOM      2  C   UNL     1       6.668   6.322  17.056  0.00  0.00    +0.000 A 
ATOM      3  C   UNL     1       7.136   7.637  16.996  0.00  0.00    +0.000 A 
ATOM      4  C   UNL     1       7.978   8.141  17.995  0.00  0.00    +0.000 A 
ATOM      5  C   UNL     1       8.405   7.286  19.019  0.00  0.00    +0.000 A 
ATOM      6  C   UNL     1       7.948   5.969  19.067  0.00  0.00    +0.000 A 
ENDROOT
BRANCH   1   7
ATOM      7  O   UNL     1       6.503   4.227  18.170  0.00  0.00    +0.000 OA
BRANCH   7  13
ATOM      8  C   UNL     1       0.756   3.722  19.837  0.00  0.00    +0.000 A 
ATOM      9  C   UNL     1       1.327   4.680  20.662  0.00  0.00    +0.000 A 
ATOM     10  N   UNL     1       2.614   5.095  20.592  0.00  0.00    +0.000 NA
ATOM     11  C   UNL     1       3.365   4.480  19.652  0.00  0.00    +0.000 A 
ATOM     12  N   UNL     1       4.687   4.804  19.500  0.00  0.00    +0.000 NA
ATOM     13  C   UNL     1       5.219   4.089  18.536  0.00  0.00    +0.000 A 
ATOM     14  S   UNL     1       4.168   2.963  17.780  0.00  0.00    +0.000 S 
ATOM     15  C   UNL     1       2.879   3.498  18.788  0.00  0.00    +0.000 A 
ATOM     16  C   UNL     1       1.542   3.113  18.862  0.00  0.00    +0.000 A 
ENDBRANCH   7  13
ENDBRANCH   1   7
BRANCH   4  17
ATOM     17  C   UNL     1       8.417   9.584  17.948  0.00  0.00    +0.000 C 
BRANCH  17  18
ATOM     18  C   UNL     1       9.227  10.017  19.191  0.00  0.00    +0.000 C 
BRANCH  18  19
ATOM     19  N   UNL     1       9.940  11.297  18.994  0.00  0.00    +0.000 NA
ATOM     20  C   UNL     1      10.905  11.507  20.089  0.00  0.00    +0.000 C 
ATOM     21  C   UNL     1      11.624  12.848  19.937  0.00  0.00    +0.000 C 
ATOM     22  C   UNL     1      12.315  12.957  18.582  0.00  0.00    +0.000 C 
ATOM     23  C   UNL     1      11.338  12.649  17.458  0.00  0.00    +0.000 C 
ATOM     24  C   UNL     1      10.629  11.322  17.695  0.00  0.00    +0.000 C 
ENDBRANCH  18  19
ENDBRANCH  17  18
ENDBRANCH   4  17
TORSDOF 5
ENDMDL
MODEL 5
REMARK VINA RESULT:      -8.1      0.589      1.509
REMARK  Name = 
REMARK  5 active torsions:
REMARK  status: ('A' for Active; 'I' for Inactive)
REMARK    1  A    between atoms: C_6  and  O_7
REMARK    2  A    between atoms: O_7  and  C_8
REMARK    3  A    between atoms: C_11  and  C_12
REMARK    4  A    between atoms: C_12  and  C_13
REMARK    5  A    between atoms: C_13  and  N_14
REMARK                            x       y       z     vdW  Elec       q    Type
REMARK                         _______ _______ _______ _____ _____    ______ ____
ROOT
ATOM      1  C   UNL     1       6.812   5.520  18.139  0.00  0.00    +0.000 A 
ATOM      2  C   UNL     1       7.836   5.897  19.006  0.00  0.00    +0.000 A 
ATOM      3  C   UNL     1       8.357   7.192  18.954  0.00  0.00    +0.000 A 
ATOM      4  C   UNL     1       7.885   8.115  18.014  0.00  0.00    +0.000 A 
ATOM      5  C   UNL     1       6.829   7.745  17.170  0.00  0.00    +0.000 A 
ATOM      6  C   UNL     1       6.301   6.456  17.235  0.00  0.00    +0.000 A 
ENDROOT
BRANCH   1   7
ATOM      7  O   UNL     1       6.394   4.205  18.158  0.00  0.00    +0.000 OA
BRANCH   7  13
ATOM      8  C   UNL     1       0.695   2.974  19.598  0.00  0.00    +0.000 A 
ATOM      9  C   UNL     1       1.388   3.102  20.793  0.00  0.00    +0.000 A 
ATOM     10  N   UNL     1       2.706   3.397  20.895  0.00  0.00    +0.000 NA
ATOM     11  C   UNL     1       3.356   3.540  19.720  0.00  0.00    +0.000 A 
ATOM     12  N   UNL     1       4.696   3.821  19.698  0.00  0.00    +0.000 NA
ATOM     13  C   UNL     1       5.118   3.916  18.459  0.00  0.00    +0.000 A 
ATOM     14  S   UNL     1       3.933   3.640  17.248  0.00  0.00    +0.000 S 
ATOM     15  C   UNL     1       2.743   3.417  18.473  0.00  0.00    +0.000 A 
ATOM     16  C   UNL     1       1.378   3.144  18.397  0.00  0.00    +0.000 A 
ENDBRANCH   7  13
ENDBRANCH   1   7
BRANCH   4  17
ATOM     17  C   UNL     1       8.508   9.486  17.929  0.00  0.00    +0.000 C 
BRANCH  17  18
ATOM     18  C   UNL     1       9.146   9.951  19.258  0.00  0.00    +0.000 C 
BRANCH  18  19
ATOM     19  N   UNL     1       9.476  11.392  19.263  0.00  0.00    +0.000 NA
ATOM     20  C   UNL     1      10.789  11.603  19.900  0.00  0.00    +0.000 C 
ATOM     21  C   UNL     1      11.135  13.091  19.962  0.00  0.00    +0.000 C 
ATOM     22  C   UNL     1      11.101  13.728  18.577  0.00  0.00    +0.000 C 
ATOM     23  C   UNL     1       9.779  13.430  17.885  0.00  0.00    +0.000 C 
ATOM     24  C   UNL     1       9.479  11.937  17.897  0.00  0.00    +0.000 C 
ENDBRANCH  18  19
ENDBRANCH  17  18
ENDBRANCH   4  17
TORSDOF 5
ENDMDL
MODEL 6
REMARK VINA RESULT:      -8.1      1.184      1.508
REMARK  Name = 
REMARK  5 active torsions:
REMARK  status: ('A' for Active; 'I' for Inactive)
REMARK    1  A    between atoms: C_6  and  O_7
REMARK    2  A    between atoms: O_7  and  C_8
REMARK    3  A    between atoms: C_11  and  C_12
REMARK    4  A    between atoms: C_12  and  C_13
REMARK    5  A    between atoms: C_13  and  N_14
REMARK                            x       y       z     vdW  Elec       q    Type
REMARK                         _______ _______ _______ _____ _____    ______ ____
ROOT
ATOM      1  C   UNL     1       6.950   5.428  18.108  0.00  0.00    +0.000 A 
ATOM      2  C   UNL     1       6.526   6.233  17.053  0.00  0.00    +0.000 A 
ATOM      3  C   UNL     1       7.005   7.540  16.933  0.00  0.00    +0.000 A 
ATOM      4  C   UNL     1       7.886   8.069  17.884  0.00  0.00    +0.000 A 
ATOM      5  C   UNL     1       8.340   7.243  18.922  0.00  0.00    +0.000 A 
ATOM      6  C   UNL     1       7.872   5.934  19.030  0.00  0.00    +0.000 A 
ENDROOT
BRANCH   1   7
ATOM      7  O   UNL     1       6.379   4.179  18.243  0.00  0.00    +0.000 OA
BRANCH   7  13
ATOM      8  C   UNL     1       0.663   3.575  19.983  0.00  0.00    +0.000 A 
ATOM      9  C   UNL     1       0.988   2.425  19.278  0.00  0.00    +0.000 A 
ATOM     10  N   UNL     1       2.201   2.168  18.733  0.00  0.00    +0.000 NA
ATOM     11  C   UNL     1       3.119   3.146  18.888  0.00  0.00    +0.000 A 
ATOM     12  N   UNL     1       4.376   3.007  18.362  0.00  0.00    +0.000 NA
ATOM     13  C   UNL     1       5.099   4.069  18.630  0.00  0.00    +0.000 A 
ATOM     14  S   UNL     1       4.297   5.312  19.501  0.00  0.00    +0.000 S 
ATOM     15  C   UNL     1       2.877   4.339  19.569  0.00  0.00    +0.000 A 
ATOM     16  C   UNL     1       1.629   4.564  20.148  0.00  0.00    +0.000 A 
ENDBRANCH   7  13
ENDBRANCH   1   7
BRANCH   4  17
ATOM     17  C   UNL     1       8.338   9.504  17.774  0.00  0.00    +0.000 C 
BRANCH  17  18
ATOM     18  C   UNL     1       9.105  10.001  19.020  0.00  0.00    +0.000 C 
BRANCH  18  19
ATOM     19  N   UNL     1       9.714  11.334  18.825  0.00  0.00    +0.000 NA
ATOM     20  C   UNL     1      11.038  11.193  18.194  0.00  0.00    +0.000 C 
ATOM     21  C   UNL     1      11.713  12.555  18.024  0.00  0.00    +0.000 C 
ATOM     22  C   UNL     1      10.836  13.513  17.226  0.00  0.00    +0.000 C 
ATOM     23  C   UNL     1       9.440  13.586  17.826  0.00  0.00    +0.000 C 
ATOM     24  C   UNL     1       8.848  12.195  18.005  0.00  0.00    +0.000 C 
ENDBRANCH  18  19
ENDBRANCH  17  18
ENDBRANCH   4  17
TORSDOF 5
ENDMDL
MODEL 7
REMARK VINA RESULT:      -8.1      0.882      1.682
REMARK  Name = 
REMARK  5 active torsions:
REMARK  status: ('A' for Active; 'I' for Inactive)
REMARK    1  A    between atoms: C_6  and  O_7
REMARK    2  A    between atoms: O_7  and  C_8
REMARK    3  A    between atoms: C_11  and  C_12
REMARK    4  A    between atoms: C_12  and  C_13
REMARK    5  A    between atoms: C_13  and  N_14
REMARK                            x       y       z     vdW  Elec       q    Type
REMARK                         _______ _______ _______ _____ _____    ______ ____
ROOT
ATOM      1  C   UNL     1       6.191   5.535  17.679  0.00  0.00    +0.000 A 
ATOM      2  C   UNL     1       7.197   5.382  18.631  0.00  0.00    +0.000 A 
ATOM      3  C   UNL     1       8.066   6.441  18.907  0.00  0.00    +0.000 A 
ATOM      4  C   UNL     1       7.962   7.651  18.212  0.00  0.00    +0.000 A 
ATOM      5  C   UNL     1       6.925   7.815  17.284  0.00  0.00    +0.000 A 
ATOM      6  C   UNL     1       6.049   6.761  17.022  0.00  0.00    +0.000 A 
ENDROOT
BRANCH   1   7
ATOM      7  O   UNL     1       5.417   4.436  17.368  0.00  0.00    +0.000 OA
BRANCH   7  13
ATOM      8  C   UNL     1       0.907   2.915  21.030  0.00  0.00    +0.000 A 
ATOM      9  C   UNL     1       2.065   2.398  21.590  0.00  0.00    +0.000 A 
ATOM     10  N   UNL     1       3.307   2.541  21.070  0.00  0.00    +0.000 NA
ATOM     11  C   UNL     1       3.367   3.221  19.905  0.00  0.00    +0.000 A 
ATOM     12  N   UNL     1       4.568   3.413  19.275  0.00  0.00    +0.000 NA
ATOM     13  C   UNL     1       4.393   4.095  18.167  0.00  0.00    +0.000 A 
ATOM     14  S   UNL     1       2.769   4.514  17.801  0.00  0.00    +0.000 S 
ATOM     15  C   UNL     1       2.253   3.765  19.264  0.00  0.00    +0.000 A 
ATOM     16  C   UNL     1       0.991   3.630  19.838  0.00  0.00    +0.000 A 
ENDBRANCH   7  13
ENDBRANCH   1   7
BRANCH   4  17
ATOM     17  C   UNL     1       8.953   8.757  18.478  0.00  0.00    +0.000 C 
BRANCH  17  18
ATOM     18  C   UNL     1       8.410  10.162  18.131  0.00  0.00    +0.000 C 
BRANCH  18  19
ATOM     19  N   UNL     1       9.222  11.251  18.713  0.00  0.00    +0.000 NA
ATOM     20  C   UNL     1       9.602  10.910  20.096  0.00  0.00    +0.000 C 
ATOM     21  C   UNL     1      10.404  12.043  20.740  0.00  0.00    +0.000 C 
ATOM     22  C   UNL     1      11.637  12.389  19.913  0.00  0.00    +0.000 C 
ATOM     23  C   UNL     1      11.253  12.650  18.464  0.00  0.00    +0.000 C 
ATOM     24  C   UNL     1      10.423  11.504  17.902  0.00  0.00    +0.000 C 
ENDBRANCH  18  19
ENDBRANCH  17  18
ENDBRANCH   4  17
TORSDOF 5
ENDMDL
MODEL 8
REMARK VINA RESULT:      -8.1      0.899      1.338
REMARK  Name = 
REMARK  5 active torsions:
REMARK  status: ('A' for Active; 'I' for Inactive)
REMARK    1  A    between atoms: C_6  and  O_7
REMARK    2  A    between atoms: O_7  and  C_8
REMARK    3  A    between atoms: C_11  and  C_12
REMARK    4  A    between atoms: C_12  and  C_13
REMARK    5  A    between atoms: C_13  and  N_14
REMARK                            x       y       z     vdW  Elec       q    Type
REMARK                         _______ _______ _______ _____ _____    ______ ____
ROOT
ATOM      1  C   UNL     1       6.532   5.173  17.558  0.00  0.00    +0.000 A 
ATOM      2  C   UNL     1       6.088   6.153  16.672  0.00  0.00    +0.000 A 
ATOM      3  C   UNL     1       6.601   7.451  16.749  0.00  0.00    +0.000 A 
ATOM      4  C   UNL     1       7.537   7.792  17.732  0.00  0.00    +0.000 A 
ATOM      5  C   UNL     1       8.009   6.795  18.595  0.00  0.00    +0.000 A 
ATOM      6  C   UNL     1       7.507   5.497  18.506  0.00  0.00    +0.000 A 
ENDROOT
BRANCH   1   7
ATOM      7  O   UNL     1       5.930   3.932  17.509  0.00  0.00    +0.000 OA
BRANCH   7  13
ATOM      8  C   UNL     1       1.017   2.917  20.809  0.00  0.00    +0.000 A 
ATOM      9  C   UNL     1       2.094   2.445  21.545  0.00  0.00    +0.000 A 
ATOM     10  N   UNL     1       3.388   2.507  21.149  0.00  0.00    +0.000 NA
ATOM     11  C   UNL     1       3.590   3.050  19.929  0.00  0.00    +0.000 A 
ATOM     12  N   UNL     1       4.855   3.148  19.414  0.00  0.00    +0.000 NA
ATOM     13  C   UNL     1       4.819   3.702  18.225  0.00  0.00    +0.000 A 
ATOM     14  S   UNL     1       3.256   4.107  17.643  0.00  0.00    +0.000 S 
ATOM     15  C   UNL     1       2.567   3.537  19.115  0.00  0.00    +0.000 A 
ATOM     16  C   UNL     1       1.247   3.490  19.561  0.00  0.00    +0.000 A 
ENDBRANCH   7  13
ENDBRANCH   1   7
BRANCH   4  17
ATOM     17  C   UNL     1       8.026   9.215  17.840  0.00  0.00    +0.000 C 
BRANCH  17  18
ATOM     18  C   UNL     1       9.058   9.423  18.971  0.00  0.00    +0.000 C 
BRANCH  18  19
ATOM     19  N   UNL     1       9.341  10.849  19.236  0.00  0.00    +0.000 NA
ATOM     20  C   UNL     1       9.322  11.103  20.688  0.00  0.00    +0.000 C 
ATOM     21  C   UNL     1       9.565  12.583  20.990  0.00  0.00    +0.000 C 
ATOM     22  C   UNL     1      10.875  13.066  20.376  0.00  0.00    +0.000 C 
ATOM     23  C   UNL     1      10.932  12.720  18.896  0.00  0.00    +0.000 C 
ATOM     24  C   UNL     1      10.639  11.243  18.667  0.00  0.00    +0.000 C 
ENDBRANCH  18  19
ENDBRANCH  17  18
ENDBRANCH   4  17
TORSDOF 5
ENDMDL
MODEL 9
REMARK VINA RESULT:      -7.9      1.200      1.905
REMARK  Name = 
REMARK  5 active torsions:
REMARK  status: ('A' for Active; 'I' for Inactive)
REMARK    1  A    between atoms: C_6  and  O_7
REMARK    2  A    between atoms: O_7  and  C_8
REMARK    3  A    between atoms: C_11  and  C_12
REMARK    4  A    between atoms: C_12  and  C_13
REMARK    5  A    between atoms: C_13  and  N_14
REMARK                            x       y       z     vdW  Elec       q    Type
REMARK                         _______ _______ _______ _____ _____    ______ ____
ROOT
ATOM      1  C   UNL     1       6.590   5.690  17.881  0.00  0.00    +0.000 A 
ATOM      2  C   UNL     1       7.702   5.940  18.682  0.00  0.00    +0.000 A 
ATOM      3  C   UNL     1       8.290   7.208  18.689  0.00  0.00    +0.000 A 
ATOM      4  C   UNL     1       7.795   8.229  17.871  0.00  0.00    +0.000 A 
ATOM      5  C   UNL     1       6.653   7.986  17.096  0.00  0.00    +0.000 A 
ATOM      6  C   UNL     1       6.059   6.724  17.104  0.00  0.00    +0.000 A 
ENDROOT
BRANCH   1   7
ATOM      7  O   UNL     1       6.101   4.401  17.832  0.00  0.00    +0.000 OA
BRANCH   7  13
ATOM      8  C   UNL     1       0.592   3.119  19.851  0.00  0.00    +0.000 A 
ATOM      9  C   UNL     1       0.777   2.370  18.698  0.00  0.00    +0.000 A 
ATOM     10  N   UNL     1       1.907   2.367  17.951  0.00  0.00    +0.000 NA
ATOM     11  C   UNL     1       2.885   3.191  18.384  0.00  0.00    +0.000 A 
ATOM     12  N   UNL     1       4.067   3.285  17.698  0.00  0.00    +0.000 NA
ATOM     13  C   UNL     1       4.868   4.138  18.292  0.00  0.00    +0.000 A 
ATOM     14  S   UNL     1       4.233   4.901  19.693  0.00  0.00    +0.000 S 
ATOM     15  C   UNL     1       2.782   3.988  19.524  0.00  0.00    +0.000 A 
ATOM     16  C   UNL     1       1.620   3.949  20.293  0.00  0.00    +0.000 A 
ENDBRANCH   7  13
ENDBRANCH   1   7
BRANCH   4  17
ATOM     17  C   UNL     1       8.486   9.570  17.842  0.00  0.00    +0.000 C 
BRANCH  17  18
ATOM     18  C   UNL     1       9.049   9.997  19.216  0.00  0.00    +0.000 C 
BRANCH  18  19
ATOM     19  N   UNL     1       9.607  11.366  19.208  0.00  0.00    +0.000 NA
ATOM     20  C   UNL     1      10.160  11.690  20.535  0.00  0.00    +0.000 C 
ATOM     21  C   UNL     1      10.702  13.120  20.570  0.00  0.00    +0.000 C 
ATOM     22  C   UNL     1      11.747  13.343  19.483  0.00  0.00    +0.000 C 
ATOM     23  C   UNL     1      11.206  12.921  18.126  0.00  0.00    +0.000 C 
ATOM     24  C   UNL     1      10.645  11.506  18.176  0.00  0.00    +0.000 C 
ENDBRANCH  18  19
ENDBRANCH  17  18
ENDBRANCH   4  17
TORSDOF 5
ENDMDL
