MODEL 1
REMARK VINA RESULT:      -8.2      0.000      0.000
REMARK  Name = 
REMARK  9 active torsions:
REMARK  status: ('A' for Active; 'I' for Inactive)
REMARK    1  A    between atoms: C_1  and  O_2
REMARK    2  A    between atoms: O_2  and  C_3
REMARK    3  A    between atoms: N_9  and  C_10
REMARK    4  A    between atoms: C_14  and  C_15
REMARK    5  A    between atoms: C_17  and  C_18
REMARK    6  A    between atoms: C_18  and  C_19
REMARK    7  A    between atoms: C_19  and  N_20
REMARK    8  A    between atoms: C_27  and  O_28
REMARK    9  A    between atoms: O_28  and  C_29
REMARK                            x       y       z     vdW  Elec       q    Type
REMARK                         _______ _______ _______ _____ _____    ______ ____
ROOT
ATOM      1  C   UNL     1       7.156   5.197  14.485  0.00  0.00    +0.000 A 
ATOM      2  C   UNL     1       6.678   3.908  14.245  0.00  0.00    +0.000 A 
ATOM      3  C   UNL     1       5.696   3.369  15.076  0.00  0.00    +0.000 A 
ATOM      4  C   UNL     1       5.186   4.130  16.135  0.00  0.00    +0.000 A 
ATOM      5  C   UNL     1       4.140   3.591  17.012  0.00  0.00    +0.000 A 
ATOM      6  O   UNL     1       3.813   2.415  16.846  0.00  0.00    +0.000 OA
ATOM      7  N   UNL     1       3.633   4.458  17.995  0.00  0.00    +0.000 N 
ATOM      8  C   UNL     1       4.171   5.737  18.170  0.00  0.00    +0.000 A 
ATOM      9  N   UNL     1       5.133   6.194  17.429  0.00  0.00    +0.000 NA
ATOM     10  C   UNL     1       5.646   5.414  16.389  0.00  0.00    +0.000 A 
ATOM     11  C   UNL     1       6.635   5.939  15.555  0.00  0.00    +0.000 A 
ENDROOT
BRANCH   7  12
ATOM     12  C   UNL     1       2.572   3.931  18.795  0.00  0.00    +0.000 A 
ATOM     13  C   UNL     1       1.315   3.684  18.218  0.00  0.00    +0.000 A 
ATOM     14  C   UNL     1       0.281   3.125  18.967  0.00  0.00    +0.000 A 
ATOM     15  C   UNL     1       0.494   2.793  20.303  0.00  0.00    +0.000 A 
ATOM     16  C   UNL     1       1.748   2.999  20.888  0.00  0.00    +0.000 A 
ATOM     17  C   UNL     1       2.011   2.584  22.305  0.00  0.00    +0.000 C 
ATOM     18  C   UNL     1       2.787   3.550  20.122  0.00  0.00    +0.000 A 
ENDBRANCH   7  12
BRANCH   1  20
ATOM     19  C   UNL     1       8.146   5.560  12.356  0.00  0.00    +0.000 C 
ATOM     20  O   UNL     1       8.119   5.834  13.752  0.00  0.00    +0.000 OA
ENDBRANCH   1  20
BRANCH   8  21
ATOM     21  C   UNL     1       3.586   6.709  19.217  0.00  0.00    +0.000 C 
BRANCH  21  22
ATOM     22  C   UNL     1       2.423   7.551  18.644  0.00  0.00    +0.000 C 
BRANCH  22  23
ATOM     23  N   UNL     1       1.752   8.462  19.576  0.00  0.00    +0.000 N 
ATOM     24  C   UNL     1       1.221   8.072  20.771  0.00  0.00    +0.000 C 
ATOM     25  O   UNL     1       1.268   6.991  21.322  0.00  0.00    +0.000 OA
ATOM     26  C   UNL     1       0.445   9.200  21.280  0.00  0.00    +0.000 A 
ATOM     27  C   UNL     1      -0.165   9.326  22.516  0.00  0.00    +0.000 A 
ATOM     28  C   UNL     1      -0.861  10.505  22.767  0.00  0.00    +0.000 A 
ATOM     29  C   UNL     1      -0.972  11.485  21.764  0.00  0.00    +0.000 A 
ATOM     30  C   UNL     1      -0.386  11.313  20.498  0.00  0.00    +0.000 A 
ATOM     31  C   UNL     1       0.376  10.171  20.291  0.00  0.00    +0.000 A 
ATOM     32  C   UNL     1       1.218   9.672  19.186  0.00  0.00    +0.000 C 
ATOM     33  O   UNL     1       1.369  10.233  18.116  0.00  0.00    +0.000 OA
BRANCH  30  34
ATOM     34  O   UNL     1      -0.619  12.341  19.633  0.00  0.00    +0.000 OA
ATOM     35  C   UNL     1      -1.634  12.117  18.659  0.00  0.00    +0.000 C 
ENDBRANCH  30  34
ENDBRANCH  22  23
ENDBRANCH  21  22
ENDBRANCH   8  21
TORSDOF 6
ENDMDL
MODEL 2
REMARK VINA RESULT:      -8.1      2.792      9.158
REMARK  Name = 
REMARK  9 active torsions:
REMARK  status: ('A' for Active; 'I' for Inactive)
REMARK    1  A    between atoms: C_1  and  O_2
REMARK    2  A    between atoms: O_2  and  C_3
REMARK    3  A    between atoms: N_9  and  C_10
REMARK    4  A    between atoms: C_14  and  C_15
REMARK    5  A    between atoms: C_17  and  C_18
REMARK    6  A    between atoms: C_18  and  C_19
REMARK    7  A    between atoms: C_19  and  N_20
REMARK    8  A    between atoms: C_27  and  O_28
REMARK    9  A    between atoms: O_28  and  C_29
REMARK                            x       y       z     vdW  Elec       q    Type
REMARK                         _______ _______ _______ _____ _____    ______ ____
ROOT
ATOM      1  C   UNL     1      -3.278  10.195  15.389  0.00  0.00    +0.000 A 
ATOM      2  C   UNL     1      -4.301  11.049  15.799  0.00  0.00    +0.000 A 
ATOM      3  C   UNL     1      -4.235  11.657  17.053  0.00  0.00    +0.000 A 
ATOM      4  C   UNL     1      -3.134  11.417  17.884  0.00  0.00    +0.000 A 
ATOM      5  C   UNL     1      -3.033  12.058  19.200  0.00  0.00    +0.000 A 
ATOM      6  O   UNL     1      -3.998  12.721  19.582  0.00  0.00    +0.000 OA
ATOM      7  N   UNL     1      -1.853  11.822  19.927  0.00  0.00    +0.000 N 
ATOM      8  C   UNL     1      -0.875  10.948  19.443  0.00  0.00    +0.000 A 
ATOM      9  N   UNL     1      -0.990  10.338  18.304  0.00  0.00    +0.000 NA
ATOM     10  C   UNL     1      -2.105  10.572  17.494  0.00  0.00    +0.000 A 
ATOM     11  C   UNL     1      -2.188   9.964  16.240  0.00  0.00    +0.000 A 
ENDROOT
BRANCH   7  12
ATOM     12  C   UNL     1      -1.752  12.508  21.178  0.00  0.00    +0.000 A 
ATOM     13  C   UNL     1      -2.208  11.891  22.355  0.00  0.00    +0.000 A 
ATOM     14  C   UNL     1      -2.075  12.521  23.591  0.00  0.00    +0.000 A 
ATOM     15  C   UNL     1      -1.472  13.774  23.669  0.00  0.00    +0.000 A 
ATOM     16  C   UNL     1      -0.980  14.392  22.514  0.00  0.00    +0.000 A 
ATOM     17  C   UNL     1      -0.267  15.709  22.591  0.00  0.00    +0.000 C 
ATOM     18  C   UNL     1      -1.106  13.743  21.275  0.00  0.00    +0.000 A 
ENDBRANCH   7  12
BRANCH   1  20
ATOM     19  C   UNL     1      -4.185   9.917  13.210  0.00  0.00    +0.000 C 
ATOM     20  O   UNL     1      -3.229   9.533  14.192  0.00  0.00    +0.000 OA
ENDBRANCH   1  20
BRANCH   8  21
ATOM     21  C   UNL     1       0.441  10.723  20.217  0.00  0.00    +0.000 C 
BRANCH  21  22
ATOM     22  C   UNL     1       1.554  10.138  19.316  0.00  0.00    +0.000 C 
BRANCH  22  23
ATOM     23  N   UNL     1       1.705   8.680  19.323  0.00  0.00    +0.000 N 
ATOM     24  C   UNL     1       1.593   7.909  20.443  0.00  0.00    +0.000 C 
ATOM     25  O   UNL     1       1.275   8.226  21.571  0.00  0.00    +0.000 OA
ATOM     26  C   UNL     1       2.040   6.567  20.083  0.00  0.00    +0.000 A 
ATOM     27  C   UNL     1       1.983   5.415  20.848  0.00  0.00    +0.000 A 
ATOM     28  C   UNL     1       2.486   4.247  20.283  0.00  0.00    +0.000 A 
ATOM     29  C   UNL     1       3.076   4.279  19.005  0.00  0.00    +0.000 A 
ATOM     30  C   UNL     1       3.168   5.471  18.267  0.00  0.00    +0.000 A 
ATOM     31  C   UNL     1       2.586   6.611  18.808  0.00  0.00    +0.000 A 
ATOM     32  C   UNL     1       2.373   7.992  18.332  0.00  0.00    +0.000 C 
ATOM     33  O   UNL     1       2.760   8.430  17.265  0.00  0.00    +0.000 OA
BRANCH  30  34
ATOM     34  O   UNL     1       3.798   5.335  17.065  0.00  0.00    +0.000 OA
ATOM     35  C   UNL     1       5.150   5.784  17.017  0.00  0.00    +0.000 C 
ENDBRANCH  30  34
ENDBRANCH  22  23
ENDBRANCH  21  22
ENDBRANCH   8  21
TORSDOF 6
ENDMDL
MODEL 3
REMARK VINA RESULT:      -8.1      2.871      9.285
REMARK  Name = 
REMARK  9 active torsions:
REMARK  status: ('A' for Active; 'I' for Inactive)
REMARK    1  A    between atoms: C_1  and  O_2
REMARK    2  A    between atoms: O_2  and  C_3
REMARK    3  A    between atoms: N_9  and  C_10
REMARK    4  A    between atoms: C_14  and  C_15
REMARK    5  A    between atoms: C_17  and  C_18
REMARK    6  A    between atoms: C_18  and  C_19
REMARK    7  A    between atoms: C_19  and  N_20
REMARK    8  A    between atoms: C_27  and  O_28
REMARK    9  A    between atoms: O_28  and  C_29
REMARK                            x       y       z     vdW  Elec       q    Type
REMARK                         _______ _______ _______ _____ _____    ______ ____
ROOT
ATOM      1  C   UNL     1      -3.349  10.218  14.976  0.00  0.00    +0.000 A 
ATOM      2  C   UNL     1      -4.343  11.045  15.497  0.00  0.00    +0.000 A 
ATOM      3  C   UNL     1      -4.196  11.581  16.776  0.00  0.00    +0.000 A 
ATOM      4  C   UNL     1      -3.045  11.299  17.521  0.00  0.00    +0.000 A 
ATOM      5  C   UNL     1      -2.859  11.866  18.861  0.00  0.00    +0.000 A 
ATOM      6  O   UNL     1      -3.797  12.504  19.341  0.00  0.00    +0.000 OA
ATOM      7  N   UNL     1      -1.635  11.593  19.497  0.00  0.00    +0.000 N 
ATOM      8  C   UNL     1      -0.691  10.750  18.903  0.00  0.00    +0.000 A 
ATOM      9  N   UNL     1      -0.879  10.205  17.742  0.00  0.00    +0.000 NA
ATOM     10  C   UNL     1      -2.043  10.481  17.020  0.00  0.00    +0.000 A 
ATOM     11  C   UNL     1      -2.206   9.943  15.741  0.00  0.00    +0.000 A 
ENDROOT
BRANCH   7  12
ATOM     12  C   UNL     1      -1.454  12.209  20.775  0.00  0.00    +0.000 A 
ATOM     13  C   UNL     1      -1.741  11.489  21.947  0.00  0.00    +0.000 A 
ATOM     14  C   UNL     1      -1.525  12.052  23.204  0.00  0.00    +0.000 A 
ATOM     15  C   UNL     1      -1.007  13.341  23.306  0.00  0.00    +0.000 A 
ATOM     16  C   UNL     1      -0.682  14.063  22.152  0.00  0.00    +0.000 A 
ATOM     17  C   UNL     1      -0.060  15.424  22.247  0.00  0.00    +0.000 C 
ATOM     18  C   UNL     1      -0.890  13.482  20.891  0.00  0.00    +0.000 A 
ENDBRANCH   7  12
BRANCH   1  20
ATOM     19  C   UNL     1      -4.544   9.839  12.957  0.00  0.00    +0.000 C 
ATOM     20  O   UNL     1      -3.377   9.624  13.743  0.00  0.00    +0.000 OA
ENDBRANCH   1  20
BRANCH   8  21
ATOM     21  C   UNL     1       0.673  10.486  19.577  0.00  0.00    +0.000 C 
BRANCH  21  22
ATOM     22  C   UNL     1       0.791   9.039  20.106  0.00  0.00    +0.000 C 
BRANCH  22  23
ATOM     23  N   UNL     1       1.837   8.205  19.508  0.00  0.00    +0.000 N 
ATOM     24  C   UNL     1       2.388   8.440  18.282  0.00  0.00    +0.000 C 
ATOM     25  O   UNL     1       2.214   9.370  17.521  0.00  0.00    +0.000 OA
ATOM     26  C   UNL     1       3.202   7.273  17.950  0.00  0.00    +0.000 A 
ATOM     27  C   UNL     1       4.055   7.107  16.873  0.00  0.00    +0.000 A 
ATOM     28  C   UNL     1       4.720   5.889  16.767  0.00  0.00    +0.000 A 
ATOM     29  C   UNL     1       4.471   4.866  17.701  0.00  0.00    +0.000 A 
ATOM     30  C   UNL     1       3.561   5.040  18.758  0.00  0.00    +0.000 A 
ATOM     31  C   UNL     1       2.969   6.288  18.900  0.00  0.00    +0.000 A 
ATOM     32  C   UNL     1       2.072   6.903  19.898  0.00  0.00    +0.000 C 
ATOM     33  O   UNL     1       1.607   6.330  20.865  0.00  0.00    +0.000 OA
BRANCH  30  34
ATOM     34  O   UNL     1       3.411   3.940  19.549  0.00  0.00    +0.000 OA
ATOM     35  C   UNL     1       4.507   3.029  19.563  0.00  0.00    +0.000 C 
ENDBRANCH  30  34
ENDBRANCH  22  23
ENDBRANCH  21  22
ENDBRANCH   8  21
TORSDOF 6
ENDMDL
MODEL 4
REMARK VINA RESULT:      -8.1      3.518      9.160
REMARK  Name = 
REMARK  9 active torsions:
REMARK  status: ('A' for Active; 'I' for Inactive)
REMARK    1  A    between atoms: C_1  and  O_2
REMARK    2  A    between atoms: O_2  and  C_3
REMARK    3  A    between atoms: N_9  and  C_10
REMARK    4  A    between atoms: C_14  and  C_15
REMARK    5  A    between atoms: C_17  and  C_18
REMARK    6  A    between atoms: C_18  and  C_19
REMARK    7  A    between atoms: C_19  and  N_20
REMARK    8  A    between atoms: C_27  and  O_28
REMARK    9  A    between atoms: O_28  and  C_29
REMARK                            x       y       z     vdW  Elec       q    Type
REMARK                         _______ _______ _______ _____ _____    ______ ____
ROOT
ATOM      1  C   UNL     1       4.491  15.638  18.605  0.00  0.00    +0.000 A 
ATOM      2  C   UNL     1       3.523  16.581  18.257  0.00  0.00    +0.000 A 
ATOM      3  C   UNL     1       2.171  16.265  18.388  0.00  0.00    +0.000 A 
ATOM      4  C   UNL     1       1.794  15.010  18.882  0.00  0.00    +0.000 A 
ATOM      5  C   UNL     1       0.379  14.662  19.046  0.00  0.00    +0.000 A 
ATOM      6  O   UNL     1      -0.455  15.468  18.631  0.00  0.00    +0.000 OA
ATOM      7  N   UNL     1       0.100  13.412  19.626  0.00  0.00    +0.000 N 
ATOM      8  C   UNL     1       1.132  12.523  19.945  0.00  0.00    +0.000 A 
ATOM      9  N   UNL     1       2.382  12.810  19.750  0.00  0.00    +0.000 NA
ATOM     10  C   UNL     1       2.741  14.059  19.236  0.00  0.00    +0.000 A 
ATOM     11  C   UNL     1       4.091  14.385  19.092  0.00  0.00    +0.000 A 
ENDROOT
BRANCH   7  12
ATOM     12  C   UNL     1      -1.285  13.122  19.832  0.00  0.00    +0.000 A 
ATOM     13  C   UNL     1      -1.946  13.627  20.964  0.00  0.00    +0.000 A 
ATOM     14  C   UNL     1      -3.307  13.398  21.160  0.00  0.00    +0.000 A 
ATOM     15  C   UNL     1      -4.029  12.669  20.218  0.00  0.00    +0.000 A 
ATOM     16  C   UNL     1      -3.399  12.186  19.067  0.00  0.00    +0.000 A 
ATOM     17  C   UNL     1      -4.178  11.460  18.012  0.00  0.00    +0.000 C 
ATOM     18  C   UNL     1      -2.031  12.433  18.872  0.00  0.00    +0.000 A 
ENDBRANCH   7  12
BRANCH   1  20
ATOM     19  C   UNL     1       6.589  14.775  17.902  0.00  0.00    +0.000 C 
ATOM     20  O   UNL     1       5.843  15.820  18.516  0.00  0.00    +0.000 OA
ENDBRANCH   1  20
BRANCH   8  21
ATOM     21  C   UNL     1       0.833  11.170  20.625  0.00  0.00    +0.000 C 
BRANCH  21  22
ATOM     22  C   UNL     1       0.481  10.068  19.600  0.00  0.00    +0.000 C 
BRANCH  22  23
ATOM     23  N   UNL     1       1.470   9.001  19.420  0.00  0.00    +0.000 N 
ATOM     24  C   UNL     1       2.143   8.776  18.255  0.00  0.00    +0.000 C 
ATOM     25  O   UNL     1       2.140   9.417  17.224  0.00  0.00    +0.000 OA
ATOM     26  C   UNL     1       2.841   7.502  18.405  0.00  0.00    +0.000 A 
ATOM     27  C   UNL     1       3.755   6.923  17.540  0.00  0.00    +0.000 A 
ATOM     28  C   UNL     1       4.281   5.687  17.902  0.00  0.00    +0.000 A 
ATOM     29  C   UNL     1       3.840   5.049  19.076  0.00  0.00    +0.000 A 
ATOM     30  C   UNL     1       2.873   5.633  19.913  0.00  0.00    +0.000 A 
ATOM     31  C   UNL     1       2.419   6.904  19.584  0.00  0.00    +0.000 A 
ATOM     32  C   UNL     1       1.520   7.883  20.226  0.00  0.00    +0.000 C 
ATOM     33  O   UNL     1       0.914   7.697  21.265  0.00  0.00    +0.000 OA
BRANCH  30  34
ATOM     34  O   UNL     1       2.532   4.868  20.989  0.00  0.00    +0.000 OA
ATOM     35  C   UNL     1       1.433   3.981  20.799  0.00  0.00    +0.000 C 
ENDBRANCH  30  34
ENDBRANCH  22  23
ENDBRANCH  21  22
ENDBRANCH   8  21
TORSDOF 6
ENDMDL
MODEL 5
REMARK VINA RESULT:      -8.1      3.531     10.954
REMARK  Name = 
REMARK  9 active torsions:
REMARK  status: ('A' for Active; 'I' for Inactive)
REMARK    1  A    between atoms: C_1  and  O_2
REMARK    2  A    between atoms: O_2  and  C_3
REMARK    3  A    between atoms: N_9  and  C_10
REMARK    4  A    between atoms: C_14  and  C_15
REMARK    5  A    between atoms: C_17  and  C_18
REMARK    6  A    between atoms: C_18  and  C_19
REMARK    7  A    between atoms: C_19  and  N_20
REMARK    8  A    between atoms: C_27  and  O_28
REMARK    9  A    between atoms: O_28  and  C_29
REMARK                            x       y       z     vdW  Elec       q    Type
REMARK                         _______ _______ _______ _____ _____    ______ ____
ROOT
ATOM      1  C   UNL     1      -3.319  12.630  23.778  0.00  0.00    +0.000 A 
ATOM      2  C   UNL     1      -3.113  13.990  24.008  0.00  0.00    +0.000 A 
ATOM      3  C   UNL     1      -1.972  14.612  23.501  0.00  0.00    +0.000 A 
ATOM      4  C   UNL     1      -1.050  13.872  22.751  0.00  0.00    +0.000 A 
ATOM      5  C   UNL     1       0.147  14.508  22.192  0.00  0.00    +0.000 A 
ATOM      6  O   UNL     1       0.361  15.682  22.500  0.00  0.00    +0.000 OA
ATOM      7  N   UNL     1       0.971  13.704  21.385  0.00  0.00    +0.000 N 
ATOM      8  C   UNL     1       0.692  12.345  21.207  0.00  0.00    +0.000 A 
ATOM      9  N   UNL     1      -0.338  11.770  21.746  0.00  0.00    +0.000 NA
ATOM     10  C   UNL     1      -1.238  12.519  22.509  0.00  0.00    +0.000 A 
ATOM     11  C   UNL     1      -2.379  11.906  23.030  0.00  0.00    +0.000 A 
ENDROOT
BRANCH   7  12
ATOM     12  C   UNL     1       2.097  14.364  20.802  0.00  0.00    +0.000 A 
ATOM     13  C   UNL     1       3.348  14.308  21.437  0.00  0.00    +0.000 A 
ATOM     14  C   UNL     1       4.470  14.902  20.862  0.00  0.00    +0.000 A 
ATOM     15  C   UNL     1       4.358  15.552  19.635  0.00  0.00    +0.000 A 
ATOM     16  C   UNL     1       3.128  15.590  18.969  0.00  0.00    +0.000 A 
ATOM     17  C   UNL     1       3.007  16.226  17.616  0.00  0.00    +0.000 C 
ATOM     18  C   UNL     1       2.007  14.977  19.550  0.00  0.00    +0.000 A 
ENDBRANCH   7  12
BRANCH   1  20
ATOM     19  C   UNL     1      -5.606  12.611  24.422  0.00  0.00    +0.000 C 
ATOM     20  O   UNL     1      -4.387  11.902  24.226  0.00  0.00    +0.000 OA
ENDBRANCH   1  20
BRANCH   8  21
ATOM     21  C   UNL     1       1.567  11.470  20.284  0.00  0.00    +0.000 C 
BRANCH  21  22
ATOM     22  C   UNL     1       0.796  10.245  19.740  0.00  0.00    +0.000 C 
BRANCH  22  23
ATOM     23  N   UNL     1       1.574   9.019  19.536  0.00  0.00    +0.000 N 
ATOM     24  C   UNL     1       2.071   8.626  18.328  0.00  0.00    +0.000 C 
ATOM     25  O   UNL     1       2.060   9.206  17.261  0.00  0.00    +0.000 OA
ATOM     26  C   UNL     1       2.565   7.262  18.494  0.00  0.00    +0.000 A 
ATOM     27  C   UNL     1       3.274   6.495  17.585  0.00  0.00    +0.000 A 
ATOM     28  C   UNL     1       3.629   5.207  17.976  0.00  0.00    +0.000 A 
ATOM     29  C   UNL     1       3.220   4.712  19.228  0.00  0.00    +0.000 A 
ATOM     30  C   UNL     1       2.457   5.492  20.115  0.00  0.00    +0.000 A 
ATOM     31  C   UNL     1       2.182   6.803  19.747  0.00  0.00    +0.000 A 
ATOM     32  C   UNL     1       1.529   7.950  20.407  0.00  0.00    +0.000 C 
ATOM     33  O   UNL     1       1.017   7.921  21.511  0.00  0.00    +0.000 OA
BRANCH  30  34
ATOM     34  O   UNL     1       2.115   4.850  21.268  0.00  0.00    +0.000 OA
ATOM     35  C   UNL     1       2.330   3.441  21.283  0.00  0.00    +0.000 C 
ENDBRANCH  30  34
ENDBRANCH  22  23
ENDBRANCH  21  22
ENDBRANCH   8  21
TORSDOF 6
ENDMDL
MODEL 6
REMARK VINA RESULT:      -8.1      3.448      9.350
REMARK  Name = 
REMARK  9 active torsions:
REMARK  status: ('A' for Active; 'I' for Inactive)
REMARK    1  A    between atoms: C_1  and  O_2
REMARK    2  A    between atoms: O_2  and  C_3
REMARK    3  A    between atoms: N_9  and  C_10
REMARK    4  A    between atoms: C_14  and  C_15
REMARK    5  A    between atoms: C_17  and  C_18
REMARK    6  A    between atoms: C_18  and  C_19
REMARK    7  A    between atoms: C_19  and  N_20
REMARK    8  A    between atoms: C_27  and  O_28
REMARK    9  A    between atoms: O_28  and  C_29
REMARK                            x       y       z     vdW  Elec       q    Type
REMARK                         _______ _______ _______ _____ _____    ______ ____
ROOT
ATOM      1  C   UNL     1      -3.129  10.222  15.667  0.00  0.00    +0.000 A 
ATOM      2  C   UNL     1      -4.205  11.080  15.889  0.00  0.00    +0.000 A 
ATOM      3  C   UNL     1      -4.329  11.730  17.117  0.00  0.00    +0.000 A 
ATOM      4  C   UNL     1      -3.365  11.529  18.112  0.00  0.00    +0.000 A 
ATOM      5  C   UNL     1      -3.465  12.215  19.404  0.00  0.00    +0.000 A 
ATOM      6  O   UNL     1      -4.479  12.882  19.615  0.00  0.00    +0.000 OA
ATOM      7  N   UNL     1      -2.407  12.014  20.308  0.00  0.00    +0.000 N 
ATOM      8  C   UNL     1      -1.364  11.133  20.007  0.00  0.00    +0.000 A 
ATOM      9  N   UNL     1      -1.304  10.484  18.885  0.00  0.00    +0.000 NA
ATOM     10  C   UNL     1      -2.286  10.681  17.910  0.00  0.00    +0.000 A 
ATOM     11  C   UNL     1      -2.177  10.030  16.680  0.00  0.00    +0.000 A 
ENDROOT
BRANCH   7  12
ATOM     12  C   UNL     1      -2.497  12.743  21.535  0.00  0.00    +0.000 A 
ATOM     13  C   UNL     1      -1.861  13.989  21.658  0.00  0.00    +0.000 A 
ATOM     14  C   UNL     1      -1.975  14.739  22.828  0.00  0.00    +0.000 A 
ATOM     15  C   UNL     1      -2.739  14.257  23.888  0.00  0.00    +0.000 A 
ATOM     16  C   UNL     1      -3.409  13.034  23.774  0.00  0.00    +0.000 A 
ATOM     17  C   UNL     1      -4.289  12.534  24.880  0.00  0.00    +0.000 C 
ATOM     18  C   UNL     1      -3.298  12.292  22.587  0.00  0.00    +0.000 A 
ENDBRANCH   7  12
BRANCH   1  20
ATOM     19  C   UNL     1      -3.691   9.869  13.385  0.00  0.00    +0.000 C 
ATOM     20  O   UNL     1      -2.898   9.520  14.515  0.00  0.00    +0.000 OA
ENDBRANCH   1  20
BRANCH   8  21
ATOM     21  C   UNL     1      -0.177  10.946  20.976  0.00  0.00    +0.000 C 
BRANCH  21  22
ATOM     22  C   UNL     1       1.182  10.945  20.240  0.00  0.00    +0.000 C 
BRANCH  22  23
ATOM     23  N   UNL     1       1.726   9.635  19.869  0.00  0.00    +0.000 N 
ATOM     24  C   UNL     1       2.026   9.271  18.589  0.00  0.00    +0.000 C 
ATOM     25  O   UNL     1       2.000   9.932  17.570  0.00  0.00    +0.000 OA
ATOM     26  C   UNL     1       2.307   7.838  18.608  0.00  0.00    +0.000 A 
ATOM     27  C   UNL     1       2.786   7.049  17.576  0.00  0.00    +0.000 A 
ATOM     28  C   UNL     1       2.966   5.694  17.840  0.00  0.00    +0.000 A 
ATOM     29  C   UNL     1       2.613   5.167  19.096  0.00  0.00    +0.000 A 
ATOM     30  C   UNL     1       2.082   5.979  20.112  0.00  0.00    +0.000 A 
ATOM     31  C   UNL     1       1.987   7.342  19.864  0.00  0.00    +0.000 A 
ATOM     32  C   UNL     1       1.598   8.518  20.668  0.00  0.00    +0.000 C 
ATOM     33  O   UNL     1       1.205   8.478  21.819  0.00  0.00    +0.000 OA
BRANCH  30  34
ATOM     34  O   UNL     1       1.761   5.305  21.253  0.00  0.00    +0.000 OA
ATOM     35  C   UNL     1       2.185   3.945  21.312  0.00  0.00    +0.000 C 
ENDBRANCH  30  34
ENDBRANCH  22  23
ENDBRANCH  21  22
ENDBRANCH   8  21
TORSDOF 6
ENDMDL
MODEL 7
REMARK VINA RESULT:      -7.9      1.065      2.028
REMARK  Name = 
REMARK  9 active torsions:
REMARK  status: ('A' for Active; 'I' for Inactive)
REMARK    1  A    between atoms: C_1  and  O_2
REMARK    2  A    between atoms: O_2  and  C_3
REMARK    3  A    between atoms: N_9  and  C_10
REMARK    4  A    between atoms: C_14  and  C_15
REMARK    5  A    between atoms: C_17  and  C_18
REMARK    6  A    between atoms: C_18  and  C_19
REMARK    7  A    between atoms: C_19  and  N_20
REMARK    8  A    between atoms: C_27  and  O_28
REMARK    9  A    between atoms: O_28  and  C_29
REMARK                            x       y       z     vdW  Elec       q    Type
REMARK                         _______ _______ _______ _____ _____    ______ ____
ROOT
ATOM      1  C   UNL     1       7.190   5.223  14.449  0.00  0.00    +0.000 A 
ATOM      2  C   UNL     1       6.839   3.875  14.370  0.00  0.00    +0.000 A 
ATOM      3  C   UNL     1       5.878   3.359  15.239  0.00  0.00    +0.000 A 
ATOM      4  C   UNL     1       5.261   4.199  16.174  0.00  0.00    +0.000 A 
ATOM      5  C   UNL     1       4.236   3.683  17.086  0.00  0.00    +0.000 A 
ATOM      6  O   UNL     1       4.022   2.470  17.070  0.00  0.00    +0.000 OA
ATOM      7  N   UNL     1       3.615   4.619  17.932  0.00  0.00    +0.000 N 
ATOM      8  C   UNL     1       4.029   5.955  17.948  0.00  0.00    +0.000 A 
ATOM      9  N   UNL     1       4.974   6.400  17.179  0.00  0.00    +0.000 NA
ATOM     10  C   UNL     1       5.594   5.543  16.266  0.00  0.00    +0.000 A 
ATOM     11  C   UNL     1       6.564   6.046  15.396  0.00  0.00    +0.000 A 
ENDROOT
BRANCH   7  12
ATOM     12  C   UNL     1       2.575   4.103  18.766  0.00  0.00    +0.000 A 
ATOM     13  C   UNL     1       1.314   3.815  18.218  0.00  0.00    +0.000 A 
ATOM     14  C   UNL     1       0.301   3.265  19.003  0.00  0.00    +0.000 A 
ATOM     15  C   UNL     1       0.540   2.985  20.346  0.00  0.00    +0.000 A 
ATOM     16  C   UNL     1       1.799   3.232  20.904  0.00  0.00    +0.000 A 
ATOM     17  C   UNL     1       2.092   2.872  22.330  0.00  0.00    +0.000 C 
ATOM     18  C   UNL     1       2.817   3.773  20.102  0.00  0.00    +0.000 A 
ENDBRANCH   7  12
BRANCH   1  20
ATOM     19  C   UNL     1       8.006   5.650  12.258  0.00  0.00    +0.000 C 
ATOM     20  O   UNL     1       8.120   5.848  13.663  0.00  0.00    +0.000 OA
ENDBRANCH   1  20
BRANCH   8  21
ATOM     21  C   UNL     1       3.318   6.995  18.841  0.00  0.00    +0.000 C 
BRANCH  21  22
ATOM     22  C   UNL     1       2.068   7.594  18.156  0.00  0.00    +0.000 C 
BRANCH  22  23
ATOM     23  N   UNL     1       1.520   8.818  18.746  0.00  0.00    +0.000 N 
ATOM     24  C   UNL     1       1.733  10.068  18.240  0.00  0.00    +0.000 C 
ATOM     25  O   UNL     1       2.298  10.403  17.219  0.00  0.00    +0.000 OA
ATOM     26  C   UNL     1       1.233  11.018  19.230  0.00  0.00    +0.000 A 
ATOM     27  C   UNL     1       1.111  12.392  19.106  0.00  0.00    +0.000 A 
ATOM     28  C   UNL     1       0.611  13.089  20.203  0.00  0.00    +0.000 A 
ATOM     29  C   UNL     1       0.306  12.406  21.394  0.00  0.00    +0.000 A 
ATOM     30  C   UNL     1       0.486  11.016  21.512  0.00  0.00    +0.000 A 
ATOM     31  C   UNL     1       0.905  10.322  20.384  0.00  0.00    +0.000 A 
ATOM     32  C   UNL     1       1.109   8.897  20.060  0.00  0.00    +0.000 C 
ATOM     33  O   UNL     1       0.965   7.976  20.842  0.00  0.00    +0.000 OA
BRANCH  30  34
ATOM     34  O   UNL     1       0.176  10.518  22.743  0.00  0.00    +0.000 OA
ATOM     35  C   UNL     1      -1.169  10.714  23.173  0.00  0.00    +0.000 C 
ENDBRANCH  30  34
ENDBRANCH  22  23
ENDBRANCH  21  22
ENDBRANCH   8  21
TORSDOF 6
ENDMDL
MODEL 8
REMARK VINA RESULT:      -7.9      3.534      9.236
REMARK  Name = 
REMARK  9 active torsions:
REMARK  status: ('A' for Active; 'I' for Inactive)
REMARK    1  A    between atoms: C_1  and  O_2
REMARK    2  A    between atoms: O_2  and  C_3
REMARK    3  A    between atoms: N_9  and  C_10
REMARK    4  A    between atoms: C_14  and  C_15
REMARK    5  A    between atoms: C_17  and  C_18
REMARK    6  A    between atoms: C_18  and  C_19
REMARK    7  A    between atoms: C_19  and  N_20
REMARK    8  A    between atoms: C_27  and  O_28
REMARK    9  A    between atoms: O_28  and  C_29
REMARK                            x       y       z     vdW  Elec       q    Type
REMARK                         _______ _______ _______ _____ _____    ______ ____
ROOT
ATOM      1  C   UNL     1       4.323  15.234  17.923  0.00  0.00    +0.000 A 
ATOM      2  C   UNL     1       3.423  16.295  17.819  0.00  0.00    +0.000 A 
ATOM      3  C   UNL     1       2.121  16.146  18.297  0.00  0.00    +0.000 A 
ATOM      4  C   UNL     1       1.732  14.941  18.893  0.00  0.00    +0.000 A 
ATOM      5  C   UNL     1       0.374  14.767  19.419  0.00  0.00    +0.000 A 
ATOM      6  O   UNL     1      -0.432  15.677  19.219  0.00  0.00    +0.000 OA
ATOM      7  N   UNL     1       0.101  13.553  20.073  0.00  0.00    +0.000 N 
ATOM      8  C   UNL     1       1.062  12.538  20.131  0.00  0.00    +0.000 A 
ATOM      9  N   UNL     1       2.246  12.672  19.618  0.00  0.00    +0.000 NA
ATOM     10  C   UNL     1       2.612  13.875  19.008  0.00  0.00    +0.000 A 
ATOM     11  C   UNL     1       3.910  14.033  18.518  0.00  0.00    +0.000 A 
ENDROOT
BRANCH   7  12
ATOM     12  C   UNL     1      -1.209  13.433  20.632  0.00  0.00    +0.000 A 
ATOM     13  C   UNL     1      -2.244  12.856  19.876  0.00  0.00    +0.000 A 
ATOM     14  C   UNL     1      -3.517  12.686  20.418  0.00  0.00    +0.000 A 
ATOM     15  C   UNL     1      -3.770  13.080  21.730  0.00  0.00    +0.000 A 
ATOM     16  C   UNL     1      -2.746  13.625  22.511  0.00  0.00    +0.000 A 
ATOM     17  C   UNL     1      -2.985  13.991  23.946  0.00  0.00    +0.000 C 
ATOM     18  C   UNL     1      -1.463  13.781  21.961  0.00  0.00    +0.000 A 
ENDBRANCH   7  12
BRANCH   1  20
ATOM     19  C   UNL     1       6.600  15.708  18.411  0.00  0.00    +0.000 C 
ATOM     20  O   UNL     1       5.620  15.249  17.487  0.00  0.00    +0.000 OA
ENDBRANCH   1  20
BRANCH   8  21
ATOM     21  C   UNL     1       0.783  11.223  20.888  0.00  0.00    +0.000 C 
BRANCH  21  22
ATOM     22  C   UNL     1       0.336  10.087  19.938  0.00  0.00    +0.000 C 
BRANCH  22  23
ATOM     23  N   UNL     1       1.353   9.094  19.581  0.00  0.00    +0.000 N 
ATOM     24  C   UNL     1       1.975   9.044  18.368  0.00  0.00    +0.000 C 
ATOM     25  O   UNL     1       1.899   9.808  17.428  0.00  0.00    +0.000 OA
ATOM     26  C   UNL     1       2.725   7.791  18.325  0.00  0.00    +0.000 A 
ATOM     27  C   UNL     1       3.615   7.363  17.355  0.00  0.00    +0.000 A 
ATOM     28  C   UNL     1       4.203   6.114  17.534  0.00  0.00    +0.000 A 
ATOM     29  C   UNL     1       3.843   5.317  18.636  0.00  0.00    +0.000 A 
ATOM     30  C   UNL     1       2.897   5.752  19.582  0.00  0.00    +0.000 A 
ATOM     31  C   UNL     1       2.383   7.034  19.437  0.00  0.00    +0.000 A 
ATOM     32  C   UNL     1       1.482   7.887  20.236  0.00  0.00    +0.000 C 
ATOM     33  O   UNL     1       0.935   7.548  21.269  0.00  0.00    +0.000 OA
BRANCH  30  34
ATOM     34  O   UNL     1       2.637   4.845  20.566  0.00  0.00    +0.000 OA
ATOM     35  C   UNL     1       3.279   3.579  20.432  0.00  0.00    +0.000 C 
ENDBRANCH  30  34
ENDBRANCH  22  23
ENDBRANCH  21  22
ENDBRANCH   8  21
TORSDOF 6
ENDMDL
MODEL 9
REMARK VINA RESULT:      -7.8      3.581      9.608
REMARK  Name = 
REMARK  9 active torsions:
REMARK  status: ('A' for Active; 'I' for Inactive)
REMARK    1  A    between atoms: C_1  and  O_2
REMARK    2  A    between atoms: O_2  and  C_3
REMARK    3  A    between atoms: N_9  and  C_10
REMARK    4  A    between atoms: C_14  and  C_15
REMARK    5  A    between atoms: C_17  and  C_18
REMARK    6  A    between atoms: C_18  and  C_19
REMARK    7  A    between atoms: C_19  and  N_20
REMARK    8  A    between atoms: C_27  and  O_28
REMARK    9  A    between atoms: O_28  and  C_29
REMARK                            x       y       z     vdW  Elec       q    Type
REMARK                         _______ _______ _______ _____ _____    ______ ____
ROOT
ATOM      1  C   UNL     1      -3.100  10.839  15.806  0.00  0.00    +0.000 A 
ATOM      2  C   UNL     1      -4.438  11.092  16.109  0.00  0.00    +0.000 A 
ATOM      3  C   UNL     1      -4.781  11.578  17.371  0.00  0.00    +0.000 A 
ATOM      4  C   UNL     1      -3.780  11.824  18.318  0.00  0.00    +0.000 A 
ATOM      5  C   UNL     1      -4.115  12.352  19.645  0.00  0.00    +0.000 A 
ATOM      6  O   UNL     1      -5.309  12.464  19.925  0.00  0.00    +0.000 OA
ATOM      7  N   UNL     1      -3.036  12.644  20.498  0.00  0.00    +0.000 N 
ATOM      8  C   UNL     1      -1.722  12.357  20.116  0.00  0.00    +0.000 A 
ATOM      9  N   UNL     1      -1.430  11.840  18.963  0.00  0.00    +0.000 NA
ATOM     10  C   UNL     1      -2.443  11.581  18.036  0.00  0.00    +0.000 A 
ATOM     11  C   UNL     1      -2.114  11.086  16.772  0.00  0.00    +0.000 A 
ENDROOT
BRANCH   7  12
ATOM     12  C   UNL     1      -3.386  13.216  21.761  0.00  0.00    +0.000 A 
ATOM     13  C   UNL     1      -3.520  12.392  22.891  0.00  0.00    +0.000 A 
ATOM     14  C   UNL     1      -3.813  12.934  24.141  0.00  0.00    +0.000 A 
ATOM     15  C   UNL     1      -3.963  14.311  24.281  0.00  0.00    +0.000 A 
ATOM     16  C   UNL     1      -3.800  15.154  23.177  0.00  0.00    +0.000 A 
ATOM     17  C   UNL     1      -3.891  16.643  23.326  0.00  0.00    +0.000 C 
ATOM     18  C   UNL     1      -3.492  14.600  21.924  0.00  0.00    +0.000 A 
ENDBRANCH   7  12
BRANCH   1  20
ATOM     19  C   UNL     1      -3.613   9.979  13.652  0.00  0.00    +0.000 C 
ATOM     20  O   UNL     1      -2.635  10.355  14.614  0.00  0.00    +0.000 OA
ENDBRANCH   1  20
BRANCH   8  21
ATOM     21  C   UNL     1      -0.532  12.720  21.030  0.00  0.00    +0.000 C 
BRANCH  21  22
ATOM     22  C   UNL     1       0.817  12.238  20.450  0.00  0.00    +0.000 C 
BRANCH  22  23
ATOM     23  N   UNL     1       0.962  10.794  20.241  0.00  0.00    +0.000 N 
ATOM     24  C   UNL     1       0.869   9.868  21.239  0.00  0.00    +0.000 C 
ATOM     25  O   UNL     1       0.574  10.017  22.407  0.00  0.00    +0.000 OA
ATOM     26  C   UNL     1       1.305   8.592  20.678  0.00  0.00    +0.000 A 
ATOM     27  C   UNL     1       1.258   7.341  21.268  0.00  0.00    +0.000 A 
ATOM     28  C   UNL     1       1.746   6.267  20.529  0.00  0.00    +0.000 A 
ATOM     29  C   UNL     1       2.311   6.485  19.258  0.00  0.00    +0.000 A 
ATOM     30  C   UNL     1       2.393   7.773  18.700  0.00  0.00    +0.000 A 
ATOM     31  C   UNL     1       1.826   8.821  19.413  0.00  0.00    +0.000 A 
ATOM     32  C   UNL     1       1.609  10.257  19.148  0.00  0.00    +0.000 C 
ATOM     33  O   UNL     1       1.977  10.846  18.148  0.00  0.00    +0.000 OA
BRANCH  30  34
ATOM     34  O   UNL     1       3.000   7.812  17.479  0.00  0.00    +0.000 OA
ATOM     35  C   UNL     1       4.045   6.865  17.273  0.00  0.00    +0.000 C 
ENDBRANCH  30  34
ENDBRANCH  22  23
ENDBRANCH  21  22
ENDBRANCH   8  21
TORSDOF 6
ENDMDL
