MODEL 1
REMARK VINA RESULT:      -8.0      0.000      0.000
REMARK  Name = 
REMARK  6 active torsions:
REMARK  status: ('A' for Active; 'I' for Inactive)
REMARK    1  A    between atoms: C_1  and  C_2
REMARK    2  A    between atoms: C_4  and  S_5
REMARK    3  A    between atoms: S_5  and  C_6
REMARK    4  A    between atoms: C_6  and  C_7
REMARK    5  A    between atoms: N_9  and  C_10
REMARK    6  A    between atoms: C_19  and  C_20
REMARK                            x       y       z     vdW  Elec       q    Type
REMARK                         _______ _______ _______ _____ _____    ______ ____
ROOT
ATOM      1  S   UNL     1       3.376   2.780  20.619  0.00  0.00    +0.000 S 
ENDROOT
BRANCH   1   5
ATOM      2  C   UNL     1       7.417   5.648  19.667  0.00  0.00    +0.000 C 
ATOM      3  C   UNL     1       6.295   4.891  19.018  0.00  0.00    +0.000 A 
ATOM      4  N   UNL     1       5.448   4.274  19.872  0.00  0.00    +0.000 NA
ATOM      5  C   UNL     1       4.407   3.568  19.379  0.00  0.00    +0.000 A 
ATOM      6  C   UNL     1       4.164   3.465  18.006  0.00  0.00    +0.000 A 
ATOM      7  C   UNL     1       5.028   4.142  17.110  0.00  0.00    +0.000 A 
ATOM      8  C   UNL     1       6.142   4.835  17.628  0.00  0.00    +0.000 A 
ATOM      9  C   UNL     1       7.122   5.544  16.722  0.00  0.00    +0.000 C 
ATOM     10  C   UNL     1       7.046   5.095  15.267  0.00  0.00    +0.000 C 
ATOM     11  C   UNL     1       5.599   5.091  14.806  0.00  0.00    +0.000 C 
ATOM     12  C   UNL     1       4.795   4.069  15.611  0.00  0.00    +0.000 C 
BRANCH   6  13
ATOM     13  C   UNL     1       3.061   2.698  17.514  0.00  0.00    +0.000 C 
ATOM     14  N   UNL     1       2.134   2.092  17.124  0.00  0.00    +0.000 NA
ENDBRANCH   6  13
ENDBRANCH   1   5
BRANCH   1  15
ATOM     15  C   UNL     1       2.506   4.245  21.317  0.00  0.00    +0.000 C 
BRANCH  15  16
ATOM     16  C   UNL     1       2.062   5.265  20.273  0.00  0.00    +0.000 C 
ATOM     17  O   UNL     1       1.279   4.959  19.375  0.00  0.00    +0.000 OA
ATOM     18  N   UNL     1       2.586   6.520  20.438  0.00  0.00    +0.000 N 
ATOM     19  H   UNL     1       3.410   6.576  21.031  0.00  0.00    +0.000 HD
BRANCH  18  20
ATOM     20  C   UNL     1       2.228   7.690  19.764  0.00  0.00    +0.000 A 
ATOM     21  C   UNL     1       2.436   7.869  18.377  0.00  0.00    +0.000 A 
ATOM     22  C   UNL     1       1.675   8.813  17.676  0.00  0.00    +0.000 A 
ATOM     23  C   UNL     1       0.751   9.537  18.403  0.00  0.00    +0.000 A 
ATOM     24  C   UNL     1       0.685   9.463  19.778  0.00  0.00    +0.000 A 
ATOM     25  C   UNL     1       1.420   8.561  20.489  0.00  0.00    +0.000 A 
ATOM     26  O   UNL     1      -0.361  10.174  20.289  0.00  0.00    +0.000 OA
ATOM     27  C   UNL     1      -1.152  10.216  19.090  0.00  0.00    +0.000 C 
ATOM     28  O   UNL     1      -0.318  10.229  17.906  0.00  0.00    +0.000 OA
ENDBRANCH  18  20
ENDBRANCH  15  16
ENDBRANCH   1  15
TORSDOF 5
ENDMDL
MODEL 2
REMARK VINA RESULT:      -7.6      0.931      1.555
REMARK  Name = 
REMARK  6 active torsions:
REMARK  status: ('A' for Active; 'I' for Inactive)
REMARK    1  A    between atoms: C_1  and  C_2
REMARK    2  A    between atoms: C_4  and  S_5
REMARK    3  A    between atoms: S_5  and  C_6
REMARK    4  A    between atoms: C_6  and  C_7
REMARK    5  A    between atoms: N_9  and  C_10
REMARK    6  A    between atoms: C_19  and  C_20
REMARK                            x       y       z     vdW  Elec       q    Type
REMARK                         _______ _______ _______ _____ _____    ______ ____
ROOT
ATOM      1  S   UNL     1       3.609   2.514  20.516  0.00  0.00    +0.000 S 
ENDROOT
BRANCH   1   5
ATOM      2  C   UNL     1       7.561   5.550  19.732  0.00  0.00    +0.000 C 
ATOM      3  C   UNL     1       6.412   4.865  19.050  0.00  0.00    +0.000 A 
ATOM      4  N   UNL     1       5.620   4.128  19.860  0.00  0.00    +0.000 NA
ATOM      5  C   UNL     1       4.561   3.474  19.336  0.00  0.00    +0.000 A 
ATOM      6  C   UNL     1       4.243   3.547  17.976  0.00  0.00    +0.000 A 
ATOM      7  C   UNL     1       5.049   4.350  17.131  0.00  0.00    +0.000 A 
ATOM      8  C   UNL     1       6.183   4.988  17.675  0.00  0.00    +0.000 A 
ATOM      9  C   UNL     1       7.103   5.827  16.819  0.00  0.00    +0.000 C 
ATOM     10  C   UNL     1       6.951   5.571  15.324  0.00  0.00    +0.000 C 
ATOM     11  C   UNL     1       5.481   5.601  14.945  0.00  0.00    +0.000 C 
ATOM     12  C   UNL     1       4.734   4.469  15.651  0.00  0.00    +0.000 C 
BRANCH   6  13
ATOM     13  C   UNL     1       3.122   2.832  17.448  0.00  0.00    +0.000 C 
ATOM     14  N   UNL     1       2.195   2.233  17.047  0.00  0.00    +0.000 NA
ENDBRANCH   6  13
ENDBRANCH   1   5
BRANCH   1  15
ATOM     15  C   UNL     1       2.869   3.860  21.531  0.00  0.00    +0.000 C 
BRANCH  15  16
ATOM     16  C   UNL     1       1.966   4.809  20.750  0.00  0.00    +0.000 C 
ATOM     17  O   UNL     1       0.925   4.412  20.227  0.00  0.00    +0.000 OA
ATOM     18  N   UNL     1       2.401   6.107  20.703  0.00  0.00    +0.000 N 
ATOM     19  H   UNL     1       3.382   6.248  20.927  0.00  0.00    +0.000 HD
BRANCH  18  20
ATOM     20  C   UNL     1       1.708   7.223  20.229  0.00  0.00    +0.000 A 
ATOM     21  C   UNL     1       0.991   8.097  21.079  0.00  0.00    +0.000 A 
ATOM     22  C   UNL     1       0.716   9.405  20.659  0.00  0.00    +0.000 A 
ATOM     23  C   UNL     1       1.164   9.767  19.404  0.00  0.00    +0.000 A 
ATOM     24  C   UNL     1       1.710   8.849  18.532  0.00  0.00    +0.000 A 
ATOM     25  C   UNL     1       1.981   7.567  18.908  0.00  0.00    +0.000 A 
ATOM     26  O   UNL     1       2.181   9.430  17.392  0.00  0.00    +0.000 OA
ATOM     27  C   UNL     1       2.323  10.761  17.914  0.00  0.00    +0.000 C 
ATOM     28  O   UNL     1       1.331  11.039  18.932  0.00  0.00    +0.000 OA
ENDBRANCH  18  20
ENDBRANCH  15  16
ENDBRANCH   1  15
TORSDOF 5
ENDMDL
MODEL 3
REMARK VINA RESULT:      -7.3      1.401      1.771
REMARK  Name = 
REMARK  6 active torsions:
REMARK  status: ('A' for Active; 'I' for Inactive)
REMARK    1  A    between atoms: C_1  and  C_2
REMARK    2  A    between atoms: C_4  and  S_5
REMARK    3  A    between atoms: S_5  and  C_6
REMARK    4  A    between atoms: C_6  and  C_7
REMARK    5  A    between atoms: N_9  and  C_10
REMARK    6  A    between atoms: C_19  and  C_20
REMARK                            x       y       z     vdW  Elec       q    Type
REMARK                         _______ _______ _______ _____ _____    ______ ____
ROOT
ATOM      1  S   UNL     1       3.418   3.758  20.653  0.00  0.00    +0.000 S 
ENDROOT
BRANCH   1   5
ATOM      2  C   UNL     1       7.656   6.044  19.147  0.00  0.00    +0.000 C 
ATOM      3  C   UNL     1       6.467   5.266  18.662  0.00  0.00    +0.000 A 
ATOM      4  N   UNL     1       5.588   4.902  19.622  0.00  0.00    +0.000 NA
ATOM      5  C   UNL     1       4.488   4.197  19.280  0.00  0.00    +0.000 A 
ATOM      6  C   UNL     1       4.215   3.842  17.955  0.00  0.00    +0.000 A 
ATOM      7  C   UNL     1       5.116   4.255  16.942  0.00  0.00    +0.000 A 
ATOM      8  C   UNL     1       6.289   4.945  17.311  0.00  0.00    +0.000 A 
ATOM      9  C   UNL     1       7.307   5.379  16.283  0.00  0.00    +0.000 C 
ATOM     10  C   UNL     1       7.173   4.656  14.947  0.00  0.00    +0.000 C 
ATOM     11  C   UNL     1       5.723   4.676  14.496  0.00  0.00    +0.000 C 
ATOM     12  C   UNL     1       4.854   3.903  15.489  0.00  0.00    +0.000 C 
BRANCH   6  13
ATOM     13  C   UNL     1       3.048   3.083  17.627  0.00  0.00    +0.000 C 
ATOM     14  N   UNL     1       2.106   2.450  17.327  0.00  0.00    +0.000 NA
ENDBRANCH   6  13
ENDBRANCH   1   5
BRANCH   1  15
ATOM     15  C   UNL     1       1.866   4.620  20.164  0.00  0.00    +0.000 C 
BRANCH  15  16
ATOM     16  C   UNL     1       2.023   6.124  19.960  0.00  0.00    +0.000 C 
ATOM     17  O   UNL     1       2.538   6.578  18.939  0.00  0.00    +0.000 OA
ATOM     18  N   UNL     1       1.535   6.895  20.981  0.00  0.00    +0.000 N 
ATOM     19  H   UNL     1       1.392   6.414  21.864  0.00  0.00    +0.000 HD
BRANCH  18  20
ATOM     20  C   UNL     1       1.369   8.282  20.999  0.00  0.00    +0.000 A 
ATOM     21  C   UNL     1       1.261   9.056  19.820  0.00  0.00    +0.000 A 
ATOM     22  C   UNL     1       0.652  10.317  19.870  0.00  0.00    +0.000 A 
ATOM     23  C   UNL     1       0.191  10.742  21.100  0.00  0.00    +0.000 A 
ATOM     24  C   UNL     1       0.458  10.045  22.259  0.00  0.00    +0.000 A 
ATOM     25  C   UNL     1       1.058   8.820  22.245  0.00  0.00    +0.000 A 
ATOM     26  O   UNL     1      -0.174  10.577  23.345  0.00  0.00    +0.000 OA
ATOM     27  C   UNL     1      -1.196  11.287  22.627  0.00  0.00    +0.000 C 
ATOM     28  O   UNL     1      -0.723  11.731  21.332  0.00  0.00    +0.000 OA
ENDBRANCH  18  20
ENDBRANCH  15  16
ENDBRANCH   1  15
TORSDOF 5
ENDMDL
MODEL 4
REMARK VINA RESULT:      -7.2      3.440      9.021
REMARK  Name = 
REMARK  6 active torsions:
REMARK  status: ('A' for Active; 'I' for Inactive)
REMARK    1  A    between atoms: C_1  and  C_2
REMARK    2  A    between atoms: C_4  and  S_5
REMARK    3  A    between atoms: S_5  and  C_6
REMARK    4  A    between atoms: C_6  and  C_7
REMARK    5  A    between atoms: N_9  and  C_10
REMARK    6  A    between atoms: C_19  and  C_20
REMARK                            x       y       z     vdW  Elec       q    Type
REMARK                         _______ _______ _______ _____ _____    ______ ____
ROOT
ATOM      1  S   UNL     1       1.202   8.605  20.330  0.00  0.00    +0.000 S 
ENDROOT
BRANCH   1   5
ATOM      2  C   UNL     1      -1.693  11.945  17.897  0.00  0.00    +0.000 C 
ATOM      3  C   UNL     1      -1.287  11.468  19.261  0.00  0.00    +0.000 A 
ATOM      4  N   UNL     1      -0.391  10.456  19.274  0.00  0.00    +0.000 NA
ATOM      5  C   UNL     1       0.033   9.961  20.457  0.00  0.00    +0.000 A 
ATOM      6  C   UNL     1      -0.414  10.473  21.679  0.00  0.00    +0.000 A 
ATOM      7  C   UNL     1      -1.325  11.558  21.669  0.00  0.00    +0.000 A 
ATOM      8  C   UNL     1      -1.803  12.037  20.431  0.00  0.00    +0.000 A 
ATOM      9  C   UNL     1      -2.803  13.167  20.355  0.00  0.00    +0.000 C 
ATOM     10  C   UNL     1      -3.537  13.425  21.666  0.00  0.00    +0.000 C 
ATOM     11  C   UNL     1      -2.537  13.499  22.808  0.00  0.00    +0.000 C 
ATOM     12  C   UNL     1      -1.827  12.154  22.972  0.00  0.00    +0.000 C 
BRANCH   6  13
ATOM     13  C   UNL     1       0.043   9.917  22.915  0.00  0.00    +0.000 C 
ATOM     14  N   UNL     1       0.392   9.478  23.947  0.00  0.00    +0.000 NA
ENDBRANCH   6  13
ENDBRANCH   1   5
BRANCH   1  15
ATOM     15  C   UNL     1       1.443   8.533  18.506  0.00  0.00    +0.000 C 
BRANCH  15  16
ATOM     16  C   UNL     1       2.679   7.754  18.068  0.00  0.00    +0.000 C 
ATOM     17  O   UNL     1       3.590   8.301  17.447  0.00  0.00    +0.000 OA
ATOM     18  N   UNL     1       2.687   6.435  18.438  0.00  0.00    +0.000 N 
ATOM     19  H   UNL     1       1.784   6.047  18.694  0.00  0.00    +0.000 HD
BRANCH  18  20
ATOM     20  C   UNL     1       3.747   5.529  18.345  0.00  0.00    +0.000 A 
ATOM     21  C   UNL     1       4.030   4.801  17.167  0.00  0.00    +0.000 A 
ATOM     22  C   UNL     1       5.316   4.283  16.962  0.00  0.00    +0.000 A 
ATOM     23  C   UNL     1       6.249   4.513  17.953  0.00  0.00    +0.000 A 
ATOM     24  C   UNL     1       5.904   5.078  19.162  0.00  0.00    +0.000 A 
ATOM     25  C   UNL     1       4.659   5.583  19.395  0.00  0.00    +0.000 A 
ATOM     26  O   UNL     1       6.989   5.313  19.955  0.00  0.00    +0.000 OA
ATOM     27  C   UNL     1       7.977   5.317  18.912  0.00  0.00    +0.000 C 
ATOM     28  O   UNL     1       7.608   4.428  17.830  0.00  0.00    +0.000 OA
ENDBRANCH  18  20
ENDBRANCH  15  16
ENDBRANCH   1  15
TORSDOF 5
ENDMDL
MODEL 5
REMARK VINA RESULT:      -7.2      3.548      9.191
REMARK  Name = 
REMARK  6 active torsions:
REMARK  status: ('A' for Active; 'I' for Inactive)
REMARK    1  A    between atoms: C_1  and  C_2
REMARK    2  A    between atoms: C_4  and  S_5
REMARK    3  A    between atoms: S_5  and  C_6
REMARK    4  A    between atoms: C_6  and  C_7
REMARK    5  A    between atoms: N_9  and  C_10
REMARK    6  A    between atoms: C_19  and  C_20
REMARK                            x       y       z     vdW  Elec       q    Type
REMARK                         _______ _______ _______ _____ _____    ______ ____
ROOT
ATOM      1  S   UNL     1       1.006  10.821  19.189  0.00  0.00    +0.000 S 
ENDROOT
BRANCH   1   5
ATOM      2  C   UNL     1      -2.724   9.748  15.965  0.00  0.00    +0.000 C 
ATOM      3  C   UNL     1      -2.407  10.452  17.253  0.00  0.00    +0.000 A 
ATOM      4  N   UNL     1      -1.113  10.393  17.637  0.00  0.00    +0.000 NA
ATOM      5  C   UNL     1      -0.734  10.997  18.784  0.00  0.00    +0.000 A 
ATOM      6  C   UNL     1      -1.638  11.700  19.586  0.00  0.00    +0.000 A 
ATOM      7  C   UNL     1      -2.988  11.795  19.167  0.00  0.00    +0.000 A 
ATOM      8  C   UNL     1      -3.388  11.119  17.995  0.00  0.00    +0.000 A 
ATOM      9  C   UNL     1      -4.820  11.151  17.515  0.00  0.00    +0.000 C 
ATOM     10  C   UNL     1      -5.815  11.582  18.587  0.00  0.00    +0.000 C 
ATOM     11  C   UNL     1      -5.317  12.842  19.273  0.00  0.00    +0.000 C 
ATOM     12  C   UNL     1      -4.002  12.559  20.000  0.00  0.00    +0.000 C 
BRANCH   6  13
ATOM     13  C   UNL     1      -1.209  12.317  20.803  0.00  0.00    +0.000 C 
ATOM     14  N   UNL     1      -0.885  12.845  21.802  0.00  0.00    +0.000 NA
ENDBRANCH   6  13
ENDBRANCH   1   5
BRANCH   1  15
ATOM     15  C   UNL     1       1.498   9.498  18.007  0.00  0.00    +0.000 C 
BRANCH  15  16
ATOM     16  C   UNL     1       1.998   8.219  18.673  0.00  0.00    +0.000 C 
ATOM     17  O   UNL     1       1.819   8.013  19.872  0.00  0.00    +0.000 OA
ATOM     18  N   UNL     1       2.628   7.342  17.830  0.00  0.00    +0.000 N 
ATOM     19  H   UNL     1       2.951   7.735  16.950  0.00  0.00    +0.000 HD
BRANCH  18  20
ATOM     20  C   UNL     1       3.023   6.030  18.103  0.00  0.00    +0.000 A 
ATOM     21  C   UNL     1       4.262   5.713  18.705  0.00  0.00    +0.000 A 
ATOM     22  C   UNL     1       4.420   4.488  19.366  0.00  0.00    +0.000 A 
ATOM     23  C   UNL     1       3.332   3.639  19.382  0.00  0.00    +0.000 A 
ATOM     24  C   UNL     1       2.194   3.899  18.647  0.00  0.00    +0.000 A 
ATOM     25  C   UNL     1       2.015   5.077  17.985  0.00  0.00    +0.000 A 
ATOM     26  O   UNL     1       1.203   2.993  18.884  0.00  0.00    +0.000 OA
ATOM     27  C   UNL     1       1.681   2.532  20.158  0.00  0.00    +0.000 C 
ATOM     28  O   UNL     1       3.126   2.590  20.234  0.00  0.00    +0.000 OA
ENDBRANCH  18  20
ENDBRANCH  15  16
ENDBRANCH   1  15
TORSDOF 5
ENDMDL
MODEL 6
REMARK VINA RESULT:      -7.1      3.202      8.943
REMARK  Name = 
REMARK  6 active torsions:
REMARK  status: ('A' for Active; 'I' for Inactive)
REMARK    1  A    between atoms: C_1  and  C_2
REMARK    2  A    between atoms: C_4  and  S_5
REMARK    3  A    between atoms: S_5  and  C_6
REMARK    4  A    between atoms: C_6  and  C_7
REMARK    5  A    between atoms: N_9  and  C_10
REMARK    6  A    between atoms: C_19  and  C_20
REMARK                            x       y       z     vdW  Elec       q    Type
REMARK                         _______ _______ _______ _____ _____    ______ ____
ROOT
ATOM      1  S   UNL     1       1.364   9.920  18.766  0.00  0.00    +0.000 S 
ENDROOT
BRANCH   1   5
ATOM      2  C   UNL     1      -2.975   9.872  16.192  0.00  0.00    +0.000 C 
ATOM      3  C   UNL     1      -2.310  10.410  17.426  0.00  0.00    +0.000 A 
ATOM      4  N   UNL     1      -1.016  10.052  17.584  0.00  0.00    +0.000 NA
ATOM      5  C   UNL     1      -0.336  10.488  18.666  0.00  0.00    +0.000 A 
ATOM      6  C   UNL     1      -0.922  11.317  19.627  0.00  0.00    +0.000 A 
ATOM      7  C   UNL     1      -2.267  11.724  19.445  0.00  0.00    +0.000 A 
ATOM      8  C   UNL     1      -2.988  11.224  18.340  0.00  0.00    +0.000 A 
ATOM      9  C   UNL     1      -4.435  11.591  18.110  0.00  0.00    +0.000 C 
ATOM     10  C   UNL     1      -5.127  12.157  19.346  0.00  0.00    +0.000 C 
ATOM     11  C   UNL     1      -4.259  13.236  19.970  0.00  0.00    +0.000 C 
ATOM     12  C   UNL     1      -2.941  12.633  20.457  0.00  0.00    +0.000 C 
BRANCH   6  13
ATOM     13  C   UNL     1      -0.179  11.751  20.770  0.00  0.00    +0.000 C 
ATOM     14  N   UNL     1       0.431  12.140  21.696  0.00  0.00    +0.000 NA
ENDBRANCH   6  13
ENDBRANCH   1   5
BRANCH   1  15
ATOM     15  C   UNL     1       1.277   8.849  20.260  0.00  0.00    +0.000 C 
BRANCH  15  16
ATOM     16  C   UNL     1       1.879   7.459  20.070  0.00  0.00    +0.000 C 
ATOM     17  O   UNL     1       1.629   6.544  20.853  0.00  0.00    +0.000 OA
ATOM     18  N   UNL     1       2.681   7.328  18.968  0.00  0.00    +0.000 N 
ATOM     19  H   UNL     1       3.023   8.197  18.569  0.00  0.00    +0.000 HD
BRANCH  18  20
ATOM     20  C   UNL     1       3.214   6.151  18.436  0.00  0.00    +0.000 A 
ATOM     21  C   UNL     1       4.534   5.719  18.703  0.00  0.00    +0.000 A 
ATOM     22  C   UNL     1       4.867   4.367  18.550  0.00  0.00    +0.000 A 
ATOM     23  C   UNL     1       3.864   3.518  18.128  0.00  0.00    +0.000 A 
ATOM     24  C   UNL     1       2.636   3.990  17.714  0.00  0.00    +0.000 A 
ATOM     25  C   UNL     1       2.285   5.302  17.841  0.00  0.00    +0.000 A 
ATOM     26  O   UNL     1       1.758   2.984  17.438  0.00  0.00    +0.000 OA
ATOM     27  C   UNL     1       2.408   1.961  18.209  0.00  0.00    +0.000 C 
ATOM     28  O   UNL     1       3.842   2.157  18.246  0.00  0.00    +0.000 OA
ENDBRANCH  18  20
ENDBRANCH  15  16
ENDBRANCH   1  15
TORSDOF 5
ENDMDL
MODEL 7
REMARK VINA RESULT:      -7.1      1.591      2.736
REMARK  Name = 
REMARK  6 active torsions:
REMARK  status: ('A' for Active; 'I' for Inactive)
REMARK    1  A    between atoms: C_1  and  C_2
REMARK    2  A    between atoms: C_4  and  S_5
REMARK    3  A    between atoms: S_5  and  C_6
REMARK    4  A    between atoms: C_6  and  C_7
REMARK    5  A    between atoms: N_9  and  C_10
REMARK    6  A    between atoms: C_19  and  C_20
REMARK                            x       y       z     vdW  Elec       q    Type
REMARK                         _______ _______ _______ _____ _____    ______ ____
ROOT
ATOM      1  S   UNL     1       3.016   2.003  17.607  0.00  0.00    +0.000 S 
ENDROOT
BRANCH   1   5
ATOM      2  C   UNL     1       5.334   5.508  14.814  0.00  0.00    +0.000 C 
ATOM      3  C   UNL     1       5.291   4.889  16.182  0.00  0.00    +0.000 A 
ATOM      4  N   UNL     1       4.385   3.898  16.336  0.00  0.00    +0.000 NA
ATOM      5  C   UNL     1       4.273   3.283  17.533  0.00  0.00    +0.000 A 
ATOM      6  C   UNL     1       5.079   3.626  18.623  0.00  0.00    +0.000 A 
ATOM      7  C   UNL     1       6.055   4.639  18.453  0.00  0.00    +0.000 A 
ATOM      8  C   UNL     1       6.132   5.313  17.216  0.00  0.00    +0.000 A 
ATOM      9  C   UNL     1       7.126   6.427  16.985  0.00  0.00    +0.000 C 
ATOM     10  C   UNL     1       7.695   7.017  18.271  0.00  0.00    +0.000 C 
ATOM     11  C   UNL     1       8.155   5.897  19.189  0.00  0.00    +0.000 C 
ATOM     12  C   UNL     1       6.961   5.037  19.605  0.00  0.00    +0.000 C 
BRANCH   6  13
ATOM     13  C   UNL     1       4.927   2.966  19.882  0.00  0.00    +0.000 C 
ATOM     14  N   UNL     1       4.826   2.400  20.906  0.00  0.00    +0.000 NA
ENDBRANCH   6  13
ENDBRANCH   1   5
BRANCH   1  15
ATOM     15  C   UNL     1       1.653   2.914  18.446  0.00  0.00    +0.000 C 
BRANCH  15  16
ATOM     16  C   UNL     1       1.605   4.404  18.122  0.00  0.00    +0.000 C 
ATOM     17  O   UNL     1       0.902   4.836  17.209  0.00  0.00    +0.000 OA
ATOM     18  N   UNL     1       2.379   5.192  18.932  0.00  0.00    +0.000 N 
ATOM     19  H   UNL     1       3.105   4.706  19.452  0.00  0.00    +0.000 HD
BRANCH  18  20
ATOM     20  C   UNL     1       2.398   6.587  19.000  0.00  0.00    +0.000 A 
ATOM     21  C   UNL     1       2.710   7.404  17.888  0.00  0.00    +0.000 A 
ATOM     22  C   UNL     1       2.280   8.737  17.863  0.00  0.00    +0.000 A 
ATOM     23  C   UNL     1       1.567   9.187  18.956  0.00  0.00    +0.000 A 
ATOM     24  C   UNL     1       1.421   8.424  20.095  0.00  0.00    +0.000 A 
ATOM     25  C   UNL     1       1.838   7.127  20.155  0.00  0.00    +0.000 A 
ATOM     26  O   UNL     1       0.598   9.009  21.012  0.00  0.00    +0.000 OA
ATOM     27  C   UNL     1      -0.094   9.879  20.102  0.00  0.00    +0.000 C 
ATOM     28  O   UNL     1       0.762  10.290  19.008  0.00  0.00    +0.000 OA
ENDBRANCH  18  20
ENDBRANCH  15  16
ENDBRANCH   1  15
TORSDOF 5
ENDMDL
MODEL 8
REMARK VINA RESULT:      -7.1      3.346      8.896
REMARK  Name = 
REMARK  6 active torsions:
REMARK  status: ('A' for Active; 'I' for Inactive)
REMARK    1  A    between atoms: C_1  and  C_2
REMARK    2  A    between atoms: C_4  and  S_5
REMARK    3  A    between atoms: S_5  and  C_6
REMARK    4  A    between atoms: C_6  and  C_7
REMARK    5  A    between atoms: N_9  and  C_10
REMARK    6  A    between atoms: C_19  and  C_20
REMARK                            x       y       z     vdW  Elec       q    Type
REMARK                         _______ _______ _______ _____ _____    ______ ____
ROOT
ATOM      1  S   UNL     1       1.536   9.418  18.255  0.00  0.00    +0.000 S 
ENDROOT
BRANCH   1   5
ATOM      2  C   UNL     1      -3.071   9.871  16.248  0.00  0.00    +0.000 C 
ATOM      3  C   UNL     1      -2.206  10.310  17.394  0.00  0.00    +0.000 A 
ATOM      4  N   UNL     1      -0.946   9.819  17.384  0.00  0.00    +0.000 NA
ATOM      5  C   UNL     1      -0.095  10.158  18.376  0.00  0.00    +0.000 A 
ATOM      6  C   UNL     1      -0.468  11.020  19.412  0.00  0.00    +0.000 A 
ATOM      7  C   UNL     1      -1.776  11.566  19.404  0.00  0.00    +0.000 A 
ATOM      8  C   UNL     1      -2.676  11.167  18.395  0.00  0.00    +0.000 A 
ATOM      9  C   UNL     1      -4.095  11.684  18.353  0.00  0.00    +0.000 C 
ATOM     10  C   UNL     1      -4.565  12.290  19.671  0.00  0.00    +0.000 C 
ATOM     11  C   UNL     1      -3.520  13.260  20.192  0.00  0.00    +0.000 C 
ATOM     12  C   UNL     1      -2.221  12.516  20.502  0.00  0.00    +0.000 C 
BRANCH   6  13
ATOM     13  C   UNL     1       0.452  11.350  20.456  0.00  0.00    +0.000 C 
ATOM     14  N   UNL     1       1.232  11.600  21.298  0.00  0.00    +0.000 NA
ENDBRANCH   6  13
ENDBRANCH   1   5
BRANCH   1  15
ATOM     15  C   UNL     1       1.511   8.301  19.719  0.00  0.00    +0.000 C 
BRANCH  15  16
ATOM     16  C   UNL     1       2.343   7.033  19.552  0.00  0.00    +0.000 C 
ATOM     17  O   UNL     1       2.208   6.077  20.314  0.00  0.00    +0.000 OA
ATOM     18  N   UNL     1       3.214   7.053  18.494  0.00  0.00    +0.000 N 
ATOM     19  H   UNL     1       3.427   7.973  18.120  0.00  0.00    +0.000 HD
BRANCH  18  20
ATOM     20  C   UNL     1       3.961   5.989  17.984  0.00  0.00    +0.000 A 
ATOM     21  C   UNL     1       3.397   4.725  17.696  0.00  0.00    +0.000 A 
ATOM     22  C   UNL     1       4.034   3.870  16.788  0.00  0.00    +0.000 A 
ATOM     23  C   UNL     1       5.209   4.320  16.222  0.00  0.00    +0.000 A 
ATOM     24  C   UNL     1       5.824   5.480  16.644  0.00  0.00    +0.000 A 
ATOM     25  C   UNL     1       5.234   6.329  17.533  0.00  0.00    +0.000 A 
ATOM     26  O   UNL     1       6.913   5.798  15.886  0.00  0.00    +0.000 OA
ATOM     27  C   UNL     1       6.554   5.031  14.725  0.00  0.00    +0.000 C 
ATOM     28  O   UNL     1       5.803   3.847  15.085  0.00  0.00    +0.000 OA
ENDBRANCH  18  20
ENDBRANCH  15  16
ENDBRANCH   1  15
TORSDOF 5
ENDMDL
MODEL 9
REMARK VINA RESULT:      -7.1      3.946      9.158
REMARK  Name = 
REMARK  6 active torsions:
REMARK  status: ('A' for Active; 'I' for Inactive)
REMARK    1  A    between atoms: C_1  and  C_2
REMARK    2  A    between atoms: C_4  and  S_5
REMARK    3  A    between atoms: S_5  and  C_6
REMARK    4  A    between atoms: C_6  and  C_7
REMARK    5  A    between atoms: N_9  and  C_10
REMARK    6  A    between atoms: C_19  and  C_20
REMARK                            x       y       z     vdW  Elec       q    Type
REMARK                         _______ _______ _______ _____ _____    ______ ____
ROOT
ATOM      1  S   UNL     1       1.893  10.910  18.739  0.00  0.00    +0.000 S 
ENDROOT
BRANCH   1   5
ATOM      2  C   UNL     1       0.049   9.436  23.198  0.00  0.00    +0.000 C 
ATOM      3  C   UNL     1      -0.120  10.441  22.095  0.00  0.00    +0.000 A 
ATOM      4  N   UNL     1       0.746  10.314  21.065  0.00  0.00    +0.000 NA
ATOM      5  C   UNL     1       0.671  11.175  20.027  0.00  0.00    +0.000 A 
ATOM      6  C   UNL     1      -0.289  12.190  19.972  0.00  0.00    +0.000 A 
ATOM      7  C   UNL     1      -1.221  12.302  21.034  0.00  0.00    +0.000 A 
ATOM      8  C   UNL     1      -1.105  11.433  22.138  0.00  0.00    +0.000 A 
ATOM      9  C   UNL     1      -2.045  11.526  23.318  0.00  0.00    +0.000 C 
ATOM     10  C   UNL     1      -2.799  12.849  23.397  0.00  0.00    +0.000 C 
ATOM     11  C   UNL     1      -3.399  13.180  22.042  0.00  0.00    +0.000 C 
ATOM     12  C   UNL     1      -2.288  13.382  21.011  0.00  0.00    +0.000 C 
BRANCH   6  13
ATOM     13  C   UNL     1      -0.334  13.095  18.866  0.00  0.00    +0.000 C 
ATOM     14  N   UNL     1      -0.335  13.841  17.958  0.00  0.00    +0.000 NA
ENDBRANCH   6  13
ENDBRANCH   1   5
BRANCH   1  15
ATOM     15  C   UNL     1       1.371   9.260  18.109  0.00  0.00    +0.000 C 
BRANCH  15  16
ATOM     16  C   UNL     1       2.311   8.120  18.489  0.00  0.00    +0.000 C 
ATOM     17  O   UNL     1       2.273   7.609  19.607  0.00  0.00    +0.000 OA
ATOM     18  N   UNL     1       3.159   7.719  17.491  0.00  0.00    +0.000 N 
ATOM     19  H   UNL     1       3.284   8.381  16.731  0.00  0.00    +0.000 HD
BRANCH  18  20
ATOM     20  C   UNL     1       3.991   6.597  17.478  0.00  0.00    +0.000 A 
ATOM     21  C   UNL     1       3.497   5.276  17.575  0.00  0.00    +0.000 A 
ATOM     22  C   UNL     1       4.272   4.207  17.105  0.00  0.00    +0.000 A 
ATOM     23  C   UNL     1       5.507   4.516  16.571  0.00  0.00    +0.000 A 
ATOM     24  C   UNL     1       6.034   5.788  16.641  0.00  0.00    +0.000 A 
ATOM     25  C   UNL     1       5.308   6.847  17.102  0.00  0.00    +0.000 A 
ATOM     26  O   UNL     1       7.213   5.902  15.964  0.00  0.00    +0.000 OA
ATOM     27  C   UNL     1       7.036   4.765  15.104  0.00  0.00    +0.000 C 
ATOM     28  O   UNL     1       6.263   3.726  15.752  0.00  0.00    +0.000 OA
ENDBRANCH  18  20
ENDBRANCH  15  16
ENDBRANCH   1  15
TORSDOF 5
ENDMDL
