MODEL 1
REMARK VINA RESULT:      -8.4      0.000      0.000
REMARK  Name = 
REMARK  6 active torsions:
REMARK  status: ('A' for Active; 'I' for Inactive)
REMARK    1  A    between atoms: C_1  and  N_2
REMARK    2  A    between atoms: C_4  and  N_5
REMARK    3  A    between atoms: C_9  and  O_10
REMARK    4  A    between atoms: O_10  and  C_11
REMARK    5  A    between atoms: C_13  and  C_14
REMARK    6  A    between atoms: C_14  and  N_15
REMARK                            x       y       z     vdW  Elec       q    Type
REMARK                         _______ _______ _______ _____ _____    ______ ____
ROOT
ATOM      1  N   UNL     1       1.587   8.348  19.949  0.00  0.00    +0.000 N 
ATOM      2  C   UNL     1       1.850   8.919  18.719  0.00  0.00    +0.000 A 
ATOM      3  C   UNL     1       2.461   7.983  17.915  0.00  0.00    +0.000 A 
ATOM      4  C   UNL     1       2.496   6.753  18.629  0.00  0.00    +0.000 A 
ATOM      5  C   UNL     1       2.933   5.444  18.309  0.00  0.00    +0.000 A 
ATOM      6  C   UNL     1       2.810   4.432  19.275  0.00  0.00    +0.000 A 
ATOM      7  C   UNL     1       2.188   4.678  20.493  0.00  0.00    +0.000 A 
ATOM      8  C   UNL     1       1.735   5.955  20.813  0.00  0.00    +0.000 A 
ATOM      9  C   UNL     1       1.931   6.999  19.892  0.00  0.00    +0.000 A 
ENDROOT
BRANCH   1  13
ATOM     10  C   UNL     1      -1.269  11.033  22.968  0.00  0.00    +0.000 C 
ATOM     11  N   UNL     1      -0.202  10.248  22.398  0.00  0.00    +0.000 N 
ATOM     12  C   UNL     1      -0.052   9.879  21.090  0.00  0.00    +0.000 A 
ATOM     13  C   UNL     1       1.045   9.044  21.063  0.00  0.00    +0.000 A 
ATOM     14  C   UNL     1       1.530   9.047  22.386  0.00  0.00    +0.000 A 
ATOM     15  N   UNL     1       0.771   9.783  23.202  0.00  0.00    +0.000 NA
ENDBRANCH   1  13
BRANCH   5  16
ATOM     16  O   UNL     1       3.538   5.213  17.086  0.00  0.00    +0.000 OA
BRANCH  16  17
ATOM     17  C   UNL     1       4.917   5.018  17.059  0.00  0.00    +0.000 A 
ATOM     18  C   UNL     1       5.641   5.633  18.055  0.00  0.00    +0.000 A 
ATOM     19  C   UNL     1       7.015   5.475  17.996  0.00  0.00    +0.000 A 
ATOM     20  N   UNL     1       7.616   4.742  17.032  0.00  0.00    +0.000 NA
ATOM     21  C   UNL     1       6.809   4.190  16.115  0.00  0.00    +0.000 A 
ATOM     22  N   UNL     1       5.479   4.304  16.066  0.00  0.00    +0.000 NA
BRANCH  19  23
ATOM     23  C   UNL     1       7.912   6.176  18.989  0.00  0.00    +0.000 C 
BRANCH  23  24
ATOM     24  N   UNL     1       7.921   5.508  20.293  0.00  0.00    +0.000 NA
ATOM     25  H   UNL     1       7.998   4.502  20.130  0.00  0.00    +0.000 HD
ATOM     26  H   UNL     1       7.014   5.645  20.736  0.00  0.00    +0.000 HD
ENDBRANCH  23  24
ENDBRANCH  19  23
ENDBRANCH  16  17
ENDBRANCH   5  16
TORSDOF 5
ENDMDL
MODEL 2
REMARK VINA RESULT:      -7.9      1.308      2.256
REMARK  Name = 
REMARK  6 active torsions:
REMARK  status: ('A' for Active; 'I' for Inactive)
REMARK    1  A    between atoms: C_1  and  N_2
REMARK    2  A    between atoms: C_4  and  N_5
REMARK    3  A    between atoms: C_9  and  O_10
REMARK    4  A    between atoms: O_10  and  C_11
REMARK    5  A    between atoms: C_13  and  C_14
REMARK    6  A    between atoms: C_14  and  N_15
REMARK                            x       y       z     vdW  Elec       q    Type
REMARK                         _______ _______ _______ _____ _____    ______ ____
ROOT
ATOM      1  N   UNL     1       2.022   7.578  19.575  0.00  0.00    +0.000 N 
ATOM      2  C   UNL     1       2.461   7.778  18.281  0.00  0.00    +0.000 A 
ATOM      3  C   UNL     1       2.999   6.602  17.807  0.00  0.00    +0.000 A 
ATOM      4  C   UNL     1       2.805   5.603  18.801  0.00  0.00    +0.000 A 
ATOM      5  C   UNL     1       3.080   4.215  18.866  0.00  0.00    +0.000 A 
ATOM      6  C   UNL     1       2.740   3.508  20.031  0.00  0.00    +0.000 A 
ATOM      7  C   UNL     1       2.061   4.130  21.071  0.00  0.00    +0.000 A 
ATOM      8  C   UNL     1       1.765   5.490  21.014  0.00  0.00    +0.000 A 
ATOM      9  C   UNL     1       2.179   6.231  19.892  0.00  0.00    +0.000 A 
ENDROOT
BRANCH   1  13
ATOM     10  C   UNL     1      -0.324  11.555  21.355  0.00  0.00    +0.000 C 
ATOM     11  N   UNL     1       0.476  10.364  21.205  0.00  0.00    +0.000 N 
ATOM     12  C   UNL     1       0.841   9.752  20.039  0.00  0.00    +0.000 A 
ATOM     13  C   UNL     1       1.493   8.596  20.414  0.00  0.00    +0.000 A 
ATOM     14  C   UNL     1       1.541   8.652  21.821  0.00  0.00    +0.000 A 
ATOM     15  N   UNL     1       0.922   9.732  22.306  0.00  0.00    +0.000 NA
ENDBRANCH   1  13
BRANCH   5  16
ATOM     16  O   UNL     1       3.744   3.608  17.814  0.00  0.00    +0.000 OA
BRANCH  16  17
ATOM     17  C   UNL     1       5.021   4.063  17.490  0.00  0.00    +0.000 A 
ATOM     18  C   UNL     1       5.300   4.190  16.148  0.00  0.00    +0.000 A 
ATOM     19  C   UNL     1       6.584   4.596  15.829  0.00  0.00    +0.000 A 
ATOM     20  N   UNL     1       7.508   4.875  16.776  0.00  0.00    +0.000 NA
ATOM     21  C   UNL     1       7.123   4.715  18.049  0.00  0.00    +0.000 A 
ATOM     22  N   UNL     1       5.921   4.303  18.461  0.00  0.00    +0.000 NA
BRANCH  19  23
ATOM     23  C   UNL     1       7.026   4.687  14.387  0.00  0.00    +0.000 C 
BRANCH  23  24
ATOM     24  N   UNL     1       6.417   3.643  13.557  0.00  0.00    +0.000 NA
ATOM     25  H   UNL     1       6.525   2.752  14.045  0.00  0.00    +0.000 HD
ATOM     26  H   UNL     1       6.957   3.553  12.699  0.00  0.00    +0.000 HD
ENDBRANCH  23  24
ENDBRANCH  19  23
ENDBRANCH  16  17
ENDBRANCH   5  16
TORSDOF 5
ENDMDL
MODEL 3
REMARK VINA RESULT:      -7.6      1.067      1.354
REMARK  Name = 
REMARK  6 active torsions:
REMARK  status: ('A' for Active; 'I' for Inactive)
REMARK    1  A    between atoms: C_1  and  N_2
REMARK    2  A    between atoms: C_4  and  N_5
REMARK    3  A    between atoms: C_9  and  O_10
REMARK    4  A    between atoms: O_10  and  C_11
REMARK    5  A    between atoms: C_13  and  C_14
REMARK    6  A    between atoms: C_14  and  N_15
REMARK                            x       y       z     vdW  Elec       q    Type
REMARK                         _______ _______ _______ _____ _____    ______ ____
ROOT
ATOM      1  N   UNL     1       2.045   7.375  19.453  0.00  0.00    +0.000 N 
ATOM      2  C   UNL     1       2.552   7.642  18.196  0.00  0.00    +0.000 A 
ATOM      3  C   UNL     1       3.206   6.523  17.733  0.00  0.00    +0.000 A 
ATOM      4  C   UNL     1       3.022   5.485  18.689  0.00  0.00    +0.000 A 
ATOM      5  C   UNL     1       3.395   4.120  18.740  0.00  0.00    +0.000 A 
ATOM      6  C   UNL     1       3.033   3.357  19.862  0.00  0.00    +0.000 A 
ATOM      7  C   UNL     1       2.242   3.898  20.868  0.00  0.00    +0.000 A 
ATOM      8  C   UNL     1       1.850   5.234  20.822  0.00  0.00    +0.000 A 
ATOM      9  C   UNL     1       2.280   6.034  19.748  0.00  0.00    +0.000 A 
ENDROOT
BRANCH   1  13
ATOM     10  C   UNL     1      -0.057   9.762  23.244  0.00  0.00    +0.000 C 
ATOM     11  N   UNL     1       0.438   9.381  21.943  0.00  0.00    +0.000 N 
ATOM     12  C   UNL     1       0.938   8.165  21.571  0.00  0.00    +0.000 A 
ATOM     13  C   UNL     1       1.387   8.328  20.277  0.00  0.00    +0.000 A 
ATOM     14  C   UNL     1       1.031   9.648  19.938  0.00  0.00    +0.000 A 
ATOM     15  N   UNL     1       0.449  10.292  20.953  0.00  0.00    +0.000 NA
ENDBRANCH   1  13
BRANCH   5  16
ATOM     16  O   UNL     1       4.171   3.592  17.722  0.00  0.00    +0.000 OA
BRANCH  16  17
ATOM     17  C   UNL     1       5.345   4.258  17.374  0.00  0.00    +0.000 A 
ATOM     18  C   UNL     1       6.121   4.712  18.417  0.00  0.00    +0.000 A 
ATOM     19  C   UNL     1       7.262   5.413  18.067  0.00  0.00    +0.000 A 
ATOM     20  N   UNL     1       7.611   5.624  16.778  0.00  0.00    +0.000 NA
ATOM     21  C   UNL     1       6.779   5.136  15.848  0.00  0.00    +0.000 A 
ATOM     22  N   UNL     1       5.643   4.472  16.079  0.00  0.00    +0.000 NA
BRANCH  19  23
ATOM     23  C   UNL     1       8.141   6.030  19.129  0.00  0.00    +0.000 C 
BRANCH  23  24
ATOM     24  N   UNL     1       7.955   5.394  20.437  0.00  0.00    +0.000 NA
ATOM     25  H   UNL     1       8.165   4.400  20.335  0.00  0.00    +0.000 HD
ATOM     26  H   UNL     1       6.968   5.442  20.685  0.00  0.00    +0.000 HD
ENDBRANCH  23  24
ENDBRANCH  19  23
ENDBRANCH  16  17
ENDBRANCH   5  16
TORSDOF 5
ENDMDL
MODEL 4
REMARK VINA RESULT:      -7.6      3.381      7.993
REMARK  Name = 
REMARK  6 active torsions:
REMARK  status: ('A' for Active; 'I' for Inactive)
REMARK    1  A    between atoms: C_1  and  N_2
REMARK    2  A    between atoms: C_4  and  N_5
REMARK    3  A    between atoms: C_9  and  O_10
REMARK    4  A    between atoms: O_10  and  C_11
REMARK    5  A    between atoms: C_13  and  C_14
REMARK    6  A    between atoms: C_14  and  N_15
REMARK                            x       y       z     vdW  Elec       q    Type
REMARK                         _______ _______ _______ _____ _____    ______ ____
ROOT
ATOM      1  N   UNL     1       3.037   6.637  18.660  0.00  0.00    +0.000 N 
ATOM      2  C   UNL     1       3.337   7.453  17.587  0.00  0.00    +0.000 A 
ATOM      3  C   UNL     1       2.607   8.616  17.696  0.00  0.00    +0.000 A 
ATOM      4  C   UNL     1       1.898   8.571  18.928  0.00  0.00    +0.000 A 
ATOM      5  C   UNL     1       1.051   9.480  19.608  0.00  0.00    +0.000 A 
ATOM      6  C   UNL     1       0.510   9.108  20.849  0.00  0.00    +0.000 A 
ATOM      7  C   UNL     1       0.866   7.907  21.452  0.00  0.00    +0.000 A 
ATOM      8  C   UNL     1       1.713   7.012  20.805  0.00  0.00    +0.000 A 
ATOM      9  C   UNL     1       2.192   7.332  19.522  0.00  0.00    +0.000 A 
ENDROOT
BRANCH   1  13
ATOM     10  C   UNL     1       3.630   1.724  18.655  0.00  0.00    +0.000 C 
ATOM     11  N   UNL     1       3.793   3.143  18.852  0.00  0.00    +0.000 N 
ATOM     12  C   UNL     1       2.876   4.125  18.600  0.00  0.00    +0.000 A 
ATOM     13  C   UNL     1       3.533   5.315  18.832  0.00  0.00    +0.000 A 
ATOM     14  C   UNL     1       4.806   4.936  19.301  0.00  0.00    +0.000 A 
ATOM     15  N   UNL     1       4.966   3.611  19.315  0.00  0.00    +0.000 NA
ENDBRANCH   1  13
BRANCH   5  16
ATOM     16  O   UNL     1       0.718  10.678  19.000  0.00  0.00    +0.000 OA
BRANCH  16  17
ATOM     17  C   UNL     1      -0.626  10.930  18.731  0.00  0.00    +0.000 A 
ATOM     18  C   UNL     1      -1.145  10.337  17.602  0.00  0.00    +0.000 A 
ATOM     19  C   UNL     1      -2.466  10.629  17.314  0.00  0.00    +0.000 A 
ATOM     20  N   UNL     1      -3.217  11.430  18.103  0.00  0.00    +0.000 NA
ATOM     21  C   UNL     1      -2.605  11.952  19.175  0.00  0.00    +0.000 A 
ATOM     22  N   UNL     1      -1.331  11.756  19.526  0.00  0.00    +0.000 NA
BRANCH  19  23
ATOM     23  C   UNL     1      -3.112  10.101  16.054  0.00  0.00    +0.000 C 
BRANCH  23  24
ATOM     24  N   UNL     1      -3.316  11.155  15.056  0.00  0.00    +0.000 NA
ATOM     25  H   UNL     1      -2.970  12.032  15.450  0.00  0.00    +0.000 HD
ATOM     26  H   UNL     1      -4.317  11.289  14.923  0.00  0.00    +0.000 HD
ENDBRANCH  23  24
ENDBRANCH  19  23
ENDBRANCH  16  17
ENDBRANCH   5  16
TORSDOF 5
ENDMDL
MODEL 5
REMARK VINA RESULT:      -7.4      3.484      8.108
REMARK  Name = 
REMARK  6 active torsions:
REMARK  status: ('A' for Active; 'I' for Inactive)
REMARK    1  A    between atoms: C_1  and  N_2
REMARK    2  A    between atoms: C_4  and  N_5
REMARK    3  A    between atoms: C_9  and  O_10
REMARK    4  A    between atoms: O_10  and  C_11
REMARK    5  A    between atoms: C_13  and  C_14
REMARK    6  A    between atoms: C_14  and  N_15
REMARK                            x       y       z     vdW  Elec       q    Type
REMARK                         _______ _______ _______ _____ _____    ______ ____
ROOT
ATOM      1  N   UNL     1       2.926   7.026  18.801  0.00  0.00    +0.000 N 
ATOM      2  C   UNL     1       3.116   7.774  17.656  0.00  0.00    +0.000 A 
ATOM      3  C   UNL     1       2.265   8.856  17.686  0.00  0.00    +0.000 A 
ATOM      4  C   UNL     1       1.587   8.842  18.936  0.00  0.00    +0.000 A 
ATOM      5  C   UNL     1       0.657   9.711  19.559  0.00  0.00    +0.000 A 
ATOM      6  C   UNL     1       0.181   9.391  20.841  0.00  0.00    +0.000 A 
ATOM      7  C   UNL     1       0.677   8.293  21.533  0.00  0.00    +0.000 A 
ATOM      8  C   UNL     1       1.606   7.441  20.941  0.00  0.00    +0.000 A 
ATOM      9  C   UNL     1       2.025   7.698  19.624  0.00  0.00    +0.000 A 
ENDROOT
BRANCH   1  13
ATOM     10  C   UNL     1       3.925   2.245  19.595  0.00  0.00    +0.000 C 
ATOM     11  N   UNL     1       4.012   3.677  19.443  0.00  0.00    +0.000 N 
ATOM     12  C   UNL     1       2.978   4.559  19.299  0.00  0.00    +0.000 A 
ATOM     13  C   UNL     1       3.566   5.786  19.070  0.00  0.00    +0.000 A 
ATOM     14  C   UNL     1       4.950   5.547  19.183  0.00  0.00    +0.000 A 
ATOM     15  N   UNL     1       5.224   4.260  19.412  0.00  0.00    +0.000 NA
ENDBRANCH   1  13
BRANCH   5  16
ATOM     16  O   UNL     1       0.185  10.808  18.861  0.00  0.00    +0.000 OA
BRANCH  16  17
ATOM     17  C   UNL     1      -1.093  10.740  18.309  0.00  0.00    +0.000 A 
ATOM     18  C   UNL     1      -2.060  11.510  18.911  0.00  0.00    +0.000 A 
ATOM     19  C   UNL     1      -3.338  11.403  18.389  0.00  0.00    +0.000 A 
ATOM     20  N   UNL     1      -3.621  10.606  17.335  0.00  0.00    +0.000 NA
ATOM     21  C   UNL     1      -2.598   9.902  16.830  0.00  0.00    +0.000 A 
ATOM     22  N   UNL     1      -1.339   9.912  17.276  0.00  0.00    +0.000 NA
BRANCH  19  23
ATOM     23  C   UNL     1      -4.493  12.139  19.027  0.00  0.00    +0.000 C 
BRANCH  23  24
ATOM     24  N   UNL     1      -5.401  12.711  18.029  0.00  0.00    +0.000 NA
ATOM     25  H   UNL     1      -5.256  12.212  17.150  0.00  0.00    +0.000 HD
ATOM     26  H   UNL     1      -5.121  13.673  17.848  0.00  0.00    +0.000 HD
ENDBRANCH  23  24
ENDBRANCH  19  23
ENDBRANCH  16  17
ENDBRANCH   5  16
TORSDOF 5
ENDMDL
MODEL 6
REMARK VINA RESULT:      -7.4      1.431      2.285
REMARK  Name = 
REMARK  6 active torsions:
REMARK  status: ('A' for Active; 'I' for Inactive)
REMARK    1  A    between atoms: C_1  and  N_2
REMARK    2  A    between atoms: C_4  and  N_5
REMARK    3  A    between atoms: C_9  and  O_10
REMARK    4  A    between atoms: O_10  and  C_11
REMARK    5  A    between atoms: C_13  and  C_14
REMARK    6  A    between atoms: C_14  and  N_15
REMARK                            x       y       z     vdW  Elec       q    Type
REMARK                         _______ _______ _______ _____ _____    ______ ____
ROOT
ATOM      1  N   UNL     1       1.097   9.428  20.017  0.00  0.00    +0.000 N 
ATOM      2  C   UNL     1       1.277  10.170  18.866  0.00  0.00    +0.000 A 
ATOM      3  C   UNL     1       2.057   9.450  17.990  0.00  0.00    +0.000 A 
ATOM      4  C   UNL     1       2.295   8.172  18.569  0.00  0.00    +0.000 A 
ATOM      5  C   UNL     1       2.961   7.002  18.127  0.00  0.00    +0.000 A 
ATOM      6  C   UNL     1       3.001   5.883  18.974  0.00  0.00    +0.000 A 
ATOM      7  C   UNL     1       2.324   5.880  20.187  0.00  0.00    +0.000 A 
ATOM      8  C   UNL     1       1.649   7.016  20.626  0.00  0.00    +0.000 A 
ATOM      9  C   UNL     1       1.674   8.174  19.829  0.00  0.00    +0.000 A 
ENDROOT
BRANCH   1  13
ATOM     10  C   UNL     1      -1.990  11.675  23.166  0.00  0.00    +0.000 C 
ATOM     11  N   UNL     1      -0.926  10.898  22.578  0.00  0.00    +0.000 N 
ATOM     12  C   UNL     1      -0.554  10.862  21.263  0.00  0.00    +0.000 A 
ATOM     13  C   UNL     1       0.422   9.892  21.179  0.00  0.00    +0.000 A 
ATOM     14  C   UNL     1       0.623   9.470  22.508  0.00  0.00    +0.000 A 
ATOM     15  N   UNL     1      -0.197  10.084  23.364  0.00  0.00    +0.000 NA
ENDBRANCH   1  13
BRANCH   5  16
ATOM     16  O   UNL     1       3.618   7.017  16.909  0.00  0.00    +0.000 OA
BRANCH  16  17
ATOM     17  C   UNL     1       4.913   6.508  16.852  0.00  0.00    +0.000 A 
ATOM     18  C   UNL     1       5.295   5.944  15.656  0.00  0.00    +0.000 A 
ATOM     19  C   UNL     1       6.566   5.397  15.618  0.00  0.00    +0.000 A 
ATOM     20  N   UNL     1       7.397   5.431  16.684  0.00  0.00    +0.000 NA
ATOM     21  C   UNL     1       6.917   6.005  17.796  0.00  0.00    +0.000 A 
ATOM     22  N   UNL     1       5.700   6.536  17.944  0.00  0.00    +0.000 NA
BRANCH  19  23
ATOM     23  C   UNL     1       7.056   4.676  14.384  0.00  0.00    +0.000 C 
BRANCH  23  24
ATOM     24  N   UNL     1       7.907   5.529  13.549  0.00  0.00    +0.000 NA
ATOM     25  H   UNL     1       7.397   6.394  13.362  0.00  0.00    +0.000 HD
ATOM     26  H   UNL     1       8.029   5.081  12.643  0.00  0.00    +0.000 HD
ENDBRANCH  23  24
ENDBRANCH  19  23
ENDBRANCH  16  17
ENDBRANCH   5  16
TORSDOF 5
ENDMDL
MODEL 7
REMARK VINA RESULT:      -7.4      3.072      4.561
REMARK  Name = 
REMARK  6 active torsions:
REMARK  status: ('A' for Active; 'I' for Inactive)
REMARK    1  A    between atoms: C_1  and  N_2
REMARK    2  A    between atoms: C_4  and  N_5
REMARK    3  A    between atoms: C_9  and  O_10
REMARK    4  A    between atoms: O_10  and  C_11
REMARK    5  A    between atoms: C_13  and  C_14
REMARK    6  A    between atoms: C_14  and  N_15
REMARK                            x       y       z     vdW  Elec       q    Type
REMARK                         _______ _______ _______ _____ _____    ______ ____
ROOT
ATOM      1  N   UNL     1       0.573   9.982  20.102  0.00  0.00    +0.000 N 
ATOM      2  C   UNL     1       0.469   9.484  21.386  0.00  0.00    +0.000 A 
ATOM      3  C   UNL     1       1.076   8.249  21.434  0.00  0.00    +0.000 A 
ATOM      4  C   UNL     1       1.668   8.005  20.163  0.00  0.00    +0.000 A 
ATOM      5  C   UNL     1       2.463   6.960  19.635  0.00  0.00    +0.000 A 
ATOM      6  C   UNL     1       2.898   7.043  18.302  0.00  0.00    +0.000 A 
ATOM      7  C   UNL     1       2.636   8.171  17.535  0.00  0.00    +0.000 A 
ATOM      8  C   UNL     1       1.872   9.217  18.047  0.00  0.00    +0.000 A 
ATOM      9  C   UNL     1       1.354   9.108  19.350  0.00  0.00    +0.000 A 
ENDROOT
BRANCH   1  13
ATOM     10  C   UNL     1      -0.347  14.712  18.971  0.00  0.00    +0.000 C 
ATOM     11  N   UNL     1      -0.442  13.286  19.172  0.00  0.00    +0.000 N 
ATOM     12  C   UNL     1       0.441  12.482  19.837  0.00  0.00    +0.000 A 
ATOM     13  C   UNL     1      -0.020  11.195  19.656  0.00  0.00    +0.000 A 
ATOM     14  C   UNL     1      -1.228  11.343  18.946  0.00  0.00    +0.000 A 
ATOM     15  N   UNL     1      -1.488  12.620  18.652  0.00  0.00    +0.000 NA
ENDBRANCH   1  13
BRANCH   5  16
ATOM     16  O   UNL     1       2.728   5.849  20.418  0.00  0.00    +0.000 OA
BRANCH  16  17
ATOM     17  C   UNL     1       2.271   4.608  19.978  0.00  0.00    +0.000 A 
ATOM     18  C   UNL     1       3.141   3.879  19.200  0.00  0.00    +0.000 A 
ATOM     19  C   UNL     1       2.666   2.668  18.727  0.00  0.00    +0.000 A 
ATOM     20  N   UNL     1       1.429   2.212  19.026  0.00  0.00    +0.000 NA
ATOM     21  C   UNL     1       0.670   3.009  19.792  0.00  0.00    +0.000 A 
ATOM     22  N   UNL     1       1.022   4.203  20.275  0.00  0.00    +0.000 NA
BRANCH  19  23
ATOM     23  C   UNL     1       3.505   1.825  17.794  0.00  0.00    +0.000 C 
BRANCH  23  24
ATOM     24  N   UNL     1       4.096   0.670  18.476  0.00  0.00    +0.000 NA
ATOM     25  H   UNL     1       4.784   0.252  17.847  0.00  0.00    +0.000 HD
ATOM     26  H   UNL     1       3.375  -0.038  18.603  0.00  0.00    +0.000 HD
ENDBRANCH  23  24
ENDBRANCH  19  23
ENDBRANCH  16  17
ENDBRANCH   5  16
TORSDOF 5
ENDMDL
MODEL 8
REMARK VINA RESULT:      -7.3      1.261      2.205
REMARK  Name = 
REMARK  6 active torsions:
REMARK  status: ('A' for Active; 'I' for Inactive)
REMARK    1  A    between atoms: C_1  and  N_2
REMARK    2  A    between atoms: C_4  and  N_5
REMARK    3  A    between atoms: C_9  and  O_10
REMARK    4  A    between atoms: O_10  and  C_11
REMARK    5  A    between atoms: C_13  and  C_14
REMARK    6  A    between atoms: C_14  and  N_15
REMARK                            x       y       z     vdW  Elec       q    Type
REMARK                         _______ _______ _______ _____ _____    ______ ____
ROOT
ATOM      1  N   UNL     1       1.438   8.631  19.481  0.00  0.00    +0.000 N 
ATOM      2  C   UNL     1       1.649   8.915  18.146  0.00  0.00    +0.000 A 
ATOM      3  C   UNL     1       2.269   7.837  17.556  0.00  0.00    +0.000 A 
ATOM      4  C   UNL     1       2.363   6.802  18.528  0.00  0.00    +0.000 A 
ATOM      5  C   UNL     1       2.833   5.467  18.499  0.00  0.00    +0.000 A 
ATOM      6  C   UNL     1       2.769   4.697  19.672  0.00  0.00    +0.000 A 
ATOM      7  C   UNL     1       2.171   5.198  20.822  0.00  0.00    +0.000 A 
ATOM      8  C   UNL     1       1.686   6.502  20.860  0.00  0.00    +0.000 A 
ATOM      9  C   UNL     1       1.824   7.314  19.720  0.00  0.00    +0.000 A 
ENDROOT
BRANCH   1  13
ATOM     10  C   UNL     1      -1.021  10.737  23.224  0.00  0.00    +0.000 C 
ATOM     11  N   UNL     1      -0.197  10.490  22.066  0.00  0.00    +0.000 N 
ATOM     12  C   UNL     1      -0.086   9.325  21.361  0.00  0.00    +0.000 A 
ATOM     13  C   UNL     1       0.903   9.549  20.426  0.00  0.00    +0.000 A 
ATOM     14  C   UNL     1       1.257  10.901  20.597  0.00  0.00    +0.000 A 
ATOM     15  N   UNL     1       0.585  11.478  21.596  0.00  0.00    +0.000 NA
ENDBRANCH   1  13
BRANCH   5  16
ATOM     16  O   UNL     1       3.413   4.979  17.341  0.00  0.00    +0.000 OA
BRANCH  16  17
ATOM     17  C   UNL     1       4.723   5.356  17.049  0.00  0.00    +0.000 A 
ATOM     18  C   UNL     1       5.215   4.955  15.828  0.00  0.00    +0.000 A 
ATOM     19  C   UNL     1       6.532   5.291  15.562  0.00  0.00    +0.000 A 
ATOM     20  N   UNL     1       7.288   5.991  16.437  0.00  0.00    +0.000 NA
ATOM     21  C   UNL     1       6.702   6.327  17.594  0.00  0.00    +0.000 A 
ATOM     22  N   UNL     1       5.451   6.029  17.959  0.00  0.00    +0.000 NA
BRANCH  19  23
ATOM     23  C   UNL     1       7.201   4.828  14.288  0.00  0.00    +0.000 C 
BRANCH  23  24
ATOM     24  N   UNL     1       6.493   3.702  13.672  0.00  0.00    +0.000 NA
ATOM     25  H   UNL     1       5.689   3.477  14.260  0.00  0.00    +0.000 HD
ATOM     26  H   UNL     1       7.095   2.882  13.704  0.00  0.00    +0.000 HD
ENDBRANCH  23  24
ENDBRANCH  19  23
ENDBRANCH  16  17
ENDBRANCH   5  16
TORSDOF 5
ENDMDL
MODEL 9
REMARK VINA RESULT:      -7.2      2.455      4.131
REMARK  Name = 
REMARK  6 active torsions:
REMARK  status: ('A' for Active; 'I' for Inactive)
REMARK    1  A    between atoms: C_1  and  N_2
REMARK    2  A    between atoms: C_4  and  N_5
REMARK    3  A    between atoms: C_9  and  O_10
REMARK    4  A    between atoms: O_10  and  C_11
REMARK    5  A    between atoms: C_13  and  C_14
REMARK    6  A    between atoms: C_14  and  N_15
REMARK                            x       y       z     vdW  Elec       q    Type
REMARK                         _______ _______ _______ _____ _____    ______ ____
ROOT
ATOM      1  N   UNL     1       3.315   7.361  17.935  0.00  0.00    +0.000 N 
ATOM      2  C   UNL     1       4.510   7.856  17.449  0.00  0.00    +0.000 A 
ATOM      3  C   UNL     1       5.313   6.799  17.085  0.00  0.00    +0.000 A 
ATOM      4  C   UNL     1       4.563   5.603  17.256  0.00  0.00    +0.000 A 
ATOM      5  C   UNL     1       4.822   4.235  16.995  0.00  0.00    +0.000 A 
ATOM      6  C   UNL     1       3.826   3.287  17.284  0.00  0.00    +0.000 A 
ATOM      7  C   UNL     1       2.572   3.683  17.731  0.00  0.00    +0.000 A 
ATOM      8  C   UNL     1       2.296   5.026  17.974  0.00  0.00    +0.000 A 
ATOM      9  C   UNL     1       3.312   5.978  17.774  0.00  0.00    +0.000 A 
ENDROOT
BRANCH   1  13
ATOM     10  C   UNL     1      -0.464  10.486  18.604  0.00  0.00    +0.000 C 
ATOM     11  N   UNL     1       0.621   9.554  18.796  0.00  0.00    +0.000 N 
ATOM     12  C   UNL     1       1.519   9.124  17.861  0.00  0.00    +0.000 A 
ATOM     13  C   UNL     1       2.278   8.159  18.490  0.00  0.00    +0.000 A 
ATOM     14  C   UNL     1       1.813   8.149  19.820  0.00  0.00    +0.000 A 
ATOM     15  N   UNL     1       0.802   9.001  20.009  0.00  0.00    +0.000 NA
ENDBRANCH   1  13
BRANCH   5  16
ATOM     16  O   UNL     1       6.072   3.859  16.535  0.00  0.00    +0.000 OA
BRANCH  16  17
ATOM     17  C   UNL     1       6.397   4.132  15.208  0.00  0.00    +0.000 A 
ATOM     18  C   UNL     1       5.695   3.434  14.252  0.00  0.00    +0.000 A 
ATOM     19  C   UNL     1       6.054   3.673  12.937  0.00  0.00    +0.000 A 
ATOM     20  N   UNL     1       7.021   4.557  12.603  0.00  0.00    +0.000 NA
ATOM     21  C   UNL     1       7.636   5.178  13.618  0.00  0.00    +0.000 A 
ATOM     22  N   UNL     1       7.385   4.999  14.918  0.00  0.00    +0.000 NA
BRANCH  19  23
ATOM     23  C   UNL     1       5.408   2.898  11.811  0.00  0.00    +0.000 C 
BRANCH  23  24
ATOM     24  N   UNL     1       6.106   1.639  11.537  0.00  0.00    +0.000 NA
ATOM     25  H   UNL     1       6.130   1.508  10.524  0.00  0.00    +0.000 HD
ATOM     26  H   UNL     1       5.546   0.870  11.900  0.00  0.00    +0.000 HD
ENDBRANCH  23  24
ENDBRANCH  19  23
ENDBRANCH  16  17
ENDBRANCH   5  16
TORSDOF 5
ENDMDL
