MODEL 1
REMARK VINA RESULT:      -8.9      0.000      0.000
REMARK  Name = 
REMARK  5 active torsions:
REMARK  status: ('A' for Active; 'I' for Inactive)
REMARK    1  A    between atoms: C_1  and  C_2
REMARK    2  A    between atoms: C_2  and  C_3
REMARK    3  A    between atoms: C_7  and  C_8
REMARK    4  A    between atoms: C_15  and  N_16
REMARK    5  A    between atoms: C_23  and  O_24
REMARK                            x       y       z     vdW  Elec       q    Type
REMARK                         _______ _______ _______ _____ _____    ______ ____
ROOT
ATOM      1  C   UNL     1       2.035   2.684  21.866  0.00  0.00    +0.000 C 
ATOM      2  C   UNL     1       2.065   3.618  20.641  0.00  0.00    +0.000 C 
ATOM      3  C   UNL     1       0.959   3.148  19.680  0.00  0.00    +0.000 C 
ATOM      4  O   UNL     1       1.753   4.946  21.121  0.00  0.00    +0.000 OA
ATOM      5  C   UNL     1       2.017   5.976  20.256  0.00  0.00    +0.000 A 
ATOM      6  C   UNL     1       1.430   7.205  20.569  0.00  0.00    +0.000 A 
ATOM      7  C   UNL     1       1.592   8.316  19.723  0.00  0.00    +0.000 A 
ATOM      8  C   UNL     1       2.342   8.169  18.547  0.00  0.00    +0.000 A 
ATOM      9  C   UNL     1       2.940   6.950  18.247  0.00  0.00    +0.000 A 
ATOM     10  C   UNL     1       2.821   5.859  19.119  0.00  0.00    +0.000 A 
ATOM     11  C   UNL     1       3.518   4.558  18.809  0.00  0.00    +0.000 C 
ATOM     12  C   UNL     1       3.486   3.599  20.022  0.00  0.00    +0.000 C 
ENDROOT
BRANCH  11  13
ATOM     13  N   UNL     1       4.885   4.765  18.282  0.00  0.00    +0.000 N 
ATOM     14  C   UNL     1       5.945   5.131  19.226  0.00  0.00    +0.000 C 
ATOM     15  C   UNL     1       7.158   5.730  18.537  0.00  0.00    +0.000 C 
ATOM     16  C   UNL     1       7.632   4.755  17.475  0.00  0.00    +0.000 C 
ATOM     17  C   UNL     1       6.539   4.557  16.442  0.00  0.00    +0.000 C 
ATOM     18  C   UNL     1       5.168   4.263  17.019  0.00  0.00    +0.000 C 
ATOM     19  O   UNL     1       4.314   3.708  16.323  0.00  0.00    +0.000 OA
ENDBRANCH  11  13
BRANCH   7  20
ATOM     20  C   UNL     1       0.969   9.649  20.046  0.00  0.00    +0.000 C 
ATOM     21  F   UNL     1       1.203  10.070  21.322  0.00  0.00    +0.000 F 
ATOM     22  F   UNL     1       1.426  10.644  19.238  0.00  0.00    +0.000 F 
ATOM     23  F   UNL     1      -0.385   9.641  19.897  0.00  0.00    +0.000 F 
ENDBRANCH   7  20
BRANCH  12  24
ATOM     24  O   UNL     1       3.893   2.268  19.675  0.00  0.00    +0.000 OA
ATOM     25  H   UNL     1       3.148   1.660  19.851  0.00  0.00    +0.000 HD
ENDBRANCH  12  24
TORSDOF 3
ENDMDL
MODEL 2
REMARK VINA RESULT:      -8.1      0.874      1.595
REMARK  Name = 
REMARK  5 active torsions:
REMARK  status: ('A' for Active; 'I' for Inactive)
REMARK    1  A    between atoms: C_1  and  C_2
REMARK    2  A    between atoms: C_2  and  C_3
REMARK    3  A    between atoms: C_7  and  C_8
REMARK    4  A    between atoms: C_15  and  N_16
REMARK    5  A    between atoms: C_23  and  O_24
REMARK                            x       y       z     vdW  Elec       q    Type
REMARK                         _______ _______ _______ _____ _____    ______ ____
ROOT
ATOM      1  C   UNL     1       2.244   2.635  21.774  0.00  0.00    +0.000 C 
ATOM      2  C   UNL     1       2.165   3.509  20.509  0.00  0.00    +0.000 C 
ATOM      3  C   UNL     1       0.946   3.033  19.699  0.00  0.00    +0.000 C 
ATOM      4  O   UNL     1       1.947   4.868  20.953  0.00  0.00    +0.000 OA
ATOM      5  C   UNL     1       2.143   5.847  20.014  0.00  0.00    +0.000 A 
ATOM      6  C   UNL     1       1.630   7.109  20.328  0.00  0.00    +0.000 A 
ATOM      7  C   UNL     1       1.729   8.174  19.416  0.00  0.00    +0.000 A 
ATOM      8  C   UNL     1       2.339   7.947  18.173  0.00  0.00    +0.000 A 
ATOM      9  C   UNL     1       2.865   6.696  17.870  0.00  0.00    +0.000 A 
ATOM     10  C   UNL     1       2.812   5.651  18.804  0.00  0.00    +0.000 A 
ATOM     11  C   UNL     1       3.433   4.313  18.484  0.00  0.00    +0.000 C 
ATOM     12  C   UNL     1       3.508   3.413  19.739  0.00  0.00    +0.000 C 
ENDROOT
BRANCH  11  13
ATOM     13  N   UNL     1       4.739   4.449  17.801  0.00  0.00    +0.000 N 
ATOM     14  C   UNL     1       4.773   4.328  16.340  0.00  0.00    +0.000 C 
ATOM     15  C   UNL     1       6.169   4.050  15.811  0.00  0.00    +0.000 C 
ATOM     16  C   UNL     1       7.099   5.131  16.331  0.00  0.00    +0.000 C 
ATOM     17  C   UNL     1       7.139   5.082  17.847  0.00  0.00    +0.000 C 
ATOM     18  C   UNL     1       5.778   5.028  18.514  0.00  0.00    +0.000 C 
ATOM     19  O   UNL     1       5.657   5.377  19.692  0.00  0.00    +0.000 OA
ENDBRANCH  11  13
BRANCH   7  20
ATOM     20  C   UNL     1       1.184   9.541  19.738  0.00  0.00    +0.000 C 
ATOM     21  F   UNL     1       1.740  10.542  18.997  0.00  0.00    +0.000 F 
ATOM     22  F   UNL     1      -0.157   9.626  19.530  0.00  0.00    +0.000 F 
ATOM     23  F   UNL     1       1.383   9.886  21.041  0.00  0.00    +0.000 F 
ENDBRANCH   7  20
BRANCH  12  24
ATOM     24  O   UNL     1       3.835   2.054  19.417  0.00  0.00    +0.000 OA
ATOM     25  H   UNL     1       3.796   1.947  18.446  0.00  0.00    +0.000 HD
ENDBRANCH  12  24
TORSDOF 3
ENDMDL
MODEL 3
REMARK VINA RESULT:      -8.1      4.995      7.235
REMARK  Name = 
REMARK  5 active torsions:
REMARK  status: ('A' for Active; 'I' for Inactive)
REMARK    1  A    between atoms: C_1  and  C_2
REMARK    2  A    between atoms: C_2  and  C_3
REMARK    3  A    between atoms: C_7  and  C_8
REMARK    4  A    between atoms: C_15  and  N_16
REMARK    5  A    between atoms: C_23  and  O_24
REMARK                            x       y       z     vdW  Elec       q    Type
REMARK                         _______ _______ _______ _____ _____    ______ ____
ROOT
ATOM      1  C   UNL     1       8.264   5.841  18.954  0.00  0.00    +0.000 C 
ATOM      2  C   UNL     1       7.113   5.815  17.930  0.00  0.00    +0.000 C 
ATOM      3  C   UNL     1       6.757   7.277  17.605  0.00  0.00    +0.000 C 
ATOM      4  O   UNL     1       7.625   5.169  16.742  0.00  0.00    +0.000 OA
ATOM      5  C   UNL     1       6.691   4.774  15.820  0.00  0.00    +0.000 A 
ATOM      6  C   UNL     1       7.179   4.455  14.550  0.00  0.00    +0.000 A 
ATOM      7  C   UNL     1       6.303   4.088  13.514  0.00  0.00    +0.000 A 
ATOM      8  C   UNL     1       4.923   4.062  13.770  0.00  0.00    +0.000 A 
ATOM      9  C   UNL     1       4.442   4.363  15.038  0.00  0.00    +0.000 A 
ATOM     10  C   UNL     1       5.322   4.677  16.084  0.00  0.00    +0.000 A 
ATOM     11  C   UNL     1       4.791   4.950  17.469  0.00  0.00    +0.000 C 
ATOM     12  C   UNL     1       5.933   4.995  18.511  0.00  0.00    +0.000 C 
ENDROOT
BRANCH  11  13
ATOM     13  N   UNL     1       3.708   4.016  17.850  0.00  0.00    +0.000 N 
ATOM     14  C   UNL     1       4.077   2.664  18.278  0.00  0.00    +0.000 C 
ATOM     15  C   UNL     1       2.909   1.694  18.216  0.00  0.00    +0.000 C 
ATOM     16  C   UNL     1       1.766   2.275  19.029  0.00  0.00    +0.000 C 
ATOM     17  C   UNL     1       1.329   3.595  18.424  0.00  0.00    +0.000 C 
ATOM     18  C   UNL     1       2.461   4.559  18.125  0.00  0.00    +0.000 C 
ATOM     19  O   UNL     1       2.227   5.766  18.013  0.00  0.00    +0.000 OA
ENDBRANCH  11  13
BRANCH   7  20
ATOM     20  C   UNL     1       6.811   3.736  12.140  0.00  0.00    +0.000 C 
ATOM     21  F   UNL     1       7.577   2.609  12.110  0.00  0.00    +0.000 F 
ATOM     22  F   UNL     1       5.802   3.523  11.253  0.00  0.00    +0.000 F 
ATOM     23  F   UNL     1       7.578   4.724  11.601  0.00  0.00    +0.000 F 
ENDBRANCH   7  20
BRANCH  12  24
ATOM     24  O   UNL     1       5.499   5.518  19.774  0.00  0.00    +0.000 OA
ATOM     25  H   UNL     1       6.284   5.659  20.338  0.00  0.00    +0.000 HD
ENDBRANCH  12  24
TORSDOF 3
ENDMDL
MODEL 4
REMARK VINA RESULT:      -7.6      1.569      4.339
REMARK  Name = 
REMARK  5 active torsions:
REMARK  status: ('A' for Active; 'I' for Inactive)
REMARK    1  A    between atoms: C_1  and  C_2
REMARK    2  A    between atoms: C_2  and  C_3
REMARK    3  A    between atoms: C_7  and  C_8
REMARK    4  A    between atoms: C_15  and  N_16
REMARK    5  A    between atoms: C_23  and  O_24
REMARK                            x       y       z     vdW  Elec       q    Type
REMARK                         _______ _______ _______ _____ _____    ______ ____
ROOT
ATOM      1  C   UNL     1       5.944   5.683  15.149  0.00  0.00    +0.000 C 
ATOM      2  C   UNL     1       5.352   5.931  16.549  0.00  0.00    +0.000 C 
ATOM      3  C   UNL     1       6.515   6.330  17.475  0.00  0.00    +0.000 C 
ATOM      4  O   UNL     1       4.434   7.041  16.424  0.00  0.00    +0.000 OA
ATOM      5  C   UNL     1       3.577   7.236  17.476  0.00  0.00    +0.000 A 
ATOM      6  C   UNL     1       2.925   8.472  17.515  0.00  0.00    +0.000 A 
ATOM      7  C   UNL     1       2.064   8.798  18.576  0.00  0.00    +0.000 A 
ATOM      8  C   UNL     1       1.880   7.868  19.610  0.00  0.00    +0.000 A 
ATOM      9  C   UNL     1       2.515   6.633  19.561  0.00  0.00    +0.000 A 
ATOM     10  C   UNL     1       3.331   6.289  18.473  0.00  0.00    +0.000 A 
ATOM     11  C   UNL     1       3.973   4.925  18.405  0.00  0.00    +0.000 C 
ATOM     12  C   UNL     1       4.588   4.662  17.011  0.00  0.00    +0.000 C 
ENDROOT
BRANCH  11  13
ATOM     13  N   UNL     1       3.053   3.849  18.834  0.00  0.00    +0.000 N 
ATOM     14  C   UNL     1       1.782   3.697  18.119  0.00  0.00    +0.000 C 
ATOM     15  C   UNL     1       0.767   2.884  18.903  0.00  0.00    +0.000 C 
ATOM     16  C   UNL     1       1.399   1.552  19.264  0.00  0.00    +0.000 C 
ATOM     17  C   UNL     1       2.612   1.786  20.144  0.00  0.00    +0.000 C 
ATOM     18  C   UNL     1       3.576   2.837  19.627  0.00  0.00    +0.000 C 
ATOM     19  O   UNL     1       4.747   2.841  20.015  0.00  0.00    +0.000 OA
ENDBRANCH  11  13
BRANCH   7  20
ATOM     20  C   UNL     1       1.350  10.124  18.633  0.00  0.00    +0.000 C 
ATOM     21  F   UNL     1       0.157  10.133  17.974  0.00  0.00    +0.000 F 
ATOM     22  F   UNL     1       1.074  10.509  19.908  0.00  0.00    +0.000 F 
ATOM     23  F   UNL     1       2.085  11.134  18.090  0.00  0.00    +0.000 F 
ENDBRANCH   7  20
BRANCH  12  24
ATOM     24  O   UNL     1       5.434   3.504  16.998  0.00  0.00    +0.000 OA
ATOM     25  H   UNL     1       5.426   3.104  17.889  0.00  0.00    +0.000 HD
ENDBRANCH  12  24
TORSDOF 3
ENDMDL
MODEL 5
REMARK VINA RESULT:      -7.5      1.613      4.189
REMARK  Name = 
REMARK  5 active torsions:
REMARK  status: ('A' for Active; 'I' for Inactive)
REMARK    1  A    between atoms: C_1  and  C_2
REMARK    2  A    between atoms: C_2  and  C_3
REMARK    3  A    between atoms: C_7  and  C_8
REMARK    4  A    between atoms: C_15  and  N_16
REMARK    5  A    between atoms: C_23  and  O_24
REMARK                            x       y       z     vdW  Elec       q    Type
REMARK                         _______ _______ _______ _____ _____    ______ ____
ROOT
ATOM      1  C   UNL     1       5.514   5.577  15.424  0.00  0.00    +0.000 C 
ATOM      2  C   UNL     1       4.994   5.974  16.818  0.00  0.00    +0.000 C 
ATOM      3  C   UNL     1       6.201   6.475  17.631  0.00  0.00    +0.000 C 
ATOM      4  O   UNL     1       4.062   7.062  16.622  0.00  0.00    +0.000 OA
ATOM      5  C   UNL     1       3.260   7.368  17.690  0.00  0.00    +0.000 A 
ATOM      6  C   UNL     1       2.601   8.599  17.629  0.00  0.00    +0.000 A 
ATOM      7  C   UNL     1       1.795   9.038  18.694  0.00  0.00    +0.000 A 
ATOM      8  C   UNL     1       1.672   8.225  19.831  0.00  0.00    +0.000 A 
ATOM      9  C   UNL     1       2.315   6.993  19.882  0.00  0.00    +0.000 A 
ATOM     10  C   UNL     1       3.075   6.535  18.796  0.00  0.00    +0.000 A 
ATOM     11  C   UNL     1       3.724   5.174  18.842  0.00  0.00    +0.000 C 
ATOM     12  C   UNL     1       4.267   4.762  17.455  0.00  0.00    +0.000 C 
ENDROOT
BRANCH  11  13
ATOM     13  N   UNL     1       2.836   4.148  19.435  0.00  0.00    +0.000 N 
ATOM     14  C   UNL     1       2.929   3.900  20.877  0.00  0.00    +0.000 C 
ATOM     15  C   UNL     1       2.316   2.571  21.280  0.00  0.00    +0.000 C 
ATOM     16  C   UNL     1       0.887   2.532  20.770  0.00  0.00    +0.000 C 
ATOM     17  C   UNL     1       0.884   2.625  19.256  0.00  0.00    +0.000 C 
ATOM     18  C   UNL     1       1.739   3.742  18.689  0.00  0.00    +0.000 C 
ATOM     19  O   UNL     1       1.520   4.167  17.551  0.00  0.00    +0.000 OA
ENDBRANCH  11  13
BRANCH   7  20
ATOM     20  C   UNL     1       1.074  10.359  18.644  0.00  0.00    +0.000 C 
ATOM     21  F   UNL     1       1.797  11.358  18.062  0.00  0.00    +0.000 F 
ATOM     22  F   UNL     1      -0.091  10.289  17.945  0.00  0.00    +0.000 F 
ATOM     23  F   UNL     1       0.737  10.815  19.883  0.00  0.00    +0.000 F 
ENDBRANCH   7  20
BRANCH  12  24
ATOM     24  O   UNL     1       5.120   3.611  17.523  0.00  0.00    +0.000 OA
ATOM     25  H   UNL     1       4.562   2.817  17.638  0.00  0.00    +0.000 HD
ENDBRANCH  12  24
TORSDOF 3
ENDMDL
MODEL 6
REMARK VINA RESULT:      -7.4      1.671      4.206
REMARK  Name = 
REMARK  5 active torsions:
REMARK  status: ('A' for Active; 'I' for Inactive)
REMARK    1  A    between atoms: C_1  and  C_2
REMARK    2  A    between atoms: C_2  and  C_3
REMARK    3  A    between atoms: C_7  and  C_8
REMARK    4  A    between atoms: C_15  and  N_16
REMARK    5  A    between atoms: C_23  and  O_24
REMARK                            x       y       z     vdW  Elec       q    Type
REMARK                         _______ _______ _______ _____ _____    ______ ____
ROOT
ATOM      1  C   UNL     1       5.302   6.473  15.109  0.00  0.00    +0.000 C 
ATOM      2  C   UNL     1       4.844   6.615  16.573  0.00  0.00    +0.000 C 
ATOM      3  C   UNL     1       6.058   7.098  17.386  0.00  0.00    +0.000 C 
ATOM      4  O   UNL     1       3.817   7.632  16.592  0.00  0.00    +0.000 OA
ATOM      5  C   UNL     1       3.065   7.708  17.735  0.00  0.00    +0.000 A 
ATOM      6  C   UNL     1       2.307   8.871  17.896  0.00  0.00    +0.000 A 
ATOM      7  C   UNL     1       1.539   9.076  19.055  0.00  0.00    +0.000 A 
ATOM      8  C   UNL     1       1.558   8.099  20.062  0.00  0.00    +0.000 A 
ATOM      9  C   UNL     1       2.299   6.935  19.893  0.00  0.00    +0.000 A 
ATOM     10  C   UNL     1       3.021   6.710  18.712  0.00  0.00    +0.000 A 
ATOM     11  C   UNL     1       3.778   5.419  18.518  0.00  0.00    +0.000 C 
ATOM     12  C   UNL     1       4.260   5.263  17.057  0.00  0.00    +0.000 C 
ENDROOT
BRANCH  11  13
ATOM     13  N   UNL     1       3.017   4.244  18.996  0.00  0.00    +0.000 N 
ATOM     14  C   UNL     1       1.656   4.046  18.488  0.00  0.00    +0.000 C 
ATOM     15  C   UNL     1       0.844   3.098  19.353  0.00  0.00    +0.000 C 
ATOM     16  C   UNL     1       1.614   1.797  19.486  0.00  0.00    +0.000 C 
ATOM     17  C   UNL     1       2.941   2.059  20.173  0.00  0.00    +0.000 C 
ATOM     18  C   UNL     1       3.732   3.219  19.600  0.00  0.00    +0.000 C 
ATOM     19  O   UNL     1       4.949   3.287  19.789  0.00  0.00    +0.000 OA
ENDBRANCH  11  13
BRANCH   7  20
ATOM     20  C   UNL     1       0.713  10.322  19.243  0.00  0.00    +0.000 C 
ATOM     21  F   UNL     1       1.450  11.429  19.544  0.00  0.00    +0.000 F 
ATOM     22  F   UNL     1      -0.002  10.642  18.131  0.00  0.00    +0.000 F 
ATOM     23  F   UNL     1      -0.198  10.195  20.248  0.00  0.00    +0.000 F 
ENDBRANCH   7  20
BRANCH  12  24
ATOM     24  O   UNL     1       5.206   4.196  16.906  0.00  0.00    +0.000 OA
ATOM     25  H   UNL     1       6.063   4.485  17.275  0.00  0.00    +0.000 HD
ENDBRANCH  12  24
TORSDOF 3
ENDMDL
MODEL 7
REMARK VINA RESULT:      -7.4      3.768      5.977
REMARK  Name = 
REMARK  5 active torsions:
REMARK  status: ('A' for Active; 'I' for Inactive)
REMARK    1  A    between atoms: C_1  and  C_2
REMARK    2  A    between atoms: C_2  and  C_3
REMARK    3  A    between atoms: C_7  and  C_8
REMARK    4  A    between atoms: C_15  and  N_16
REMARK    5  A    between atoms: C_23  and  O_24
REMARK                            x       y       z     vdW  Elec       q    Type
REMARK                         _______ _______ _______ _____ _____    ______ ____
ROOT
ATOM      1  C   UNL     1       1.023   2.291  19.099  0.00  0.00    +0.000 C 
ATOM      2  C   UNL     1       2.171   3.319  19.103  0.00  0.00    +0.000 C 
ATOM      3  C   UNL     1       3.121   2.939  20.253  0.00  0.00    +0.000 C 
ATOM      4  O   UNL     1       2.863   3.178  17.841  0.00  0.00    +0.000 OA
ATOM      5  C   UNL     1       3.725   4.191  17.511  0.00  0.00    +0.000 A 
ATOM      6  C   UNL     1       4.626   3.917  16.478  0.00  0.00    +0.000 A 
ATOM      7  C   UNL     1       5.589   4.865  16.092  0.00  0.00    +0.000 A 
ATOM      8  C   UNL     1       5.645   6.090  16.774  0.00  0.00    +0.000 A 
ATOM      9  C   UNL     1       4.737   6.367  17.789  0.00  0.00    +0.000 A 
ATOM     10  C   UNL     1       3.743   5.441  18.135  0.00  0.00    +0.000 A 
ATOM     11  C   UNL     1       2.730   5.774  19.202  0.00  0.00    +0.000 C 
ATOM     12  C   UNL     1       1.576   4.746  19.225  0.00  0.00    +0.000 C 
ENDROOT
BRANCH  11  13
ATOM     13  N   UNL     1       2.248   7.170  19.103  0.00  0.00    +0.000 N 
ATOM     14  C   UNL     1       1.957   7.710  17.771  0.00  0.00    +0.000 C 
ATOM     15  C   UNL     1       1.902   9.228  17.757  0.00  0.00    +0.000 C 
ATOM     16  C   UNL     1       0.897   9.676  18.804  0.00  0.00    +0.000 C 
ATOM     17  C   UNL     1       1.356   9.223  20.177  0.00  0.00    +0.000 C 
ATOM     18  C   UNL     1       1.762   7.764  20.259  0.00  0.00    +0.000 C 
ATOM     19  O   UNL     1       1.769   7.188  21.350  0.00  0.00    +0.000 OA
ENDBRANCH  11  13
BRANCH   7  20
ATOM     20  C   UNL     1       6.565   4.589  14.979  0.00  0.00    +0.000 C 
ATOM     21  F   UNL     1       6.551   5.528  13.991  0.00  0.00    +0.000 F 
ATOM     22  F   UNL     1       7.851   4.531  15.419  0.00  0.00    +0.000 F 
ATOM     23  F   UNL     1       6.329   3.396  14.363  0.00  0.00    +0.000 F 
ENDBRANCH   7  20
BRANCH  12  24
ATOM     24  O   UNL     1       0.752   4.876  20.391  0.00  0.00    +0.000 OA
ATOM     25  H   UNL     1       0.795   4.041  20.897  0.00  0.00    +0.000 HD
ENDBRANCH  12  24
TORSDOF 3
ENDMDL
MODEL 8
REMARK VINA RESULT:      -7.2      1.456      1.834
REMARK  Name = 
REMARK  5 active torsions:
REMARK  status: ('A' for Active; 'I' for Inactive)
REMARK    1  A    between atoms: C_1  and  C_2
REMARK    2  A    between atoms: C_2  and  C_3
REMARK    3  A    between atoms: C_7  and  C_8
REMARK    4  A    between atoms: C_15  and  N_16
REMARK    5  A    between atoms: C_23  and  O_24
REMARK                            x       y       z     vdW  Elec       q    Type
REMARK                         _______ _______ _______ _____ _____    ______ ____
ROOT
ATOM      1  C   UNL     1       2.046   1.823  19.623  0.00  0.00    +0.000 C 
ATOM      2  C   UNL     1       2.128   3.272  19.106  0.00  0.00    +0.000 C 
ATOM      3  C   UNL     1       1.242   3.361  17.851  0.00  0.00    +0.000 C 
ATOM      4  O   UNL     1       1.580   4.117  20.143  0.00  0.00    +0.000 OA
ATOM      5  C   UNL     1       1.828   5.460  20.020  0.00  0.00    +0.000 A 
ATOM      6  C   UNL     1       1.046   6.303  20.813  0.00  0.00    +0.000 A 
ATOM      7  C   UNL     1       1.180   7.700  20.729  0.00  0.00    +0.000 A 
ATOM      8  C   UNL     1       2.104   8.238  19.820  0.00  0.00    +0.000 A 
ATOM      9  C   UNL     1       2.893   7.397  19.044  0.00  0.00    +0.000 A 
ATOM     10  C   UNL     1       2.794   6.004  19.170  0.00  0.00    +0.000 A 
ATOM     11  C   UNL     1       3.693   5.102  18.361  0.00  0.00    +0.000 C 
ATOM     12  C   UNL     1       3.614   3.639  18.854  0.00  0.00    +0.000 C 
ENDROOT
BRANCH  11  13
ATOM     13  N   UNL     1       5.083   5.607  18.294  0.00  0.00    +0.000 N 
ATOM     14  C   UNL     1       6.066   5.057  19.232  0.00  0.00    +0.000 C 
ATOM     15  C   UNL     1       7.298   5.934  19.366  0.00  0.00    +0.000 C 
ATOM     16  C   UNL     1       7.873   6.160  17.979  0.00  0.00    +0.000 C 
ATOM     17  C   UNL     1       6.857   6.885  17.118  0.00  0.00    +0.000 C 
ATOM     18  C   UNL     1       5.463   6.287  17.146  0.00  0.00    +0.000 C 
ATOM     19  O   UNL     1       4.675   6.519  16.225  0.00  0.00    +0.000 OA
ENDBRANCH  11  13
BRANCH   7  20
ATOM     20  C   UNL     1       0.349   8.624  21.579  0.00  0.00    +0.000 C 
ATOM     21  F   UNL     1       0.071   9.819  20.982  0.00  0.00    +0.000 F 
ATOM     22  F   UNL     1      -0.856   8.084  21.907  0.00  0.00    +0.000 F 
ATOM     23  F   UNL     1       0.954   8.929  22.761  0.00  0.00    +0.000 F 
ENDBRANCH   7  20
BRANCH  12  24
ATOM     24  O   UNL     1       4.236   2.721  17.944  0.00  0.00    +0.000 OA
ATOM     25  H   UNL     1       4.879   2.179  18.441  0.00  0.00    +0.000 HD
ENDBRANCH  12  24
TORSDOF 3
ENDMDL
MODEL 9
REMARK VINA RESULT:      -6.9      4.800      6.579
REMARK  Name = 
REMARK  5 active torsions:
REMARK  status: ('A' for Active; 'I' for Inactive)
REMARK    1  A    between atoms: C_1  and  C_2
REMARK    2  A    between atoms: C_2  and  C_3
REMARK    3  A    between atoms: C_7  and  C_8
REMARK    4  A    between atoms: C_15  and  N_16
REMARK    5  A    between atoms: C_23  and  O_24
REMARK                            x       y       z     vdW  Elec       q    Type
REMARK                         _______ _______ _______ _____ _____    ______ ____
ROOT
ATOM      1  C   UNL     1       2.161   4.406  18.316  0.00  0.00    +0.000 C 
ATOM      2  C   UNL     1       3.598   4.139  17.829  0.00  0.00    +0.000 C 
ATOM      3  C   UNL     1       4.010   2.753  18.358  0.00  0.00    +0.000 C 
ATOM      4  O   UNL     1       3.550   4.108  16.384  0.00  0.00    +0.000 OA
ATOM      5  C   UNL     1       4.757   4.181  15.740  0.00  0.00    +0.000 A 
ATOM      6  C   UNL     1       4.754   3.828  14.387  0.00  0.00    +0.000 A 
ATOM      7  C   UNL     1       5.945   3.818  13.643  0.00  0.00    +0.000 A 
ATOM      8  C   UNL     1       7.148   4.153  14.283  0.00  0.00    +0.000 A 
ATOM      9  C   UNL     1       7.147   4.520  15.624  0.00  0.00    +0.000 A 
ATOM     10  C   UNL     1       5.949   4.581  16.350  0.00  0.00    +0.000 A 
ATOM     11  C   UNL     1       5.954   5.032  17.790  0.00  0.00    +0.000 C 
ATOM     12  C   UNL     1       4.519   5.292  18.304  0.00  0.00    +0.000 C 
ENDROOT
BRANCH  11  13
ATOM     13  N   UNL     1       6.858   6.183  18.015  0.00  0.00    +0.000 N 
ATOM     14  C   UNL     1       6.599   7.422  17.276  0.00  0.00    +0.000 C 
ATOM     15  C   UNL     1       7.803   8.347  17.251  0.00  0.00    +0.000 C 
ATOM     16  C   UNL     1       8.240   8.599  18.683  0.00  0.00    +0.000 C 
ATOM     17  C   UNL     1       8.651   7.289  19.327  0.00  0.00    +0.000 C 
ATOM     18  C   UNL     1       7.660   6.156  19.147  0.00  0.00    +0.000 C 
ATOM     19  O   UNL     1       7.674   5.197  19.923  0.00  0.00    +0.000 OA
ENDBRANCH  11  13
BRANCH   7  20
ATOM     20  C   UNL     1       5.959   3.445  12.183  0.00  0.00    +0.000 C 
ATOM     21  F   UNL     1       6.148   2.113  11.959  0.00  0.00    +0.000 F 
ATOM     22  F   UNL     1       4.797   3.766  11.555  0.00  0.00    +0.000 F 
ATOM     23  F   UNL     1       6.945   4.083  11.493  0.00  0.00    +0.000 F 
ENDBRANCH   7  20
BRANCH  12  24
ATOM     24  O   UNL     1       4.471   5.454  19.728  0.00  0.00    +0.000 OA
ATOM     25  H   UNL     1       3.606   5.842  19.967  0.00  0.00    +0.000 HD
ENDBRANCH  12  24
TORSDOF 3
ENDMDL
