MODEL 1
REMARK VINA RESULT:      -8.5      0.000      0.000
REMARK  Name = 
REMARK  13 active torsions:
REMARK  status: ('A' for Active; 'I' for Inactive)
REMARK    1  A    between atoms: C_1  and  C_2
REMARK    2  A    between atoms: C_6  and  N_7
REMARK    3  A    between atoms: C_8  and  C_10
REMARK    4  A    between atoms: C_10  and  N_11
REMARK    5  A    between atoms: N_11  and  C_12
REMARK    6  A    between atoms: N_11  and  S_21
REMARK    7  A    between atoms: C_15  and  C_16
REMARK    8  A    between atoms: C_16  and  C_17
REMARK    9  A    between atoms: C_16  and  C_18
REMARK   10  A    between atoms: S_21  and  C_24
REMARK   11  A    between atoms: C_25  and  C_26
REMARK   12  A    between atoms: N_28  and  C_29
REMARK   13  A    between atoms: C_30  and  C_31
REMARK                            x       y       z     vdW  Elec       q    Type
REMARK                         _______ _______ _______ _____ _____    ______ ____
ROOT
ATOM      1  N   UNL     1       3.382   5.921  17.697  0.00  0.00    +0.000 N 
ENDROOT
BRANCH   1   2
ATOM      2  C   UNL     1       2.742   6.931  18.477  0.00  0.00    +0.000 A 
ATOM      3  C   UNL     1       2.437   6.716  19.823  0.00  0.00    +0.000 A 
ATOM      4  C   UNL     1       1.696   7.666  20.532  0.00  0.00    +0.000 A 
ATOM      5  C   UNL     1       1.246   8.837  19.906  0.00  0.00    +0.000 A 
ATOM      6  C   UNL     1       1.645   9.082  18.582  0.00  0.00    +0.000 A 
ATOM      7  C   UNL     1       2.379   8.131  17.869  0.00  0.00    +0.000 A 
BRANCH   5   8
ATOM      8  C   UNL     1       0.240   9.735  20.610  0.00  0.00    +0.000 C 
ATOM      9  C   UNL     1      -0.858  10.270  19.690  0.00  0.00    +0.000 C 
ATOM     10  C   UNL     1      -0.363   8.993  21.810  0.00  0.00    +0.000 C 
ENDBRANCH   5   8
ENDBRANCH   1   2
BRANCH   1  11
ATOM     11  S   UNL     1       2.641   4.401  17.573  0.00  0.00    +0.000 S 
ATOM     12  O   UNL     1       1.231   4.608  17.319  0.00  0.00    +0.000 OA
ATOM     13  O   UNL     1       3.431   3.632  16.635  0.00  0.00    +0.000 OA
BRANCH  11  14
ATOM     14  C   UNL     1       2.669   3.464  19.038  0.00  0.00    +0.000 A 
ATOM     15  C   UNL     1       3.824   3.128  19.809  0.00  0.00    +0.000 A 
ATOM     16  C   UNL     1       5.273   3.350  19.567  0.00  0.00    +0.000 C 
ATOM     17  N   UNL     1       3.486   2.557  20.969  0.00  0.00    +0.000 NA
ATOM     18  N   UNL     1       2.148   2.610  20.999  0.00  0.00    +0.000 N 
ATOM     19  C   UNL     1       1.473   2.343  22.248  0.00  0.00    +0.000 C 
ATOM     20  C   UNL     1       1.593   3.031  19.810  0.00  0.00    +0.000 A 
ATOM     21  C   UNL     1       0.127   3.069  19.613  0.00  0.00    +0.000 C 
ENDBRANCH  11  14
ENDBRANCH   1  11
BRANCH   1  22
ATOM     22  C   UNL     1       4.828   6.040  17.442  0.00  0.00    +0.000 C 
BRANCH  22  24
ATOM     23  N   UNL     1       5.887   4.787  15.568  0.00  0.00    +0.000 N 
ATOM     24  C   UNL     1       5.278   5.953  15.983  0.00  0.00    +0.000 C 
ATOM     25  O   UNL     1       5.126   6.939  15.255  0.00  0.00    +0.000 OA
ATOM     26  H   UNL     1       6.398   4.253  16.260  0.00  0.00    +0.000 HD
BRANCH  23  32
ATOM     27  C   UNL     1       5.521   2.280  11.550  0.00  0.00    +0.000 C 
ATOM     28  C   UNL     1       6.175   3.415  12.279  0.00  0.00    +0.000 A 
ATOM     29  C   UNL     1       7.272   4.067  11.723  0.00  0.00    +0.000 A 
ATOM     30  C   UNL     1       7.916   5.038  12.477  0.00  0.00    +0.000 A 
ATOM     31  C   UNL     1       7.476   5.296  13.773  0.00  0.00    +0.000 A 
ATOM     32  C   UNL     1       6.374   4.601  14.263  0.00  0.00    +0.000 A 
ATOM     33  N   UNL     1       5.693   3.709  13.514  0.00  0.00    +0.000 NA
ENDBRANCH  23  32
ENDBRANCH  22  24
ENDBRANCH   1  22
TORSDOF 7
ENDMDL
MODEL 2
REMARK VINA RESULT:      -8.3      0.642      1.441
REMARK  Name = 
REMARK  13 active torsions:
REMARK  status: ('A' for Active; 'I' for Inactive)
REMARK    1  A    between atoms: C_1  and  C_2
REMARK    2  A    between atoms: C_6  and  N_7
REMARK    3  A    between atoms: C_8  and  C_10
REMARK    4  A    between atoms: C_10  and  N_11
REMARK    5  A    between atoms: N_11  and  C_12
REMARK    6  A    between atoms: N_11  and  S_21
REMARK    7  A    between atoms: C_15  and  C_16
REMARK    8  A    between atoms: C_16  and  C_17
REMARK    9  A    between atoms: C_16  and  C_18
REMARK   10  A    between atoms: S_21  and  C_24
REMARK   11  A    between atoms: C_25  and  C_26
REMARK   12  A    between atoms: N_28  and  C_29
REMARK   13  A    between atoms: C_30  and  C_31
REMARK                            x       y       z     vdW  Elec       q    Type
REMARK                         _______ _______ _______ _____ _____    ______ ____
ROOT
ATOM      1  N   UNL     1       3.314   5.974  17.771  0.00  0.00    +0.000 N 
ENDROOT
BRANCH   1   2
ATOM      2  C   UNL     1       2.642   6.957  18.558  0.00  0.00    +0.000 A 
ATOM      3  C   UNL     1       2.368   6.734  19.909  0.00  0.00    +0.000 A 
ATOM      4  C   UNL     1       1.597   7.653  20.627  0.00  0.00    +0.000 A 
ATOM      5  C   UNL     1       1.085   8.801  20.004  0.00  0.00    +0.000 A 
ATOM      6  C   UNL     1       1.453   9.058  18.674  0.00  0.00    +0.000 A 
ATOM      7  C   UNL     1       2.217   8.138  17.952  0.00  0.00    +0.000 A 
BRANCH   5   8
ATOM      8  C   UNL     1       0.052   9.656  20.721  0.00  0.00    +0.000 C 
ATOM      9  C   UNL     1       0.052   9.480  22.239  0.00  0.00    +0.000 C 
ATOM     10  C   UNL     1       0.248  11.130  20.340  0.00  0.00    +0.000 C 
ENDBRANCH   5   8
ENDBRANCH   1   2
BRANCH   1  11
ATOM     11  S   UNL     1       2.608   4.441  17.612  0.00  0.00    +0.000 S 
ATOM     12  O   UNL     1       1.195   4.622  17.352  0.00  0.00    +0.000 OA
ATOM     13  O   UNL     1       3.421   3.707  16.667  0.00  0.00    +0.000 OA
BRANCH  11  14
ATOM     14  C   UNL     1       2.645   3.477  19.060  0.00  0.00    +0.000 A 
ATOM     15  C   UNL     1       3.805   3.125  19.816  0.00  0.00    +0.000 A 
ATOM     16  C   UNL     1       5.253   3.346  19.565  0.00  0.00    +0.000 C 
ATOM     17  N   UNL     1       3.476   2.533  20.967  0.00  0.00    +0.000 NA
ATOM     18  N   UNL     1       2.138   2.590  21.010  0.00  0.00    +0.000 N 
ATOM     19  C   UNL     1       1.472   2.303  22.259  0.00  0.00    +0.000 C 
ATOM     20  C   UNL     1       1.574   3.034  19.833  0.00  0.00    +0.000 A 
ATOM     21  C   UNL     1       0.106   3.080  19.650  0.00  0.00    +0.000 C 
ENDBRANCH  11  14
ENDBRANCH   1  11
BRANCH   1  22
ATOM     22  C   UNL     1       4.761   6.127  17.537  0.00  0.00    +0.000 C 
BRANCH  22  24
ATOM     23  N   UNL     1       5.833   4.807  15.718  0.00  0.00    +0.000 N 
ATOM     24  C   UNL     1       5.241   5.996  16.092  0.00  0.00    +0.000 C 
ATOM     25  O   UNL     1       5.128   6.968  15.337  0.00  0.00    +0.000 OA
ATOM     26  H   UNL     1       6.316   4.278  16.433  0.00  0.00    +0.000 HD
BRANCH  23  32
ATOM     27  C   UNL     1       8.993   6.166  12.442  0.00  0.00    +0.000 C 
ATOM     28  C   UNL     1       7.913   5.203  12.837  0.00  0.00    +0.000 A 
ATOM     29  C   UNL     1       7.394   4.309  11.906  0.00  0.00    +0.000 A 
ATOM     30  C   UNL     1       6.322   3.512  12.280  0.00  0.00    +0.000 A 
ATOM     31  C   UNL     1       5.774   3.662  13.551  0.00  0.00    +0.000 A 
ATOM     32  C   UNL     1       6.345   4.580  14.429  0.00  0.00    +0.000 A 
ATOM     33  N   UNL     1       7.433   5.308  14.103  0.00  0.00    +0.000 NA
ENDBRANCH  23  32
ENDBRANCH  22  24
ENDBRANCH   1  22
TORSDOF 7
ENDMDL
MODEL 3
REMARK VINA RESULT:      -8.1      0.926      2.200
REMARK  Name = 
REMARK  13 active torsions:
REMARK  status: ('A' for Active; 'I' for Inactive)
REMARK    1  A    between atoms: C_1  and  C_2
REMARK    2  A    between atoms: C_6  and  N_7
REMARK    3  A    between atoms: C_8  and  C_10
REMARK    4  A    between atoms: C_10  and  N_11
REMARK    5  A    between atoms: N_11  and  C_12
REMARK    6  A    between atoms: N_11  and  S_21
REMARK    7  A    between atoms: C_15  and  C_16
REMARK    8  A    between atoms: C_16  and  C_17
REMARK    9  A    between atoms: C_16  and  C_18
REMARK   10  A    between atoms: S_21  and  C_24
REMARK   11  A    between atoms: C_25  and  C_26
REMARK   12  A    between atoms: N_28  and  C_29
REMARK   13  A    between atoms: C_30  and  C_31
REMARK                            x       y       z     vdW  Elec       q    Type
REMARK                         _______ _______ _______ _____ _____    ______ ____
ROOT
ATOM      1  N   UNL     1       3.257   6.295  17.806  0.00  0.00    +0.000 N 
ENDROOT
BRANCH   1   2
ATOM      2  C   UNL     1       2.542   7.325  18.488  0.00  0.00    +0.000 A 
ATOM      3  C   UNL     1       2.242   7.214  19.847  0.00  0.00    +0.000 A 
ATOM      4  C   UNL     1       1.432   8.171  20.465  0.00  0.00    +0.000 A 
ATOM      5  C   UNL     1       0.906   9.245  19.732  0.00  0.00    +0.000 A 
ATOM      6  C   UNL     1       1.298   9.395  18.392  0.00  0.00    +0.000 A 
ATOM      7  C   UNL     1       2.101   8.435  17.771  0.00  0.00    +0.000 A 
BRANCH   5   8
ATOM      8  C   UNL     1      -0.165  10.132  20.349  0.00  0.00    +0.000 C 
ATOM      9  C   UNL     1       0.301  10.889  21.592  0.00  0.00    +0.000 C 
ATOM     10  C   UNL     1      -0.707  11.100  19.288  0.00  0.00    +0.000 C 
ENDBRANCH   5   8
ENDBRANCH   1   2
BRANCH   1  11
ATOM     11  S   UNL     1       2.637   4.718  17.840  0.00  0.00    +0.000 S 
ATOM     12  O   UNL     1       1.196   4.804  17.947  0.00  0.00    +0.000 OA
ATOM     13  O   UNL     1       3.231   4.015  16.723  0.00  0.00    +0.000 OA
BRANCH  11  14
ATOM     14  C   UNL     1       3.104   3.790  19.236  0.00  0.00    +0.000 A 
ATOM     15  C   UNL     1       2.224   3.171  20.177  0.00  0.00    +0.000 A 
ATOM     16  C   UNL     1       0.746   3.215  20.325  0.00  0.00    +0.000 C 
ATOM     17  N   UNL     1       2.893   2.385  21.026  0.00  0.00    +0.000 NA
ATOM     18  N   UNL     1       4.158   2.410  20.589  0.00  0.00    +0.000 N 
ATOM     19  C   UNL     1       5.088   1.433  21.105  0.00  0.00    +0.000 C 
ATOM     20  C   UNL     1       4.372   3.337  19.592  0.00  0.00    +0.000 A 
ATOM     21  C   UNL     1       5.724   3.581  19.041  0.00  0.00    +0.000 C 
ENDBRANCH  11  14
ENDBRANCH   1  11
BRANCH   1  22
ATOM     22  C   UNL     1       4.689   6.499  17.525  0.00  0.00    +0.000 C 
BRANCH  22  24
ATOM     23  N   UNL     1       5.820   5.073  15.825  0.00  0.00    +0.000 N 
ATOM     24  C   UNL     1       5.150   6.250  16.089  0.00  0.00    +0.000 C 
ATOM     25  O   UNL     1       4.951   7.126  15.240  0.00  0.00    +0.000 OA
ATOM     26  H   UNL     1       6.354   4.659  16.578  0.00  0.00    +0.000 HD
BRANCH  23  32
ATOM     27  C   UNL     1       9.052   6.082  12.493  0.00  0.00    +0.000 C 
ATOM     28  C   UNL     1       7.924   5.200  12.936  0.00  0.00    +0.000 A 
ATOM     29  C   UNL     1       7.362   4.282  12.054  0.00  0.00    +0.000 A 
ATOM     30  C   UNL     1       6.249   3.562  12.468  0.00  0.00    +0.000 A 
ATOM     31  C   UNL     1       5.707   3.812  13.726  0.00  0.00    +0.000 A 
ATOM     32  C   UNL     1       6.322   4.748  14.553  0.00  0.00    +0.000 A 
ATOM     33  N   UNL     1       7.447   5.400  14.192  0.00  0.00    +0.000 NA
ENDBRANCH  23  32
ENDBRANCH  22  24
ENDBRANCH   1  22
TORSDOF 7
ENDMDL
MODEL 4
REMARK VINA RESULT:      -8.1      0.701      1.882
REMARK  Name = 
REMARK  13 active torsions:
REMARK  status: ('A' for Active; 'I' for Inactive)
REMARK    1  A    between atoms: C_1  and  C_2
REMARK    2  A    between atoms: C_6  and  N_7
REMARK    3  A    between atoms: C_8  and  C_10
REMARK    4  A    between atoms: C_10  and  N_11
REMARK    5  A    between atoms: N_11  and  C_12
REMARK    6  A    between atoms: N_11  and  S_21
REMARK    7  A    between atoms: C_15  and  C_16
REMARK    8  A    between atoms: C_16  and  C_17
REMARK    9  A    between atoms: C_16  and  C_18
REMARK   10  A    between atoms: S_21  and  C_24
REMARK   11  A    between atoms: C_25  and  C_26
REMARK   12  A    between atoms: N_28  and  C_29
REMARK   13  A    between atoms: C_30  and  C_31
REMARK                            x       y       z     vdW  Elec       q    Type
REMARK                         _______ _______ _______ _____ _____    ______ ____
ROOT
ATOM      1  N   UNL     1       3.232   6.201  17.709  0.00  0.00    +0.000 N 
ENDROOT
BRANCH   1   2
ATOM      2  C   UNL     1       2.468   7.192  18.395  0.00  0.00    +0.000 A 
ATOM      3  C   UNL     1       1.983   8.318  17.725  0.00  0.00    +0.000 A 
ATOM      4  C   UNL     1       1.348   9.338  18.441  0.00  0.00    +0.000 A 
ATOM      5  C   UNL     1       1.196   9.249  19.832  0.00  0.00    +0.000 A 
ATOM      6  C   UNL     1       1.601   8.068  20.474  0.00  0.00    +0.000 A 
ATOM      7  C   UNL     1       2.242   7.051  19.762  0.00  0.00    +0.000 A 
BRANCH   5   8
ATOM      8  C   UNL     1       0.734  10.463  20.623  0.00  0.00    +0.000 C 
ATOM      9  C   UNL     1      -0.162  11.413  19.828  0.00  0.00    +0.000 C 
ATOM     10  C   UNL     1       0.038  10.005  21.912  0.00  0.00    +0.000 C 
ENDBRANCH   5   8
ENDBRANCH   1   2
BRANCH   1  11
ATOM     11  S   UNL     1       2.679   4.599  17.720  0.00  0.00    +0.000 S 
ATOM     12  O   UNL     1       1.232   4.624  17.750  0.00  0.00    +0.000 OA
ATOM     13  O   UNL     1       3.360   3.919  16.639  0.00  0.00    +0.000 OA
BRANCH  11  14
ATOM     14  C   UNL     1       3.110   3.697  19.143  0.00  0.00    +0.000 A 
ATOM     15  C   UNL     1       2.209   3.036  20.034  0.00  0.00    +0.000 A 
ATOM     16  C   UNL     1       0.725   3.008  20.098  0.00  0.00    +0.000 C 
ATOM     17  N   UNL     1       2.866   2.285  20.923  0.00  0.00    +0.000 NA
ATOM     18  N   UNL     1       4.152   2.371  20.559  0.00  0.00    +0.000 N 
ATOM     19  C   UNL     1       5.097   1.441  21.131  0.00  0.00    +0.000 C 
ATOM     20  C   UNL     1       4.377   3.307  19.572  0.00  0.00    +0.000 A 
ATOM     21  C   UNL     1       5.744   3.615  19.097  0.00  0.00    +0.000 C 
ENDBRANCH  11  14
ENDBRANCH   1  11
BRANCH   1  22
ATOM     22  C   UNL     1       4.657   6.469  17.446  0.00  0.00    +0.000 C 
BRANCH  22  24
ATOM     23  N   UNL     1       5.784   5.093  15.703  0.00  0.00    +0.000 N 
ATOM     24  C   UNL     1       5.140   6.274  16.009  0.00  0.00    +0.000 C 
ATOM     25  O   UNL     1       4.981   7.193  15.199  0.00  0.00    +0.000 OA
ATOM     26  H   UNL     1       6.292   4.630  16.446  0.00  0.00    +0.000 HD
BRANCH  23  32
ATOM     27  C   UNL     1       5.346   2.474  11.764  0.00  0.00    +0.000 C 
ATOM     28  C   UNL     1       6.073   3.573  12.479  0.00  0.00    +0.000 A 
ATOM     29  C   UNL     1       7.246   4.101  11.948  0.00  0.00    +0.000 A 
ATOM     30  C   UNL     1       7.947   5.039  12.694  0.00  0.00    +0.000 A 
ATOM     31  C   UNL     1       7.482   5.385  13.960  0.00  0.00    +0.000 A 
ATOM     32  C   UNL     1       6.302   4.813  14.427  0.00  0.00    +0.000 A 
ATOM     33  N   UNL     1       5.572   3.958  13.682  0.00  0.00    +0.000 NA
ENDBRANCH  23  32
ENDBRANCH  22  24
ENDBRANCH   1  22
TORSDOF 7
ENDMDL
MODEL 5
REMARK VINA RESULT:      -7.6      4.178      7.548
REMARK  Name = 
REMARK  13 active torsions:
REMARK  status: ('A' for Active; 'I' for Inactive)
REMARK    1  A    between atoms: C_1  and  C_2
REMARK    2  A    between atoms: C_6  and  N_7
REMARK    3  A    between atoms: C_8  and  C_10
REMARK    4  A    between atoms: C_10  and  N_11
REMARK    5  A    between atoms: N_11  and  C_12
REMARK    6  A    between atoms: N_11  and  S_21
REMARK    7  A    between atoms: C_15  and  C_16
REMARK    8  A    between atoms: C_16  and  C_17
REMARK    9  A    between atoms: C_16  and  C_18
REMARK   10  A    between atoms: S_21  and  C_24
REMARK   11  A    between atoms: C_25  and  C_26
REMARK   12  A    between atoms: N_28  and  C_29
REMARK   13  A    between atoms: C_30  and  C_31
REMARK                            x       y       z     vdW  Elec       q    Type
REMARK                         _______ _______ _______ _____ _____    ______ ____
ROOT
ATOM      1  N   UNL     1       6.504   5.950  17.248  0.00  0.00    +0.000 N 
ENDROOT
BRANCH   1   2
ATOM      2  C   UNL     1       6.463   5.244  16.009  0.00  0.00    +0.000 A 
ATOM      3  C   UNL     1       7.562   5.239  15.147  0.00  0.00    +0.000 A 
ATOM      4  C   UNL     1       7.456   4.650  13.883  0.00  0.00    +0.000 A 
ATOM      5  C   UNL     1       6.252   4.065  13.464  0.00  0.00    +0.000 A 
ATOM      6  C   UNL     1       5.190   3.992  14.380  0.00  0.00    +0.000 A 
ATOM      7  C   UNL     1       5.291   4.587  15.640  0.00  0.00    +0.000 A 
BRANCH   5   8
ATOM      8  C   UNL     1       6.074   3.654  12.010  0.00  0.00    +0.000 C 
ATOM      9  C   UNL     1       7.003   2.521  11.572  0.00  0.00    +0.000 C 
ATOM     10  C   UNL     1       4.606   3.290  11.752  0.00  0.00    +0.000 C 
ENDBRANCH   5   8
ENDBRANCH   1   2
BRANCH   1  11
ATOM     11  S   UNL     1       5.976   5.159  18.651  0.00  0.00    +0.000 S 
ATOM     12  O   UNL     1       6.530   3.821  18.647  0.00  0.00    +0.000 OA
ATOM     13  O   UNL     1       6.260   6.047  19.759  0.00  0.00    +0.000 OA
BRANCH  11  14
ATOM     14  C   UNL     1       4.258   4.899  18.729  0.00  0.00    +0.000 A 
ATOM     15  C   UNL     1       3.242   5.815  18.316  0.00  0.00    +0.000 A 
ATOM     16  C   UNL     1       3.312   7.219  17.836  0.00  0.00    +0.000 C 
ATOM     17  N   UNL     1       2.034   5.244  18.338  0.00  0.00    +0.000 NA
ATOM     18  N   UNL     1       2.266   3.965  18.658  0.00  0.00    +0.000 N 
ATOM     19  C   UNL     1       1.204   3.002  18.478  0.00  0.00    +0.000 C 
ATOM     20  C   UNL     1       3.572   3.725  19.029  0.00  0.00    +0.000 A 
ATOM     21  C   UNL     1       4.007   2.393  19.505  0.00  0.00    +0.000 C 
ENDBRANCH  11  14
ENDBRANCH   1  11
BRANCH   1  22
ATOM     22  C   UNL     1       6.526   7.423  17.218  0.00  0.00    +0.000 C 
BRANCH  22  24
ATOM     23  N   UNL     1       7.804   9.479  17.804  0.00  0.00    +0.000 N 
ATOM     24  C   UNL     1       7.704   8.107  17.912  0.00  0.00    +0.000 C 
ATOM     25  O   UNL     1       8.539   7.407  18.495  0.00  0.00    +0.000 OA
ATOM     26  H   UNL     1       7.419   9.913  16.974  0.00  0.00    +0.000 HD
BRANCH  23  32
ATOM     27  C   UNL     1       9.458  11.633  21.702  0.00  0.00    +0.000 C 
ATOM     28  C   UNL     1       9.700  11.233  20.277  0.00  0.00    +0.000 A 
ATOM     29  C   UNL     1      10.803  11.726  19.587  0.00  0.00    +0.000 A 
ATOM     30  C   UNL     1      10.931  11.419  18.239  0.00  0.00    +0.000 A 
ATOM     31  C   UNL     1       9.936  10.673  17.614  0.00  0.00    +0.000 A 
ATOM     32  C   UNL     1       8.859  10.216  18.368  0.00  0.00    +0.000 A 
ATOM     33  N   UNL     1       8.760  10.443  19.695  0.00  0.00    +0.000 NA
ENDBRANCH  23  32
ENDBRANCH  22  24
ENDBRANCH   1  22
TORSDOF 7
ENDMDL
MODEL 6
REMARK VINA RESULT:      -7.6      4.270      7.516
REMARK  Name = 
REMARK  13 active torsions:
REMARK  status: ('A' for Active; 'I' for Inactive)
REMARK    1  A    between atoms: C_1  and  C_2
REMARK    2  A    between atoms: C_6  and  N_7
REMARK    3  A    between atoms: C_8  and  C_10
REMARK    4  A    between atoms: C_10  and  N_11
REMARK    5  A    between atoms: N_11  and  C_12
REMARK    6  A    between atoms: N_11  and  S_21
REMARK    7  A    between atoms: C_15  and  C_16
REMARK    8  A    between atoms: C_16  and  C_17
REMARK    9  A    between atoms: C_16  and  C_18
REMARK   10  A    between atoms: S_21  and  C_24
REMARK   11  A    between atoms: C_25  and  C_26
REMARK   12  A    between atoms: N_28  and  C_29
REMARK   13  A    between atoms: C_30  and  C_31
REMARK                            x       y       z     vdW  Elec       q    Type
REMARK                         _______ _______ _______ _____ _____    ______ ____
ROOT
ATOM      1  N   UNL     1       6.487   6.138  17.335  0.00  0.00    +0.000 N 
ENDROOT
BRANCH   1   2
ATOM      2  C   UNL     1       6.339   5.542  16.046  0.00  0.00    +0.000 A 
ATOM      3  C   UNL     1       5.074   5.277  15.517  0.00  0.00    +0.000 A 
ATOM      4  C   UNL     1       4.952   4.577  14.313  0.00  0.00    +0.000 A 
ATOM      5  C   UNL     1       6.090   4.129  13.627  0.00  0.00    +0.000 A 
ATOM      6  C   UNL     1       7.354   4.490  14.121  0.00  0.00    +0.000 A 
ATOM      7  C   UNL     1       7.478   5.182  15.329  0.00  0.00    +0.000 A 
BRANCH   5   8
ATOM      8  C   UNL     1       5.942   3.163  12.461  0.00  0.00    +0.000 C 
ATOM      9  C   UNL     1       4.617   3.301  11.711  0.00  0.00    +0.000 C 
ATOM     10  C   UNL     1       7.132   3.321  11.505  0.00  0.00    +0.000 C 
ENDBRANCH   5   8
ENDBRANCH   1   2
BRANCH   1  11
ATOM     11  S   UNL     1       6.112   5.212  18.704  0.00  0.00    +0.000 S 
ATOM     12  O   UNL     1       6.645   3.881  18.507  0.00  0.00    +0.000 OA
ATOM     13  O   UNL     1       6.529   5.986  19.854  0.00  0.00    +0.000 OA
BRANCH  11  14
ATOM     14  C   UNL     1       4.411   4.947  18.951  0.00  0.00    +0.000 A 
ATOM     15  C   UNL     1       3.351   5.829  18.575  0.00  0.00    +0.000 A 
ATOM     16  C   UNL     1       3.362   7.202  18.008  0.00  0.00    +0.000 C 
ATOM     17  N   UNL     1       2.156   5.253  18.739  0.00  0.00    +0.000 NA
ATOM     18  N   UNL     1       2.431   3.997  19.113  0.00  0.00    +0.000 N 
ATOM     19  C   UNL     1       1.369   3.018  19.087  0.00  0.00    +0.000 C 
ATOM     20  C   UNL     1       3.767   3.788  19.379  0.00  0.00    +0.000 A 
ATOM     21  C   UNL     1       4.258   2.490  19.894  0.00  0.00    +0.000 C 
ENDBRANCH  11  14
ENDBRANCH   1  11
BRANCH   1  22
ATOM     22  C   UNL     1       6.481   7.608  17.436  0.00  0.00    +0.000 C 
BRANCH  22  24
ATOM     23  N   UNL     1       7.838   9.633  17.946  0.00  0.00    +0.000 N 
ATOM     24  C   UNL     1       7.725   8.260  18.038  0.00  0.00    +0.000 C 
ATOM     25  O   UNL     1       8.596   7.537  18.532  0.00  0.00    +0.000 OA
ATOM     26  H   UNL     1       7.390  10.088  17.161  0.00  0.00    +0.000 HD
BRANCH  23  32
ATOM     27  C   UNL     1       9.740  11.920  21.649  0.00  0.00    +0.000 C 
ATOM     28  C   UNL     1       9.910  11.423  20.244  0.00  0.00    +0.000 A 
ATOM     29  C   UNL     1      11.013  11.813  19.491  0.00  0.00    +0.000 A 
ATOM     30  C   UNL     1      11.077  11.421  18.161  0.00  0.00    +0.000 A 
ATOM     31  C   UNL     1      10.022  10.694  17.615  0.00  0.00    +0.000 A 
ATOM     32  C   UNL     1       8.950  10.343  18.430  0.00  0.00    +0.000 A 
ATOM     33  N   UNL     1       8.910  10.653  19.742  0.00  0.00    +0.000 NA
ENDBRANCH  23  32
ENDBRANCH  22  24
ENDBRANCH   1  22
TORSDOF 7
ENDMDL
MODEL 7
REMARK VINA RESULT:      -7.6      1.038      1.183
REMARK  Name = 
REMARK  13 active torsions:
REMARK  status: ('A' for Active; 'I' for Inactive)
REMARK    1  A    between atoms: C_1  and  C_2
REMARK    2  A    between atoms: C_6  and  N_7
REMARK    3  A    between atoms: C_8  and  C_10
REMARK    4  A    between atoms: C_10  and  N_11
REMARK    5  A    between atoms: N_11  and  C_12
REMARK    6  A    between atoms: N_11  and  S_21
REMARK    7  A    between atoms: C_15  and  C_16
REMARK    8  A    between atoms: C_16  and  C_17
REMARK    9  A    between atoms: C_16  and  C_18
REMARK   10  A    between atoms: S_21  and  C_24
REMARK   11  A    between atoms: C_25  and  C_26
REMARK   12  A    between atoms: N_28  and  C_29
REMARK   13  A    between atoms: C_30  and  C_31
REMARK                            x       y       z     vdW  Elec       q    Type
REMARK                         _______ _______ _______ _____ _____    ______ ____
ROOT
ATOM      1  N   UNL     1       3.826   5.433  17.911  0.00  0.00    +0.000 N 
ENDROOT
BRANCH   1   2
ATOM      2  C   UNL     1       3.137   6.602  18.354  0.00  0.00    +0.000 A 
ATOM      3  C   UNL     1       2.565   6.661  19.627  0.00  0.00    +0.000 A 
ATOM      4  C   UNL     1       1.785   7.763  19.992  0.00  0.00    +0.000 A 
ATOM      5  C   UNL     1       1.562   8.814  19.090  0.00  0.00    +0.000 A 
ATOM      6  C   UNL     1       2.225   8.784  17.853  0.00  0.00    +0.000 A 
ATOM      7  C   UNL     1       2.997   7.680  17.483  0.00  0.00    +0.000 A 
BRANCH   5   8
ATOM      8  C   UNL     1       0.520   9.876  19.406  0.00  0.00    +0.000 C 
ATOM      9  C   UNL     1       1.117  11.219  19.828  0.00  0.00    +0.000 C 
ATOM     10  C   UNL     1      -0.422  10.048  18.207  0.00  0.00    +0.000 C 
ENDBRANCH   5   8
ENDBRANCH   1   2
BRANCH   1  11
ATOM     11  S   UNL     1       2.959   3.982  17.779  0.00  0.00    +0.000 S 
ATOM     12  O   UNL     1       1.617   4.299  17.337  0.00  0.00    +0.000 OA
ATOM     13  O   UNL     1       3.777   3.082  16.994  0.00  0.00    +0.000 OA
BRANCH  11  14
ATOM     14  C   UNL     1       2.716   3.148  19.286  0.00  0.00    +0.000 A 
ATOM     15  C   UNL     1       3.735   2.647  20.153  0.00  0.00    +0.000 A 
ATOM     16  C   UNL     1       5.212   2.574  20.004  0.00  0.00    +0.000 C 
ATOM     17  N   UNL     1       3.224   2.222  21.312  0.00  0.00    +0.000 NA
ATOM     18  N   UNL     1       1.922   2.530  21.244  0.00  0.00    +0.000 N 
ATOM     19  C   UNL     1       1.134   2.473  22.453  0.00  0.00    +0.000 C 
ATOM     20  C   UNL     1       1.532   2.975  19.999  0.00  0.00    +0.000 A 
ATOM     21  C   UNL     1       0.116   3.279  19.697  0.00  0.00    +0.000 C 
ENDBRANCH  11  14
ENDBRANCH   1  11
BRANCH   1  22
ATOM     22  C   UNL     1       5.292   5.386  18.048  0.00  0.00    +0.000 C 
BRANCH  22  24
ATOM     23  N   UNL     1       5.513   5.235  15.572  0.00  0.00    +0.000 N 
ATOM     24  C   UNL     1       6.086   4.991  16.804  0.00  0.00    +0.000 C 
ATOM     25  O   UNL     1       7.177   4.429  16.948  0.00  0.00    +0.000 OA
ATOM     26  H   UNL     1       4.502   5.231  15.517  0.00  0.00    +0.000 HD
BRANCH  23  32
ATOM     27  C   UNL     1       5.376   2.407  11.758  0.00  0.00    +0.000 C 
ATOM     28  C   UNL     1       6.050   3.543  12.469  0.00  0.00    +0.000 A 
ATOM     29  C   UNL     1       7.264   4.039  12.006  0.00  0.00    +0.000 A 
ATOM     30  C   UNL     1       7.909   5.015  12.753  0.00  0.00    +0.000 A 
ATOM     31  C   UNL     1       7.347   5.430  13.958  0.00  0.00    +0.000 A 
ATOM     32  C   UNL     1       6.130   4.886  14.359  0.00  0.00    +0.000 A 
ATOM     33  N   UNL     1       5.457   3.992  13.605  0.00  0.00    +0.000 NA
ENDBRANCH  23  32
ENDBRANCH  22  24
ENDBRANCH   1  22
TORSDOF 7
ENDMDL
MODEL 8
REMARK VINA RESULT:      -7.6      4.140      7.437
REMARK  Name = 
REMARK  13 active torsions:
REMARK  status: ('A' for Active; 'I' for Inactive)
REMARK    1  A    between atoms: C_1  and  C_2
REMARK    2  A    between atoms: C_6  and  N_7
REMARK    3  A    between atoms: C_8  and  C_10
REMARK    4  A    between atoms: C_10  and  N_11
REMARK    5  A    between atoms: N_11  and  C_12
REMARK    6  A    between atoms: N_11  and  S_21
REMARK    7  A    between atoms: C_15  and  C_16
REMARK    8  A    between atoms: C_16  and  C_17
REMARK    9  A    between atoms: C_16  and  C_18
REMARK   10  A    between atoms: S_21  and  C_24
REMARK   11  A    between atoms: C_25  and  C_26
REMARK   12  A    between atoms: N_28  and  C_29
REMARK   13  A    between atoms: C_30  and  C_31
REMARK                            x       y       z     vdW  Elec       q    Type
REMARK                         _______ _______ _______ _____ _____    ______ ____
ROOT
ATOM      1  N   UNL     1       6.369   5.904  17.184  0.00  0.00    +0.000 N 
ENDROOT
BRANCH   1   2
ATOM      2  C   UNL     1       6.333   5.168  15.962  0.00  0.00    +0.000 A 
ATOM      3  C   UNL     1       7.450   5.107  15.125  0.00  0.00    +0.000 A 
ATOM      4  C   UNL     1       7.353   4.490  13.874  0.00  0.00    +0.000 A 
ATOM      5  C   UNL     1       6.140   3.933  13.442  0.00  0.00    +0.000 A 
ATOM      6  C   UNL     1       5.057   3.916  14.335  0.00  0.00    +0.000 A 
ATOM      7  C   UNL     1       5.149   4.539  15.582  0.00  0.00    +0.000 A 
BRANCH   5   8
ATOM      8  C   UNL     1       5.982   3.491  11.995  0.00  0.00    +0.000 C 
ATOM      9  C   UNL     1       6.802   2.251  11.636  0.00  0.00    +0.000 C 
ATOM     10  C   UNL     1       4.496   3.275  11.681  0.00  0.00    +0.000 C 
ENDBRANCH   5   8
ENDBRANCH   1   2
BRANCH   1  11
ATOM     11  S   UNL     1       5.842   5.144  18.605  0.00  0.00    +0.000 S 
ATOM     12  O   UNL     1       6.419   3.818  18.645  0.00  0.00    +0.000 OA
ATOM     13  O   UNL     1       6.097   6.069  19.688  0.00  0.00    +0.000 OA
BRANCH  11  14
ATOM     14  C   UNL     1       4.128   4.855  18.674  0.00  0.00    +0.000 A 
ATOM     15  C   UNL     1       3.096   5.774  18.309  0.00  0.00    +0.000 A 
ATOM     16  C   UNL     1       3.144   7.202  17.900  0.00  0.00    +0.000 C 
ATOM     17  N   UNL     1       1.897   5.185  18.305  0.00  0.00    +0.000 NA
ATOM     18  N   UNL     1       2.150   3.895  18.560  0.00  0.00    +0.000 N 
ATOM     19  C   UNL     1       1.102   2.926  18.335  0.00  0.00    +0.000 C 
ATOM     20  C   UNL     1       3.460   3.656  18.915  0.00  0.00    +0.000 A 
ATOM     21  C   UNL     1       3.917   2.309  19.323  0.00  0.00    +0.000 C 
ENDBRANCH  11  14
ENDBRANCH   1  11
BRANCH   1  22
ATOM     22  C   UNL     1       6.385   7.376  17.119  0.00  0.00    +0.000 C 
BRANCH  22  24
ATOM     23  N   UNL     1       7.587   9.460  17.765  0.00  0.00    +0.000 N 
ATOM     24  C   UNL     1       7.565   8.080  17.788  0.00  0.00    +0.000 C 
ATOM     25  O   UNL     1       8.470   7.393  18.274  0.00  0.00    +0.000 OA
ATOM     26  H   UNL     1       7.130   9.923  16.989  0.00  0.00    +0.000 HD
BRANCH  23  32
ATOM     27  C   UNL     1      10.648  13.026  17.076  0.00  0.00    +0.000 C 
ATOM     28  C   UNL     1      10.105  11.986  18.010  0.00  0.00    +0.000 A 
ATOM     29  C   UNL     1      10.738  11.733  19.222  0.00  0.00    +0.000 A 
ATOM     30  C   UNL     1      10.269  10.689  20.008  0.00  0.00    +0.000 A 
ATOM     31  C   UNL     1       9.216   9.906  19.540  0.00  0.00    +0.000 A 
ATOM     32  C   UNL     1       8.635  10.218  18.315  0.00  0.00    +0.000 A 
ATOM     33  N   UNL     1       9.032  11.275  17.577  0.00  0.00    +0.000 NA
ENDBRANCH  23  32
ENDBRANCH  22  24
ENDBRANCH   1  22
TORSDOF 7
ENDMDL
MODEL 9
REMARK VINA RESULT:      -7.5      5.084      8.582
REMARK  Name = 
REMARK  13 active torsions:
REMARK  status: ('A' for Active; 'I' for Inactive)
REMARK    1  A    between atoms: C_1  and  C_2
REMARK    2  A    between atoms: C_6  and  N_7
REMARK    3  A    between atoms: C_8  and  C_10
REMARK    4  A    between atoms: C_10  and  N_11
REMARK    5  A    between atoms: N_11  and  C_12
REMARK    6  A    between atoms: N_11  and  S_21
REMARK    7  A    between atoms: C_15  and  C_16
REMARK    8  A    between atoms: C_16  and  C_17
REMARK    9  A    between atoms: C_16  and  C_18
REMARK   10  A    between atoms: S_21  and  C_24
REMARK   11  A    between atoms: C_25  and  C_26
REMARK   12  A    between atoms: N_28  and  C_29
REMARK   13  A    between atoms: C_30  and  C_31
REMARK                            x       y       z     vdW  Elec       q    Type
REMARK                         _______ _______ _______ _____ _____    ______ ____
ROOT
ATOM      1  N   UNL     1       0.305  11.566  20.466  0.00  0.00    +0.000 N 
ENDROOT
BRANCH   1   2
ATOM      2  C   UNL     1       1.390  12.358  19.985  0.00  0.00    +0.000 A 
ATOM      3  C   UNL     1       2.039  13.272  20.818  0.00  0.00    +0.000 A 
ATOM      4  C   UNL     1       3.012  14.128  20.293  0.00  0.00    +0.000 A 
ATOM      5  C   UNL     1       3.343  14.087  18.931  0.00  0.00    +0.000 A 
ATOM      6  C   UNL     1       2.752  13.096  18.130  0.00  0.00    +0.000 A 
ATOM      7  C   UNL     1       1.774  12.245  18.650  0.00  0.00    +0.000 A 
BRANCH   5   8
ATOM      8  C   UNL     1       4.212  15.180  18.328  0.00  0.00    +0.000 C 
ATOM      9  C   UNL     1       5.571  14.684  17.832  0.00  0.00    +0.000 C 
ATOM     10  C   UNL     1       3.445  15.889  17.204  0.00  0.00    +0.000 C 
ENDBRANCH   5   8
ENDBRANCH   1   2
BRANCH   1  11
ATOM     11  S   UNL     1      -1.271  12.170  20.312  0.00  0.00    +0.000 S 
ATOM     12  O   UNL     1      -1.987  11.875  21.535  0.00  0.00    +0.000 OA
ATOM     13  O   UNL     1      -1.147  13.542  19.869  0.00  0.00    +0.000 OA
BRANCH  11  14
ATOM     14  C   UNL     1      -2.221  11.398  19.076  0.00  0.00    +0.000 A 
ATOM     15  C   UNL     1      -3.590  11.666  18.766  0.00  0.00    +0.000 A 
ATOM     16  C   UNL     1      -4.601  12.535  19.423  0.00  0.00    +0.000 C 
ATOM     17  N   UNL     1      -3.970  11.036  17.650  0.00  0.00    +0.000 NA
ATOM     18  N   UNL     1      -2.854  10.456  17.189  0.00  0.00    +0.000 N 
ATOM     19  C   UNL     1      -2.849   9.939  15.841  0.00  0.00    +0.000 C 
ATOM     20  C   UNL     1      -1.797  10.533  18.070  0.00  0.00    +0.000 A 
ATOM     21  C   UNL     1      -0.503   9.873  17.783  0.00  0.00    +0.000 C 
ENDBRANCH  11  14
ENDBRANCH   1  11
BRANCH   1  22
ATOM     22  C   UNL     1       0.582  10.531  21.478  0.00  0.00    +0.000 C 
BRANCH  22  24
ATOM     23  N   UNL     1       1.814   8.669  20.375  0.00  0.00    +0.000 N 
ATOM     24  C   UNL     1       0.648   9.087  20.983  0.00  0.00    +0.000 C 
ATOM     25  O   UNL     1      -0.353   8.372  21.100  0.00  0.00    +0.000 OA
ATOM     26  H   UNL     1       2.367   9.366  19.892  0.00  0.00    +0.000 HD
BRANCH  23  32
ATOM     27  C   UNL     1       2.063   4.026  21.347  0.00  0.00    +0.000 C 
ATOM     28  C   UNL     1       2.060   5.103  20.304  0.00  0.00    +0.000 A 
ATOM     29  C   UNL     1       2.374   4.800  18.982  0.00  0.00    +0.000 A 
ATOM     30  C   UNL     1       2.468   5.842  18.069  0.00  0.00    +0.000 A 
ATOM     31  C   UNL     1       2.291   7.151  18.511  0.00  0.00    +0.000 A 
ATOM     32  C   UNL     1       1.982   7.376  19.849  0.00  0.00    +0.000 A 
ATOM     33  N   UNL     1       1.815   6.368  20.730  0.00  0.00    +0.000 NA
ENDBRANCH  23  32
ENDBRANCH  22  24
ENDBRANCH   1  22
TORSDOF 7
ENDMDL
