MODEL 1
REMARK VINA RESULT:      -8.2      0.000      0.000
REMARK  Name = 
REMARK  5 active torsions:
REMARK  status: ('A' for Active; 'I' for Inactive)
REMARK    1  A    between atoms: C_1  and  C_2
REMARK    2  A    between atoms: C_2  and  N_3
REMARK    3  A    between atoms: C_10  and  C_11
REMARK    4  A    between atoms: C_11  and  N_12
REMARK    5  A    between atoms: N_15  and  C_16
REMARK                            x       y       z     vdW  Elec       q    Type
REMARK                         _______ _______ _______ _____ _____    ______ ____
ROOT
ATOM      1  N   UNL     1       0.746  10.682  20.187  0.00  0.00    +0.000 N 
ATOM      2  C   UNL     1       0.373  10.782  21.516  0.00  0.00    +0.000 C 
ATOM      3  O   UNL     1      -0.143  11.787  22.011  0.00  0.00    +0.000 OA
ATOM      4  C   UNL     1       0.570   9.517  22.351  0.00  0.00    +0.000 C 
ATOM      5  O   UNL     1       1.381   8.449  21.904  0.00  0.00    +0.000 OA
ATOM      6  C   UNL     1       1.560   8.393  20.548  0.00  0.00    +0.000 A 
ATOM      7  C   UNL     1       2.071   7.171  20.058  0.00  0.00    +0.000 A 
ATOM      8  C   UNL     1       2.321   6.996  18.690  0.00  0.00    +0.000 A 
ATOM      9  C   UNL     1       2.078   8.082  17.838  0.00  0.00    +0.000 A 
ATOM     10  C   UNL     1       1.588   9.295  18.328  0.00  0.00    +0.000 A 
ATOM     11  C   UNL     1       1.298   9.465  19.686  0.00  0.00    +0.000 A 
ENDROOT
BRANCH   1  13
ATOM     12  C   UNL     1      -0.985  11.724  18.753  0.00  0.00    +0.000 C 
ATOM     13  C   UNL     1       0.436  11.799  19.298  0.00  0.00    +0.000 C 
ENDBRANCH   1  13
BRANCH   8  14
ATOM     14  C   UNL     1       2.775   5.668  18.088  0.00  0.00    +0.000 C 
BRANCH  14  15
ATOM     15  N   UNL     1       4.219   5.455  18.263  0.00  0.00    +0.000 NA
ATOM     16  C   UNL     1       4.658   4.095  17.894  0.00  0.00    +0.000 C 
ATOM     17  C   UNL     1       4.813   3.847  16.377  0.00  0.00    +0.000 C 
ATOM     18  N   UNL     1       5.728   4.833  15.779  0.00  0.00    +0.000 N 
ATOM     19  C   UNL     1       5.410   6.241  16.087  0.00  0.00    +0.000 C 
ATOM     20  C   UNL     1       5.079   6.447  17.591  0.00  0.00    +0.000 C 
BRANCH  18  21
ATOM     21  C   UNL     1       6.253   4.562  14.511  0.00  0.00    +0.000 A 
ATOM     22  C   UNL     1       7.385   5.212  13.989  0.00  0.00    +0.000 A 
ATOM     23  C   UNL     1       7.814   5.004  12.670  0.00  0.00    +0.000 A 
ATOM     24  C   UNL     1       7.118   4.139  11.838  0.00  0.00    +0.000 A 
ATOM     25  C   UNL     1       6.006   3.458  12.333  0.00  0.00    +0.000 A 
ATOM     26  C   UNL     1       5.592   3.666  13.655  0.00  0.00    +0.000 A 
ENDBRANCH  18  21
ENDBRANCH  14  15
ENDBRANCH   8  14
TORSDOF 4
ENDMDL
MODEL 2
REMARK VINA RESULT:      -7.9      1.035      1.927
REMARK  Name = 
REMARK  5 active torsions:
REMARK  status: ('A' for Active; 'I' for Inactive)
REMARK    1  A    between atoms: C_1  and  C_2
REMARK    2  A    between atoms: C_2  and  N_3
REMARK    3  A    between atoms: C_10  and  C_11
REMARK    4  A    between atoms: C_11  and  N_12
REMARK    5  A    between atoms: N_15  and  C_16
REMARK                            x       y       z     vdW  Elec       q    Type
REMARK                         _______ _______ _______ _____ _____    ______ ____
ROOT
ATOM      1  N   UNL     1       0.795  10.081  21.111  0.00  0.00    +0.000 N 
ATOM      2  C   UNL     1       0.591  11.311  20.508  0.00  0.00    +0.000 C 
ATOM      3  O   UNL     1       0.229  12.322  21.114  0.00  0.00    +0.000 OA
ATOM      4  C   UNL     1       0.921  11.374  19.017  0.00  0.00    +0.000 C 
ATOM      5  O   UNL     1       1.086  10.204  18.241  0.00  0.00    +0.000 OA
ATOM      6  C   UNL     1       1.416   9.084  18.955  0.00  0.00    +0.000 A 
ATOM      7  C   UNL     1       1.908   8.004  18.188  0.00  0.00    +0.000 A 
ATOM      8  C   UNL     1       2.260   6.793  18.799  0.00  0.00    +0.000 A 
ATOM      9  C   UNL     1       2.075   6.682  20.184  0.00  0.00    +0.000 A 
ATOM     10  C   UNL     1       1.572   7.746  20.937  0.00  0.00    +0.000 A 
ATOM     11  C   UNL     1       1.257   8.972  20.342  0.00  0.00    +0.000 A 
ENDROOT
BRANCH   1  13
ATOM     12  C   UNL     1      -0.782   9.695  22.983  0.00  0.00    +0.000 C 
ATOM     13  C   UNL     1       0.652   9.994  22.562  0.00  0.00    +0.000 C 
ENDBRANCH   1  13
BRANCH   8  14
ATOM     14  C   UNL     1       2.892   5.628  18.040  0.00  0.00    +0.000 C 
BRANCH  14  15
ATOM     15  N   UNL     1       4.359   5.650  18.131  0.00  0.00    +0.000 NA
ATOM     16  C   UNL     1       4.979   4.332  17.893  0.00  0.00    +0.000 C 
ATOM     17  C   UNL     1       5.085   3.916  16.409  0.00  0.00    +0.000 C 
ATOM     18  N   UNL     1       5.804   4.939  15.632  0.00  0.00    +0.000 N 
ATOM     19  C   UNL     1       5.293   6.314  15.794  0.00  0.00    +0.000 C 
ATOM     20  C   UNL     1       5.019   6.662  17.284  0.00  0.00    +0.000 C 
BRANCH  18  21
ATOM     21  C   UNL     1       6.292   4.587  14.369  0.00  0.00    +0.000 A 
ATOM     22  C   UNL     1       7.407   5.201  13.774  0.00  0.00    +0.000 A 
ATOM     23  C   UNL     1       7.798   4.908  12.459  0.00  0.00    +0.000 A 
ATOM     24  C   UNL     1       7.079   3.992  11.706  0.00  0.00    +0.000 A 
ATOM     25  C   UNL     1       5.984   3.345  12.276  0.00  0.00    +0.000 A 
ATOM     26  C   UNL     1       5.607   3.637  13.593  0.00  0.00    +0.000 A 
ENDBRANCH  18  21
ENDBRANCH  14  15
ENDBRANCH   8  14
TORSDOF 4
ENDMDL
MODEL 3
REMARK VINA RESULT:      -7.3      3.200     10.114
REMARK  Name = 
REMARK  5 active torsions:
REMARK  status: ('A' for Active; 'I' for Inactive)
REMARK    1  A    between atoms: C_1  and  C_2
REMARK    2  A    between atoms: C_2  and  N_3
REMARK    3  A    between atoms: C_10  and  C_11
REMARK    4  A    between atoms: C_11  and  N_12
REMARK    5  A    between atoms: N_15  and  C_16
REMARK                            x       y       z     vdW  Elec       q    Type
REMARK                         _______ _______ _______ _____ _____    ______ ____
ROOT
ATOM      1  N   UNL     1       3.336   3.748  18.178  0.00  0.00    +0.000 N 
ATOM      2  C   UNL     1       3.255   2.514  18.802  0.00  0.00    +0.000 C 
ATOM      3  O   UNL     1       3.708   1.472  18.322  0.00  0.00    +0.000 OA
ATOM      4  C   UNL     1       2.624   2.521  20.193  0.00  0.00    +0.000 C 
ATOM      5  O   UNL     1       1.872   3.621  20.664  0.00  0.00    +0.000 OA
ATOM      6  C   UNL     1       2.148   4.811  20.047  0.00  0.00    +0.000 A 
ATOM      7  C   UNL     1       1.670   5.960  20.714  0.00  0.00    +0.000 A 
ATOM      8  C   UNL     1       1.868   7.238  20.172  0.00  0.00    +0.000 A 
ATOM      9  C   UNL     1       2.524   7.329  18.937  0.00  0.00    +0.000 A 
ATOM     10  C   UNL     1       2.982   6.188  18.272  0.00  0.00    +0.000 A 
ATOM     11  C   UNL     1       2.824   4.913  18.824  0.00  0.00    +0.000 A 
ENDROOT
BRANCH   1  13
ATOM     12  C   UNL     1       5.543   4.167  17.134  0.00  0.00    +0.000 C 
ATOM     13  C   UNL     1       4.071   3.838  16.920  0.00  0.00    +0.000 C 
ENDBRANCH   1  13
BRANCH   8  14
ATOM     14  C   UNL     1       1.466   8.522  20.894  0.00  0.00    +0.000 C 
BRANCH  14  15
ATOM     15  N   UNL     1       0.011   8.733  20.863  0.00  0.00    +0.000 NA
ATOM     16  C   UNL     1      -0.592   8.842  22.205  0.00  0.00    +0.000 C 
ATOM     17  C   UNL     1      -0.416  10.215  22.892  0.00  0.00    +0.000 C 
ATOM     18  N   UNL     1      -0.932  11.296  22.037  0.00  0.00    +0.000 N 
ATOM     19  C   UNL     1      -0.418  11.292  20.653  0.00  0.00    +0.000 C 
ATOM     20  C   UNL     1      -0.434   9.868  20.031  0.00  0.00    +0.000 C 
BRANCH  18  21
ATOM     21  C   UNL     1      -1.172  12.544  22.622  0.00  0.00    +0.000 A 
ATOM     22  C   UNL     1      -2.280  12.811  23.444  0.00  0.00    +0.000 A 
ATOM     23  C   UNL     1      -2.555  14.102  23.917  0.00  0.00    +0.000 A 
ATOM     24  C   UNL     1      -1.727  15.161  23.576  0.00  0.00    +0.000 A 
ATOM     25  C   UNL     1      -0.604  14.926  22.784  0.00  0.00    +0.000 A 
ATOM     26  C   UNL     1      -0.332  13.630  22.325  0.00  0.00    +0.000 A 
ENDBRANCH  18  21
ENDBRANCH  14  15
ENDBRANCH   8  14
TORSDOF 4
ENDMDL
MODEL 4
REMARK VINA RESULT:      -7.2      2.866      8.809
REMARK  Name = 
REMARK  5 active torsions:
REMARK  status: ('A' for Active; 'I' for Inactive)
REMARK    1  A    between atoms: C_1  and  C_2
REMARK    2  A    between atoms: C_2  and  N_3
REMARK    3  A    between atoms: C_10  and  C_11
REMARK    4  A    between atoms: C_11  and  N_12
REMARK    5  A    between atoms: N_15  and  C_16
REMARK                            x       y       z     vdW  Elec       q    Type
REMARK                         _______ _______ _______ _____ _____    ______ ____
ROOT
ATOM      1  N   UNL     1       5.979   4.359  16.976  0.00  0.00    +0.000 N 
ATOM      2  C   UNL     1       7.292   4.519  17.384  0.00  0.00    +0.000 C 
ATOM      3  O   UNL     1       8.265   4.120  16.739  0.00  0.00    +0.000 OA
ATOM      4  C   UNL     1       7.487   5.307  18.678  0.00  0.00    +0.000 C 
ATOM      5  O   UNL     1       6.417   5.553  19.568  0.00  0.00    +0.000 OA
ATOM      6  C   UNL     1       5.173   5.492  19.000  0.00  0.00    +0.000 A 
ATOM      7  C   UNL     1       4.132   6.055  19.771  0.00  0.00    +0.000 A 
ATOM      8  C   UNL     1       2.808   6.034  19.309  0.00  0.00    +0.000 A 
ATOM      9  C   UNL     1       2.554   5.409  18.081  0.00  0.00    +0.000 A 
ATOM     10  C   UNL     1       3.585   4.839  17.329  0.00  0.00    +0.000 A 
ATOM     11  C   UNL     1       4.914   4.890  17.762  0.00  0.00    +0.000 A 
ENDROOT
BRANCH   1  13
ATOM     12  C   UNL     1       5.744   4.788  14.547  0.00  0.00    +0.000 C 
ATOM     13  C   UNL     1       5.731   3.756  15.669  0.00  0.00    +0.000 C 
ENDBRANCH   1  13
BRANCH   8  14
ATOM     14  C   UNL     1       1.657   6.715  20.047  0.00  0.00    +0.000 C 
BRANCH  14  15
ATOM     15  N   UNL     1       1.880   8.161  20.190  0.00  0.00    +0.000 NA
ATOM     16  C   UNL     1       1.930   8.875  18.900  0.00  0.00    +0.000 C 
ATOM     17  C   UNL     1       0.555   9.160  18.255  0.00  0.00    +0.000 C 
ATOM     18  N   UNL     1      -0.315   9.897  19.187  0.00  0.00    +0.000 N 
ATOM     19  C   UNL     1      -0.438   9.295  20.529  0.00  0.00    +0.000 C 
ATOM     20  C   UNL     1       0.939   8.848  21.095  0.00  0.00    +0.000 C 
BRANCH  18  21
ATOM     21  C   UNL     1      -1.448  10.534  18.669  0.00  0.00    +0.000 A 
ATOM     22  C   UNL     1      -2.150  11.539  19.356  0.00  0.00    +0.000 A 
ATOM     23  C   UNL     1      -3.349  12.072  18.861  0.00  0.00    +0.000 A 
ATOM     24  C   UNL     1      -3.877  11.610  17.665  0.00  0.00    +0.000 A 
ATOM     25  C   UNL     1      -3.191  10.632  16.945  0.00  0.00    +0.000 A 
ATOM     26  C   UNL     1      -1.989  10.113  17.443  0.00  0.00    +0.000 A 
ENDBRANCH  18  21
ENDBRANCH  14  15
ENDBRANCH   8  14
TORSDOF 4
ENDMDL
MODEL 5
REMARK VINA RESULT:      -7.2      3.595      9.636
REMARK  Name = 
REMARK  5 active torsions:
REMARK  status: ('A' for Active; 'I' for Inactive)
REMARK    1  A    between atoms: C_1  and  C_2
REMARK    2  A    between atoms: C_2  and  N_3
REMARK    3  A    between atoms: C_10  and  C_11
REMARK    4  A    between atoms: C_11  and  N_12
REMARK    5  A    between atoms: N_15  and  C_16
REMARK                            x       y       z     vdW  Elec       q    Type
REMARK                         _______ _______ _______ _____ _____    ______ ____
ROOT
ATOM      1  N   UNL     1       3.045   3.974  19.637  0.00  0.00    +0.000 N 
ATOM      2  C   UNL     1       3.578   3.252  18.583  0.00  0.00    +0.000 C 
ATOM      3  O   UNL     1       3.837   2.048  18.637  0.00  0.00    +0.000 OA
ATOM      4  C   UNL     1       3.766   4.030  17.282  0.00  0.00    +0.000 C 
ATOM      5  O   UNL     1       3.729   5.443  17.247  0.00  0.00    +0.000 OA
ATOM      6  C   UNL     1       3.054   6.025  18.286  0.00  0.00    +0.000 A 
ATOM      7  C   UNL     1       2.718   7.384  18.099  0.00  0.00    +0.000 A 
ATOM      8  C   UNL     1       2.046   8.100  19.100  0.00  0.00    +0.000 A 
ATOM      9  C   UNL     1       1.751   7.431  20.296  0.00  0.00    +0.000 A 
ATOM     10  C   UNL     1       2.100   6.090  20.483  0.00  0.00    +0.000 A 
ATOM     11  C   UNL     1       2.735   5.357  19.475  0.00  0.00    +0.000 A 
ENDROOT
BRANCH   1  13
ATOM     12  C   UNL     1       1.219   2.864  20.890  0.00  0.00    +0.000 C 
ATOM     13  C   UNL     1       2.692   3.254  20.857  0.00  0.00    +0.000 C 
ENDBRANCH   1  13
BRANCH   8  14
ATOM     14  C   UNL     1       1.566   9.538  18.918  0.00  0.00    +0.000 C 
BRANCH  14  15
ATOM     15  N   UNL     1       0.407   9.839  19.771  0.00  0.00    +0.000 NA
ATOM     16  C   UNL     1       0.729  10.737  20.897  0.00  0.00    +0.000 C 
ATOM     17  C   UNL     1       0.839  12.234  20.531  0.00  0.00    +0.000 C 
ATOM     18  N   UNL     1      -0.392  12.701  19.873  0.00  0.00    +0.000 N 
ATOM     19  C   UNL     1      -0.838  11.876  18.733  0.00  0.00    +0.000 C 
ATOM     20  C   UNL     1      -0.774  10.356  19.054  0.00  0.00    +0.000 C 
BRANCH  18  21
ATOM     21  C   UNL     1      -0.612  14.080  19.784  0.00  0.00    +0.000 A 
ATOM     22  C   UNL     1      -1.483  14.779  20.636  0.00  0.00    +0.000 A 
ATOM     23  C   UNL     1      -1.771  16.138  20.444  0.00  0.00    +0.000 A 
ATOM     24  C   UNL     1      -1.194  16.832  19.391  0.00  0.00    +0.000 A 
ATOM     25  C   UNL     1      -0.304  16.174  18.542  0.00  0.00    +0.000 A 
ATOM     26  C   UNL     1      -0.015  14.819  18.749  0.00  0.00    +0.000 A 
ENDBRANCH  18  21
ENDBRANCH  14  15
ENDBRANCH   8  14
TORSDOF 4
ENDMDL
MODEL 6
REMARK VINA RESULT:      -7.1      3.084      9.687
REMARK  Name = 
REMARK  5 active torsions:
REMARK  status: ('A' for Active; 'I' for Inactive)
REMARK    1  A    between atoms: C_1  and  C_2
REMARK    2  A    between atoms: C_2  and  N_3
REMARK    3  A    between atoms: C_10  and  C_11
REMARK    4  A    between atoms: C_11  and  N_12
REMARK    5  A    between atoms: N_15  and  C_16
REMARK                            x       y       z     vdW  Elec       q    Type
REMARK                         _______ _______ _______ _____ _____    ______ ____
ROOT
ATOM      1  N   UNL     1       3.955   5.940  17.933  0.00  0.00    +0.000 N 
ATOM      2  C   UNL     1       4.166   4.840  18.748  0.00  0.00    +0.000 C 
ATOM      3  O   UNL     1       4.952   3.928  18.480  0.00  0.00    +0.000 OA
ATOM      4  C   UNL     1       3.409   4.850  20.075  0.00  0.00    +0.000 C 
ATOM      5  O   UNL     1       2.322   5.725  20.305  0.00  0.00    +0.000 OA
ATOM      6  C   UNL     1       2.309   6.843  19.516  0.00  0.00    +0.000 A 
ATOM      7  C   UNL     1       1.446   7.874  19.949  0.00  0.00    +0.000 A 
ATOM      8  C   UNL     1       1.325   9.063  19.214  0.00  0.00    +0.000 A 
ATOM      9  C   UNL     1       2.061   9.174  18.026  0.00  0.00    +0.000 A 
ATOM     10  C   UNL     1       2.901   8.144  17.593  0.00  0.00    +0.000 A 
ATOM     11  C   UNL     1       3.059   6.972  18.340  0.00  0.00    +0.000 A 
ENDROOT
BRANCH   1  13
ATOM     12  C   UNL     1       6.092   6.776  16.999  0.00  0.00    +0.000 C 
ATOM     13  C   UNL     1       4.768   6.071  16.728  0.00  0.00    +0.000 C 
ENDBRANCH   1  13
BRANCH   8  14
ATOM     14  C   UNL     1       0.490  10.252  19.683  0.00  0.00    +0.000 C 
BRANCH  14  15
ATOM     15  N   UNL     1      -0.020  11.041  18.552  0.00  0.00    +0.000 NA
ATOM     16  C   UNL     1      -1.000  10.311  17.725  0.00  0.00    +0.000 C 
ATOM     17  C   UNL     1      -2.428  10.241  18.310  0.00  0.00    +0.000 C 
ATOM     18  N   UNL     1      -2.941  11.591  18.594  0.00  0.00    +0.000 N 
ATOM     19  C   UNL     1      -2.044  12.438  19.405  0.00  0.00    +0.000 C 
ATOM     20  C   UNL     1      -0.571  12.361  18.915  0.00  0.00    +0.000 C 
BRANCH  18  21
ATOM     21  C   UNL     1      -4.317  11.746  18.797  0.00  0.00    +0.000 A 
ATOM     22  C   UNL     1      -4.862  12.562  19.803  0.00  0.00    +0.000 A 
ATOM     23  C   UNL     1      -6.241  12.601  20.055  0.00  0.00    +0.000 A 
ATOM     24  C   UNL     1      -7.110  11.821  19.307  0.00  0.00    +0.000 A 
ATOM     25  C   UNL     1      -6.604  11.021  18.283  0.00  0.00    +0.000 A 
ATOM     26  C   UNL     1      -5.226  10.996  18.033  0.00  0.00    +0.000 A 
ENDBRANCH  18  21
ENDBRANCH  14  15
ENDBRANCH   8  14
TORSDOF 4
ENDMDL
MODEL 7
REMARK VINA RESULT:      -7.1      3.582      9.561
REMARK  Name = 
REMARK  5 active torsions:
REMARK  status: ('A' for Active; 'I' for Inactive)
REMARK    1  A    between atoms: C_1  and  C_2
REMARK    2  A    between atoms: C_2  and  N_3
REMARK    3  A    between atoms: C_10  and  C_11
REMARK    4  A    between atoms: C_11  and  N_12
REMARK    5  A    between atoms: N_15  and  C_16
REMARK                            x       y       z     vdW  Elec       q    Type
REMARK                         _______ _______ _______ _____ _____    ______ ____
ROOT
ATOM      1  N   UNL     1       2.895   5.277  19.796  0.00  0.00    +0.000 N 
ATOM      2  C   UNL     1       3.624   4.544  18.876  0.00  0.00    +0.000 C 
ATOM      3  O   UNL     1       3.976   3.375  19.053  0.00  0.00    +0.000 OA
ATOM      4  C   UNL     1       3.917   5.252  17.554  0.00  0.00    +0.000 C 
ATOM      5  O   UNL     1       3.764   6.650  17.408  0.00  0.00    +0.000 OA
ATOM      6  C   UNL     1       2.908   7.229  18.306  0.00  0.00    +0.000 A 
ATOM      7  C   UNL     1       2.485   8.536  17.976  0.00  0.00    +0.000 A 
ATOM      8  C   UNL     1       1.626   9.247  18.827  0.00  0.00    +0.000 A 
ATOM      9  C   UNL     1       1.233   8.630  20.022  0.00  0.00    +0.000 A 
ATOM     10  C   UNL     1       1.667   7.344  20.353  0.00  0.00    +0.000 A 
ATOM     11  C   UNL     1       2.492   6.612  19.492  0.00  0.00    +0.000 A 
ENDROOT
BRANCH   1  13
ATOM     12  C   UNL     1       1.220   3.732  20.768  0.00  0.00    +0.000 C 
ATOM     13  C   UNL     1       2.445   4.606  21.012  0.00  0.00    +0.000 C 
ENDBRANCH   1  13
BRANCH   8  14
ATOM     14  C   UNL     1       1.053  10.618  18.476  0.00  0.00    +0.000 C 
BRANCH  14  15
ATOM     15  N   UNL     1       0.865  11.453  19.672  0.00  0.00    +0.000 NA
ATOM     16  C   UNL     1       1.972  12.401  19.903  0.00  0.00    +0.000 C 
ATOM     17  C   UNL     1       1.941  13.671  19.022  0.00  0.00    +0.000 C 
ATOM     18  N   UNL     1       0.657  14.375  19.168  0.00  0.00    +0.000 N 
ATOM     19  C   UNL     1      -0.539  13.532  18.979  0.00  0.00    +0.000 C 
ATOM     20  C   UNL     1      -0.420  12.176  19.729  0.00  0.00    +0.000 C 
BRANCH  18  21
ATOM     21  C   UNL     1       0.577  15.701  18.728  0.00  0.00    +0.000 A 
ATOM     22  C   UNL     1      -0.635  16.399  18.596  0.00  0.00    +0.000 A 
ATOM     23  C   UNL     1      -0.690  17.685  18.039  0.00  0.00    +0.000 A 
ATOM     24  C   UNL     1       0.470  18.304  17.597  0.00  0.00    +0.000 A 
ATOM     25  C   UNL     1       1.693  17.649  17.738  0.00  0.00    +0.000 A 
ATOM     26  C   UNL     1       1.738  16.369  18.305  0.00  0.00    +0.000 A 
ENDBRANCH  18  21
ENDBRANCH  14  15
ENDBRANCH   8  14
TORSDOF 4
ENDMDL
MODEL 8
REMARK VINA RESULT:      -7.1      1.284      2.309
REMARK  Name = 
REMARK  5 active torsions:
REMARK  status: ('A' for Active; 'I' for Inactive)
REMARK    1  A    between atoms: C_1  and  C_2
REMARK    2  A    between atoms: C_2  and  N_3
REMARK    3  A    between atoms: C_10  and  C_11
REMARK    4  A    between atoms: C_11  and  N_12
REMARK    5  A    between atoms: N_15  and  C_16
REMARK                            x       y       z     vdW  Elec       q    Type
REMARK                         _______ _______ _______ _____ _____    ______ ____
ROOT
ATOM      1  N   UNL     1       0.309   9.230  20.757  0.00  0.00    +0.000 N 
ATOM      2  C   UNL     1       0.292  10.476  20.154  0.00  0.00    +0.000 C 
ATOM      3  O   UNL     1      -0.372  11.429  20.567  0.00  0.00    +0.000 OA
ATOM      4  C   UNL     1       1.225  10.639  18.955  0.00  0.00    +0.000 C 
ATOM      5  O   UNL     1       1.796   9.524  18.299  0.00  0.00    +0.000 OA
ATOM      6  C   UNL     1       1.871   8.389  19.059  0.00  0.00    +0.000 A 
ATOM      7  C   UNL     1       2.726   7.383  18.556  0.00  0.00    +0.000 A 
ATOM      8  C   UNL     1       2.872   6.163  19.231  0.00  0.00    +0.000 A 
ATOM      9  C   UNL     1       2.119   5.966  20.396  0.00  0.00    +0.000 A 
ATOM     10  C   UNL     1       1.262   6.957  20.882  0.00  0.00    +0.000 A 
ATOM     11  C   UNL     1       1.140   8.193  20.238  0.00  0.00    +0.000 A 
ENDROOT
BRANCH   1  13
ATOM     12  C   UNL     1       0.346   9.548  23.214  0.00  0.00    +0.000 C 
ATOM     13  C   UNL     1      -0.436   9.056  22.001  0.00  0.00    +0.000 C 
ENDBRANCH   1  13
BRANCH   8  14
ATOM     14  C   UNL     1       3.856   5.080  18.793  0.00  0.00    +0.000 C 
BRANCH  14  15
ATOM     15  N   UNL     1       5.171   5.643  18.451  0.00  0.00    +0.000 NA
ATOM     16  C   UNL     1       6.178   4.617  18.118  0.00  0.00    +0.000 C 
ATOM     17  C   UNL     1       6.068   4.030  16.693  0.00  0.00    +0.000 C 
ATOM     18  N   UNL     1       6.112   5.101  15.684  0.00  0.00    +0.000 N 
ATOM     19  C   UNL     1       5.160   6.207  15.910  0.00  0.00    +0.000 C 
ATOM     20  C   UNL     1       5.150   6.672  17.393  0.00  0.00    +0.000 C 
BRANCH  18  21
ATOM     21  C   UNL     1       6.371   4.746  14.356  0.00  0.00    +0.000 A 
ATOM     22  C   UNL     1       5.658   3.749  13.670  0.00  0.00    +0.000 A 
ATOM     23  C   UNL     1       6.022   3.335  12.380  0.00  0.00    +0.000 A 
ATOM     24  C   UNL     1       7.112   3.911  11.744  0.00  0.00    +0.000 A 
ATOM     25  C   UNL     1       7.825   4.922  12.387  0.00  0.00    +0.000 A 
ATOM     26  C   UNL     1       7.448   5.335  13.671  0.00  0.00    +0.000 A 
ENDBRANCH  18  21
ENDBRANCH  14  15
ENDBRANCH   8  14
TORSDOF 4
ENDMDL
MODEL 9
REMARK VINA RESULT:      -7.0      3.173     10.306
REMARK  Name = 
REMARK  5 active torsions:
REMARK  status: ('A' for Active; 'I' for Inactive)
REMARK    1  A    between atoms: C_1  and  C_2
REMARK    2  A    between atoms: C_2  and  N_3
REMARK    3  A    between atoms: C_10  and  C_11
REMARK    4  A    between atoms: C_11  and  N_12
REMARK    5  A    between atoms: N_15  and  C_16
REMARK                            x       y       z     vdW  Elec       q    Type
REMARK                         _______ _______ _______ _____ _____    ______ ____
ROOT
ATOM      1  N   UNL     1       3.963   4.216  18.268  0.00  0.00    +0.000 N 
ATOM      2  C   UNL     1       4.714   4.605  17.172  0.00  0.00    +0.000 C 
ATOM      3  O   UNL     1       5.404   3.832  16.503  0.00  0.00    +0.000 OA
ATOM      4  C   UNL     1       4.583   6.074  16.772  0.00  0.00    +0.000 C 
ATOM      5  O   UNL     1       4.022   7.035  17.644  0.00  0.00    +0.000 OA
ATOM      6  C   UNL     1       3.191   6.524  18.603  0.00  0.00    +0.000 A 
ATOM      7  C   UNL     1       2.371   7.470  19.256  0.00  0.00    +0.000 A 
ATOM      8  C   UNL     1       1.492   7.075  20.275  0.00  0.00    +0.000 A 
ATOM      9  C   UNL     1       1.483   5.723  20.641  0.00  0.00    +0.000 A 
ATOM     10  C   UNL     1       2.308   4.792  20.005  0.00  0.00    +0.000 A 
ATOM     11  C   UNL     1       3.158   5.170  18.960  0.00  0.00    +0.000 A 
ENDROOT
BRANCH   1  13
ATOM     12  C   UNL     1       2.795   2.067  17.877  0.00  0.00    +0.000 C 
ATOM     13  C   UNL     1       3.918   2.796  18.605  0.00  0.00    +0.000 C 
ENDBRANCH   1  13
BRANCH   8  14
ATOM     14  C   UNL     1       0.509   8.032  20.946  0.00  0.00    +0.000 C 
BRANCH  14  15
ATOM     15  N   UNL     1       1.202   9.115  21.659  0.00  0.00    +0.000 NA
ATOM     16  C   UNL     1       1.083  10.425  20.990  0.00  0.00    +0.000 C 
ATOM     17  C   UNL     1      -0.262  11.153  21.209  0.00  0.00    +0.000 C 
ATOM     18  N   UNL     1      -0.541  11.313  22.645  0.00  0.00    +0.000 N 
ATOM     19  C   UNL     1      -0.439  10.073  23.439  0.00  0.00    +0.000 C 
ATOM     20  C   UNL     1       0.835   9.256  23.082  0.00  0.00    +0.000 C 
BRANCH  18  21
ATOM     21  C   UNL     1      -1.520  12.235  23.029  0.00  0.00    +0.000 A 
ATOM     22  C   UNL     1      -1.289  13.619  23.107  0.00  0.00    +0.000 A 
ATOM     23  C   UNL     1      -2.256  14.502  23.610  0.00  0.00    +0.000 A 
ATOM     24  C   UNL     1      -3.479  14.020  24.051  0.00  0.00    +0.000 A 
ATOM     25  C   UNL     1      -3.750  12.655  23.963  0.00  0.00    +0.000 A 
ATOM     26  C   UNL     1      -2.782  11.782  23.450  0.00  0.00    +0.000 A 
ENDBRANCH  18  21
ENDBRANCH  14  15
ENDBRANCH   8  14
TORSDOF 4
ENDMDL
