MODEL 1
REMARK VINA RESULT:      -7.8      0.000      0.000
REMARK  Name = 
REMARK  12 active torsions:
REMARK  status: ('A' for Active; 'I' for Inactive)
REMARK    1  A    between atoms: C_1  and  C_2
REMARK    2  A    between atoms: C_2  and  C_3
REMARK    3  A    between atoms: C_6  and  N_7
REMARK    4  A    between atoms: N_7  and  C_8
REMARK    5  A    between atoms: N_7  and  S_12
REMARK    6  A    between atoms: C_8  and  C_9
REMARK    7  A    between atoms: C_9  and  C_10
REMARK    8  A    between atoms: C_9  and  C_11
REMARK    9  A    between atoms: S_12  and  C_15
REMARK   10  A    between atoms: C_18  and  O_19
REMARK   11  A    between atoms: O_19  and  C_20
REMARK   12  A    between atoms: C_20  and  C_21
REMARK                            x       y       z     vdW  Elec       q    Type
REMARK                         _______ _______ _______ _____ _____    ______ ____
ROOT
ATOM      1  C   UNL     1       3.897   5.188  18.036  0.00  0.00    +0.000 A 
ATOM      2  C   UNL     1       3.902   4.089  17.186  0.00  0.00    +0.000 A 
ATOM      3  C   UNL     1       5.036   3.857  16.416  0.00  0.00    +0.000 A 
ATOM      4  C   UNL     1       6.074   4.800  16.371  0.00  0.00    +0.000 A 
ATOM      5  C   UNL     1       5.956   5.932  17.192  0.00  0.00    +0.000 A 
ATOM      6  C   UNL     1       5.116   5.827  18.299  0.00  0.00    +0.000 A 
ATOM      7  C   UNL     1       6.020   5.261  19.499  0.00  0.00    +0.000 C 
ATOM      8  C   UNL     1       7.564   5.343  19.225  0.00  0.00    +0.000 C 
ATOM      9  C   UNL     1       7.940   6.681  18.593  0.00  0.00    +0.000 C 
ATOM     10  C   UNL     1       7.031   6.937  17.414  0.00  0.00    +0.000 C 
ATOM     11  O   UNL     1       7.023   7.989  16.786  0.00  0.00    +0.000 OA
ENDROOT
BRANCH   1  12
ATOM     12  S   UNL     1       2.279   6.007  18.190  0.00  0.00    +0.000 S 
ATOM     13  O   UNL     1       1.291   5.123  17.608  0.00  0.00    +0.000 OA
ATOM     14  O   UNL     1       2.477   7.345  17.665  0.00  0.00    +0.000 OA
BRANCH  12  15
ATOM     15  N   UNL     1       2.021   6.105  19.941  0.00  0.00    +0.000 N 
BRANCH  15  19
ATOM     16  C   UNL     1       0.249   9.825  21.283  0.00  0.00    +0.000 A 
ATOM     17  C   UNL     1       1.152   9.809  20.213  0.00  0.00    +0.000 A 
ATOM     18  C   UNL     1       1.750   8.609  19.791  0.00  0.00    +0.000 A 
ATOM     19  C   UNL     1       1.422   7.382  20.381  0.00  0.00    +0.000 A 
ATOM     20  C   UNL     1       0.519   7.397  21.456  0.00  0.00    +0.000 A 
ATOM     21  C   UNL     1      -0.062   8.605  21.900  0.00  0.00    +0.000 A 
BRANCH  16  23
ATOM     22  C   UNL     1      -1.137  11.041  23.053  0.00  0.00    +0.000 C 
ATOM     23  C   UNL     1      -0.303  11.145  21.780  0.00  0.00    +0.000 C 
ENDBRANCH  16  23
ENDBRANCH  15  19
BRANCH  15  24
ATOM     24  C   UNL     1       1.369   4.849  20.490  0.00  0.00    +0.000 C 
BRANCH  24  25
ATOM     25  C   UNL     1       2.209   3.564  20.412  0.00  0.00    +0.000 C 
ATOM     26  C   UNL     1       2.535   2.909  21.752  0.00  0.00    +0.000 C 
ATOM     27  C   UNL     1       1.429   2.551  19.556  0.00  0.00    +0.000 C 
ENDBRANCH  24  25
ENDBRANCH  15  24
ENDBRANCH  12  15
ENDBRANCH   1  12
BRANCH   4  28
ATOM     28  O   UNL     1       7.240   4.614  15.680  0.00  0.00    +0.000 OA
BRANCH  28  29
ATOM     29  C   UNL     1       7.161   4.926  14.274  0.00  0.00    +0.000 C 
BRANCH  29  30
ATOM     30  C   UNL     1       6.483   3.789  13.506  0.00  0.00    +0.000 C 
ATOM     31  C   UNL     1       7.307   3.448  12.260  0.00  0.00    +0.000 C 
ATOM     32  C   UNL     1       6.564   2.464  11.374  0.00  0.00    +0.000 C 
ATOM     33  O   UNL     1       5.292   2.993  11.008  0.00  0.00    +0.000 OA
ATOM     34  C   UNL     1       4.444   3.175  12.141  0.00  0.00    +0.000 C 
ATOM     35  C   UNL     1       5.049   4.178  13.115  0.00  0.00    +0.000 C 
ENDBRANCH  29  30
ENDBRANCH  28  29
ENDBRANCH   4  28
TORSDOF 9
ENDMDL
MODEL 2
REMARK VINA RESULT:      -7.7      5.084      8.431
REMARK  Name = 
REMARK  12 active torsions:
REMARK  status: ('A' for Active; 'I' for Inactive)
REMARK    1  A    between atoms: C_1  and  C_2
REMARK    2  A    between atoms: C_2  and  C_3
REMARK    3  A    between atoms: C_6  and  N_7
REMARK    4  A    between atoms: N_7  and  C_8
REMARK    5  A    between atoms: N_7  and  S_12
REMARK    6  A    between atoms: C_8  and  C_9
REMARK    7  A    between atoms: C_9  and  C_10
REMARK    8  A    between atoms: C_9  and  C_11
REMARK    9  A    between atoms: S_12  and  C_15
REMARK   10  A    between atoms: C_18  and  O_19
REMARK   11  A    between atoms: O_19  and  C_20
REMARK   12  A    between atoms: C_20  and  C_21
REMARK                            x       y       z     vdW  Elec       q    Type
REMARK                         _______ _______ _______ _____ _____    ______ ____
ROOT
ATOM      1  C   UNL     1       1.059  11.148  19.664  0.00  0.00    +0.000 A 
ATOM      2  C   UNL     1       1.087  10.176  18.672  0.00  0.00    +0.000 A 
ATOM      3  C   UNL     1       1.183   8.844  19.058  0.00  0.00    +0.000 A 
ATOM      4  C   UNL     1       1.421   8.504  20.398  0.00  0.00    +0.000 A 
ATOM      5  C   UNL     1       1.470   9.551  21.333  0.00  0.00    +0.000 A 
ATOM      6  C   UNL     1       0.833  10.740  20.985  0.00  0.00    +0.000 A 
ATOM      7  C   UNL     1      -0.688  10.598  21.480  0.00  0.00    +0.000 C 
ATOM      8  C   UNL     1      -0.922   9.413  22.483  0.00  0.00    +0.000 C 
ATOM      9  C   UNL     1       0.195   9.342  23.521  0.00  0.00    +0.000 C 
ATOM     10  C   UNL     1       1.526   9.370  22.808  0.00  0.00    +0.000 C 
ATOM     11  O   UNL     1       2.602   9.444  23.392  0.00  0.00    +0.000 OA
ENDROOT
BRANCH   1  12
ATOM     12  S   UNL     1       1.917  12.692  19.222  0.00  0.00    +0.000 S 
ATOM     13  O   UNL     1       2.727  12.416  18.054  0.00  0.00    +0.000 OA
ATOM     14  O   UNL     1       2.525  13.156  20.455  0.00  0.00    +0.000 OA
BRANCH  12  15
ATOM     15  N   UNL     1       0.601  13.792  18.776  0.00  0.00    +0.000 N 
BRANCH  15  19
ATOM     16  C   UNL     1      -3.352  12.053  19.140  0.00  0.00    +0.000 A 
ATOM     17  C   UNL     1      -2.532  11.740  18.050  0.00  0.00    +0.000 A 
ATOM     18  C   UNL     1      -1.259  12.322  17.913  0.00  0.00    +0.000 A 
ATOM     19  C   UNL     1      -0.742  13.185  18.887  0.00  0.00    +0.000 A 
ATOM     20  C   UNL     1      -1.565  13.502  19.979  0.00  0.00    +0.000 A 
ATOM     21  C   UNL     1      -2.855  12.940  20.105  0.00  0.00    +0.000 A 
BRANCH  16  23
ATOM     22  C   UNL     1      -5.332  11.059  17.865  0.00  0.00    +0.000 C 
ATOM     23  C   UNL     1      -4.756  11.488  19.210  0.00  0.00    +0.000 C 
ENDBRANCH  16  23
ENDBRANCH  15  19
BRANCH  15  24
ATOM     24  C   UNL     1       0.759  15.158  19.418  0.00  0.00    +0.000 C 
BRANCH  24  25
ATOM     25  C   UNL     1       0.788  16.357  18.457  0.00  0.00    +0.000 C 
ATOM     26  C   UNL     1      -0.568  16.988  18.151  0.00  0.00    +0.000 C 
ATOM     27  C   UNL     1       1.692  17.433  19.082  0.00  0.00    +0.000 C 
ENDBRANCH  24  25
ENDBRANCH  15  24
ENDBRANCH  12  15
ENDBRANCH   1  12
BRANCH   4  28
ATOM     28  O   UNL     1       1.473   7.217  20.857  0.00  0.00    +0.000 OA
BRANCH  28  29
ATOM     29  C   UNL     1       2.093   6.281  19.952  0.00  0.00    +0.000 C 
BRANCH  29  30
ATOM     30  C   UNL     1       1.430   4.906  20.059  0.00  0.00    +0.000 C 
ATOM     31  C   UNL     1       2.106   4.094  21.169  0.00  0.00    +0.000 C 
ATOM     32  C   UNL     1       1.607   2.661  21.171  0.00  0.00    +0.000 C 
ATOM     33  O   UNL     1       1.832   2.059  19.898  0.00  0.00    +0.000 OA
ATOM     34  C   UNL     1       1.087   2.702  18.865  0.00  0.00    +0.000 C 
ATOM     35  C   UNL     1       1.511   4.159  18.719  0.00  0.00    +0.000 C 
ENDBRANCH  29  30
ENDBRANCH  28  29
ENDBRANCH   4  28
TORSDOF 9
ENDMDL
MODEL 3
REMARK VINA RESULT:      -7.6      4.659      9.032
REMARK  Name = 
REMARK  12 active torsions:
REMARK  status: ('A' for Active; 'I' for Inactive)
REMARK    1  A    between atoms: C_1  and  C_2
REMARK    2  A    between atoms: C_2  and  C_3
REMARK    3  A    between atoms: C_6  and  N_7
REMARK    4  A    between atoms: N_7  and  C_8
REMARK    5  A    between atoms: N_7  and  S_12
REMARK    6  A    between atoms: C_8  and  C_9
REMARK    7  A    between atoms: C_9  and  C_10
REMARK    8  A    between atoms: C_9  and  C_11
REMARK    9  A    between atoms: S_12  and  C_15
REMARK   10  A    between atoms: C_18  and  O_19
REMARK   11  A    between atoms: O_19  and  C_20
REMARK   12  A    between atoms: C_20  and  C_21
REMARK                            x       y       z     vdW  Elec       q    Type
REMARK                         _______ _______ _______ _____ _____    ______ ____
ROOT
ATOM      1  C   UNL     1       1.315  13.212  19.141  0.00  0.00    +0.000 A 
ATOM      2  C   UNL     1       2.396  12.946  18.310  0.00  0.00    +0.000 A 
ATOM      3  C   UNL     1       2.496  11.681  17.742  0.00  0.00    +0.000 A 
ATOM      4  C   UNL     1       1.627  10.653  18.134  0.00  0.00    +0.000 A 
ATOM      5  C   UNL     1       0.611  10.976  19.048  0.00  0.00    +0.000 A 
ATOM      6  C   UNL     1       0.238  12.315  19.132  0.00  0.00    +0.000 A 
ATOM      7  C   UNL     1      -0.915  12.532  18.036  0.00  0.00    +0.000 C 
ATOM      8  C   UNL     1      -1.527  11.195  17.485  0.00  0.00    +0.000 C 
ATOM      9  C   UNL     1      -1.768  10.195  18.612  0.00  0.00    +0.000 C 
ATOM     10  C   UNL     1      -0.505  10.071  19.432  0.00  0.00    +0.000 C 
ATOM     11  O   UNL     1      -0.439   9.427  20.474  0.00  0.00    +0.000 OA
ENDROOT
BRANCH   1  12
ATOM     12  S   UNL     1       1.700  14.308  20.542  0.00  0.00    +0.000 S 
ATOM     13  O   UNL     1       2.840  15.114  20.158  0.00  0.00    +0.000 OA
ATOM     14  O   UNL     1       1.763  13.437  21.701  0.00  0.00    +0.000 OA
BRANCH  12  15
ATOM     15  N   UNL     1       0.267  15.343  20.673  0.00  0.00    +0.000 N 
BRANCH  15  19
ATOM     16  C   UNL     1      -2.466  14.164  23.824  0.00  0.00    +0.000 A 
ATOM     17  C   UNL     1      -2.579  13.619  22.540  0.00  0.00    +0.000 A 
ATOM     18  C   UNL     1      -1.712  14.018  21.507  0.00  0.00    +0.000 A 
ATOM     19  C   UNL     1      -0.670  14.924  21.737  0.00  0.00    +0.000 A 
ATOM     20  C   UNL     1      -0.557  15.475  23.024  0.00  0.00    +0.000 A 
ATOM     21  C   UNL     1      -1.445  15.097  24.056  0.00  0.00    +0.000 A 
BRANCH  16  23
ATOM     22  C   UNL     1      -4.289  12.539  24.579  0.00  0.00    +0.000 C 
ATOM     23  C   UNL     1      -3.475  13.791  24.890  0.00  0.00    +0.000 C 
ENDBRANCH  16  23
ENDBRANCH  15  19
BRANCH  15  24
ATOM     24  C   UNL     1       0.626  16.817  20.656  0.00  0.00    +0.000 C 
BRANCH  24  25
ATOM     25  C   UNL     1       0.308  17.574  19.357  0.00  0.00    +0.000 C 
ATOM     26  C   UNL     1       1.516  17.967  18.511  0.00  0.00    +0.000 C 
ATOM     27  C   UNL     1      -0.606  16.675  18.507  0.00  0.00    +0.000 C 
ENDBRANCH  24  25
ENDBRANCH  15  24
ENDBRANCH  12  15
ENDBRANCH   1  12
BRANCH   4  28
ATOM     28  O   UNL     1       1.632   9.402  17.580  0.00  0.00    +0.000 OA
BRANCH  28  29
ATOM     29  C   UNL     1       2.772   8.593  17.933  0.00  0.00    +0.000 C 
BRANCH  29  30
ATOM     30  C   UNL     1       2.327   7.199  18.379  0.00  0.00    +0.000 C 
ATOM     31  C   UNL     1       2.208   7.162  19.906  0.00  0.00    +0.000 C 
ATOM     32  C   UNL     1       1.961   5.746  20.395  0.00  0.00    +0.000 C 
ATOM     33  O   UNL     1       3.005   4.882  19.950  0.00  0.00    +0.000 OA
ATOM     34  C   UNL     1       3.040   4.776  18.528  0.00  0.00    +0.000 C 
ATOM     35  C   UNL     1       3.319   6.131  17.890  0.00  0.00    +0.000 C 
ENDBRANCH  29  30
ENDBRANCH  28  29
ENDBRANCH   4  28
TORSDOF 9
ENDMDL
MODEL 4
REMARK VINA RESULT:      -7.6      4.844      8.286
REMARK  Name = 
REMARK  12 active torsions:
REMARK  status: ('A' for Active; 'I' for Inactive)
REMARK    1  A    between atoms: C_1  and  C_2
REMARK    2  A    between atoms: C_2  and  C_3
REMARK    3  A    between atoms: C_6  and  N_7
REMARK    4  A    between atoms: N_7  and  C_8
REMARK    5  A    between atoms: N_7  and  S_12
REMARK    6  A    between atoms: C_8  and  C_9
REMARK    7  A    between atoms: C_9  and  C_10
REMARK    8  A    between atoms: C_9  and  C_11
REMARK    9  A    between atoms: S_12  and  C_15
REMARK   10  A    between atoms: C_18  and  O_19
REMARK   11  A    between atoms: O_19  and  C_20
REMARK   12  A    between atoms: C_20  and  C_21
REMARK                            x       y       z     vdW  Elec       q    Type
REMARK                         _______ _______ _______ _____ _____    ______ ____
ROOT
ATOM      1  C   UNL     1       1.129  11.130  19.289  0.00  0.00    +0.000 A 
ATOM      2  C   UNL     1       1.396  10.247  18.251  0.00  0.00    +0.000 A 
ATOM      3  C   UNL     1       1.616   8.910  18.563  0.00  0.00    +0.000 A 
ATOM      4  C   UNL     1       1.735   8.499  19.898  0.00  0.00    +0.000 A 
ATOM      5  C   UNL     1       1.541   9.469  20.895  0.00  0.00    +0.000 A 
ATOM      6  C   UNL     1       0.803  10.597  20.544  0.00  0.00    +0.000 A 
ATOM      7  C   UNL     1      -0.735  10.239  20.833  0.00  0.00    +0.000 C 
ATOM      8  C   UNL     1      -0.932   8.961  21.723  0.00  0.00    +0.000 C 
ATOM      9  C   UNL     1       0.054   8.944  22.888  0.00  0.00    +0.000 C 
ATOM     10  C   UNL     1       1.446   9.184  22.351  0.00  0.00    +0.000 C 
ATOM     11  O   UNL     1       2.427   9.340  23.070  0.00  0.00    +0.000 OA
ENDROOT
BRANCH   1  12
ATOM     12  S   UNL     1       1.829  12.794  19.055  0.00  0.00    +0.000 S 
ATOM     13  O   UNL     1       2.572  12.778  17.811  0.00  0.00    +0.000 OA
ATOM     14  O   UNL     1       2.488  13.110  20.308  0.00  0.00    +0.000 OA
BRANCH  12  15
ATOM     15  N   UNL     1       0.402  13.830  18.874  0.00  0.00    +0.000 N 
BRANCH  15  19
ATOM     16  C   UNL     1      -3.335  11.658  18.564  0.00  0.00    +0.000 A 
ATOM     17  C   UNL     1      -2.374  11.573  17.550  0.00  0.00    +0.000 A 
ATOM     18  C   UNL     1      -1.171  12.296  17.633  0.00  0.00    +0.000 A 
ATOM     19  C   UNL     1      -0.864  13.077  18.754  0.00  0.00    +0.000 A 
ATOM     20  C   UNL     1      -1.829  13.167  19.770  0.00  0.00    +0.000 A 
ATOM     21  C   UNL     1      -3.050  12.463  19.676  0.00  0.00    +0.000 A 
BRANCH  16  23
ATOM     22  C   UNL     1      -5.523  11.469  17.255  0.00  0.00    +0.000 C 
ATOM     23  C   UNL     1      -4.663  10.947  18.402  0.00  0.00    +0.000 C 
ENDBRANCH  16  23
ENDBRANCH  15  19
BRANCH  15  24
ATOM     24  C   UNL     1       0.397  14.970  19.874  0.00  0.00    +0.000 C 
BRANCH  24  25
ATOM     25  C   UNL     1       0.687  16.369  19.305  0.00  0.00    +0.000 C 
ATOM     26  C   UNL     1       2.001  16.509  18.541  0.00  0.00    +0.000 C 
ATOM     27  C   UNL     1      -0.466  16.732  18.354  0.00  0.00    +0.000 C 
ENDBRANCH  24  25
ENDBRANCH  15  24
ENDBRANCH  12  15
ENDBRANCH   1  12
BRANCH   4  28
ATOM     28  O   UNL     1       1.897   7.196  20.280  0.00  0.00    +0.000 OA
BRANCH  28  29
ATOM     29  C   UNL     1       2.720   6.408  19.396  0.00  0.00    +0.000 C 
BRANCH  29  30
ATOM     30  C   UNL     1       2.457   4.915  19.601  0.00  0.00    +0.000 C 
ATOM     31  C   UNL     1       1.672   4.704  20.900  0.00  0.00    +0.000 C 
ATOM     32  C   UNL     1       1.566   3.228  21.234  0.00  0.00    +0.000 C 
ATOM     33  O   UNL     1       2.866   2.649  21.331  0.00  0.00    +0.000 OA
ATOM     34  C   UNL     1       3.563   2.692  20.087  0.00  0.00    +0.000 C 
ATOM     35  C   UNL     1       3.779   4.132  19.636  0.00  0.00    +0.000 C 
ENDBRANCH  29  30
ENDBRANCH  28  29
ENDBRANCH   4  28
TORSDOF 9
ENDMDL
MODEL 5
REMARK VINA RESULT:      -7.6      5.109     11.722
REMARK  Name = 
REMARK  12 active torsions:
REMARK  status: ('A' for Active; 'I' for Inactive)
REMARK    1  A    between atoms: C_1  and  C_2
REMARK    2  A    between atoms: C_2  and  C_3
REMARK    3  A    between atoms: C_6  and  N_7
REMARK    4  A    between atoms: N_7  and  C_8
REMARK    5  A    between atoms: N_7  and  S_12
REMARK    6  A    between atoms: C_8  and  C_9
REMARK    7  A    between atoms: C_9  and  C_10
REMARK    8  A    between atoms: C_9  and  C_11
REMARK    9  A    between atoms: S_12  and  C_15
REMARK   10  A    between atoms: C_18  and  O_19
REMARK   11  A    between atoms: O_19  and  C_20
REMARK   12  A    between atoms: C_20  and  C_21
REMARK                            x       y       z     vdW  Elec       q    Type
REMARK                         _______ _______ _______ _____ _____    ______ ____
ROOT
ATOM      1  C   UNL     1      -1.236  11.803  21.603  0.00  0.00    +0.000 A 
ATOM      2  C   UNL     1      -1.813  12.055  20.365  0.00  0.00    +0.000 A 
ATOM      3  C   UNL     1      -3.064  12.659  20.332  0.00  0.00    +0.000 A 
ATOM      4  C   UNL     1      -3.796  12.851  21.512  0.00  0.00    +0.000 A 
ATOM      5  C   UNL     1      -3.181  12.488  22.722  0.00  0.00    +0.000 A 
ATOM      6  C   UNL     1      -1.789  12.425  22.730  0.00  0.00    +0.000 A 
ATOM      7  C   UNL     1      -1.273  13.898  23.107  0.00  0.00    +0.000 C 
ATOM      8  C   UNL     1      -2.390  14.831  23.696  0.00  0.00    +0.000 C 
ATOM      9  C   UNL     1      -3.261  14.081  24.700  0.00  0.00    +0.000 C 
ATOM     10  C   UNL     1      -3.723  12.787  24.074  0.00  0.00    +0.000 C 
ATOM     11  O   UNL     1      -4.341  11.924  24.689  0.00  0.00    +0.000 OA
ENDROOT
BRANCH   1  12
ATOM     12  S   UNL     1      -0.268  10.262  21.679  0.00  0.00    +0.000 S 
ATOM     13  O   UNL     1      -1.111   9.199  21.170  0.00  0.00    +0.000 OA
ATOM     14  O   UNL     1       0.259  10.210  23.029  0.00  0.00    +0.000 OA
BRANCH  12  15
ATOM     15  N   UNL     1       1.065  10.546  20.547  0.00  0.00    +0.000 N 
BRANCH  15  19
ATOM     16  C   UNL     1       2.476   6.984  18.521  0.00  0.00    +0.000 A 
ATOM     17  C   UNL     1       2.183   6.958  19.889  0.00  0.00    +0.000 A 
ATOM     18  C   UNL     1       1.750   8.118  20.556  0.00  0.00    +0.000 A 
ATOM     19  C   UNL     1       1.539   9.320  19.871  0.00  0.00    +0.000 A 
ATOM     20  C   UNL     1       1.837   9.349  18.499  0.00  0.00    +0.000 A 
ATOM     21  C   UNL     1       2.298   8.192  17.831  0.00  0.00    +0.000 A 
BRANCH  16  23
ATOM     22  C   UNL     1       4.331   5.977  17.078  0.00  0.00    +0.000 C 
ATOM     23  C   UNL     1       3.034   5.747  17.849  0.00  0.00    +0.000 C 
ENDBRANCH  16  23
ENDBRANCH  15  19
BRANCH  15  24
ATOM     24  C   UNL     1       0.800  11.734  19.642  0.00  0.00    +0.000 C 
BRANCH  24  25
ATOM     25  C   UNL     1       1.858  12.850  19.664  0.00  0.00    +0.000 C 
ATOM     26  C   UNL     1       2.608  13.071  18.353  0.00  0.00    +0.000 C 
ATOM     27  C   UNL     1       1.145  14.160  20.040  0.00  0.00    +0.000 C 
ENDBRANCH  24  25
ENDBRANCH  15  24
ENDBRANCH  12  15
ENDBRANCH   1  12
BRANCH   4  28
ATOM     28  O   UNL     1      -5.006  13.486  21.562  0.00  0.00    +0.000 OA
BRANCH  28  29
ATOM     29  C   UNL     1      -6.148  12.612  21.462  0.00  0.00    +0.000 C 
BRANCH  29  30
ATOM     30  C   UNL     1      -6.823  12.758  20.097  0.00  0.00    +0.000 C 
ATOM     31  C   UNL     1      -6.382  11.612  19.180  0.00  0.00    +0.000 C 
ATOM     32  C   UNL     1      -6.876  11.834  17.762  0.00  0.00    +0.000 C 
ATOM     33  O   UNL     1      -6.405  13.086  17.266  0.00  0.00    +0.000 OA
ATOM     34  C   UNL     1      -6.928  14.185  18.011  0.00  0.00    +0.000 C 
ATOM     35  C   UNL     1      -6.479  14.116  19.465  0.00  0.00    +0.000 C 
ENDBRANCH  29  30
ENDBRANCH  28  29
ENDBRANCH   4  28
TORSDOF 9
ENDMDL
MODEL 6
REMARK VINA RESULT:      -7.6      5.126      9.595
REMARK  Name = 
REMARK  12 active torsions:
REMARK  status: ('A' for Active; 'I' for Inactive)
REMARK    1  A    between atoms: C_1  and  C_2
REMARK    2  A    between atoms: C_2  and  C_3
REMARK    3  A    between atoms: C_6  and  N_7
REMARK    4  A    between atoms: N_7  and  C_8
REMARK    5  A    between atoms: N_7  and  S_12
REMARK    6  A    between atoms: C_8  and  C_9
REMARK    7  A    between atoms: C_9  and  C_10
REMARK    8  A    between atoms: C_9  and  C_11
REMARK    9  A    between atoms: S_12  and  C_15
REMARK   10  A    between atoms: C_18  and  O_19
REMARK   11  A    between atoms: O_19  and  C_20
REMARK   12  A    between atoms: C_20  and  C_21
REMARK                            x       y       z     vdW  Elec       q    Type
REMARK                         _______ _______ _______ _____ _____    ______ ____
ROOT
ATOM      1  C   UNL     1      -1.069  12.368  22.573  0.00  0.00    +0.000 A 
ATOM      2  C   UNL     1      -0.814  11.108  23.100  0.00  0.00    +0.000 A 
ATOM      3  C   UNL     1      -0.257  10.145  22.266  0.00  0.00    +0.000 A 
ATOM      4  C   UNL     1      -0.119  10.385  20.892  0.00  0.00    +0.000 A 
ATOM      5  C   UNL     1      -0.483  11.655  20.416  0.00  0.00    +0.000 A 
ATOM      6  C   UNL     1      -0.492  12.698  21.340  0.00  0.00    +0.000 A 
ATOM      7  C   UNL     1       0.991  13.313  21.342  0.00  0.00    +0.000 C 
ATOM      8  C   UNL     1       1.868  12.859  20.121  0.00  0.00    +0.000 C 
ATOM      9  C   UNL     1       1.065  12.893  18.824  0.00  0.00    +0.000 C 
ATOM     10  C   UNL     1      -0.234  12.149  19.035  0.00  0.00    +0.000 C 
ATOM     11  O   UNL     1      -1.132  12.112  18.202  0.00  0.00    +0.000 OA
ENDROOT
BRANCH   1  12
ATOM     12  S   UNL     1      -2.573  13.161  23.224  0.00  0.00    +0.000 S 
ATOM     13  O   UNL     1      -2.151  14.160  24.185  0.00  0.00    +0.000 OA
ATOM     14  O   UNL     1      -3.439  12.067  23.623  0.00  0.00    +0.000 OA
BRANCH  12  15
ATOM     15  N   UNL     1      -3.272  13.966  21.809  0.00  0.00    +0.000 N 
BRANCH  15  19
ATOM     16  C   UNL     1      -6.057  11.489  19.599  0.00  0.00    +0.000 A 
ATOM     17  C   UNL     1      -4.775  11.742  19.098  0.00  0.00    +0.000 A 
ATOM     18  C   UNL     1      -3.877  12.567  19.798  0.00  0.00    +0.000 A 
ATOM     19  C   UNL     1      -4.206  13.114  21.044  0.00  0.00    +0.000 A 
ATOM     20  C   UNL     1      -5.493  12.863  21.546  0.00  0.00    +0.000 A 
ATOM     21  C   UNL     1      -6.408  12.058  20.831  0.00  0.00    +0.000 A 
BRANCH  16  23
ATOM     22  C   UNL     1      -7.221   9.239  19.249  0.00  0.00    +0.000 C 
ATOM     23  C   UNL     1      -7.038  10.679  18.776  0.00  0.00    +0.000 C 
ENDBRANCH  16  23
ENDBRANCH  15  19
BRANCH  15  24
ATOM     24  C   UNL     1      -3.772  15.360  22.137  0.00  0.00    +0.000 C 
BRANCH  24  25
ATOM     25  C   UNL     1      -3.250  16.494  21.239  0.00  0.00    +0.000 C 
ATOM     26  C   UNL     1      -1.979  16.180  20.454  0.00  0.00    +0.000 C 
ATOM     27  C   UNL     1      -4.364  16.842  20.236  0.00  0.00    +0.000 C 
ENDBRANCH  24  25
ENDBRANCH  15  24
ENDBRANCH  12  15
ENDBRANCH   1  12
BRANCH   4  28
ATOM     28  O   UNL     1       0.469   9.508  20.022  0.00  0.00    +0.000 OA
BRANCH  28  29
ATOM     29  C   UNL     1       0.897   8.267  20.620  0.00  0.00    +0.000 C 
BRANCH  29  30
ATOM     30  C   UNL     1       2.152   7.737  19.922  0.00  0.00    +0.000 C 
ATOM     31  C   UNL     1       2.160   8.197  18.461  0.00  0.00    +0.000 C 
ATOM     32  C   UNL     1       3.283   7.528  17.690  0.00  0.00    +0.000 C 
ATOM     33  O   UNL     1       3.162   6.109  17.772  0.00  0.00    +0.000 OA
ATOM     34  C   UNL     1       3.306   5.638  19.110  0.00  0.00    +0.000 C 
ATOM     35  C   UNL     1       2.211   6.203  20.006  0.00  0.00    +0.000 C 
ENDBRANCH  29  30
ENDBRANCH  28  29
ENDBRANCH   4  28
TORSDOF 9
ENDMDL
MODEL 7
REMARK VINA RESULT:      -7.5      7.865      9.743
REMARK  Name = 
REMARK  12 active torsions:
REMARK  status: ('A' for Active; 'I' for Inactive)
REMARK    1  A    between atoms: C_1  and  C_2
REMARK    2  A    between atoms: C_2  and  C_3
REMARK    3  A    between atoms: C_6  and  N_7
REMARK    4  A    between atoms: N_7  and  C_8
REMARK    5  A    between atoms: N_7  and  S_12
REMARK    6  A    between atoms: C_8  and  C_9
REMARK    7  A    between atoms: C_9  and  C_10
REMARK    8  A    between atoms: C_9  and  C_11
REMARK    9  A    between atoms: S_12  and  C_15
REMARK   10  A    between atoms: C_18  and  O_19
REMARK   11  A    between atoms: O_19  and  C_20
REMARK   12  A    between atoms: C_20  and  C_21
REMARK                            x       y       z     vdW  Elec       q    Type
REMARK                         _______ _______ _______ _____ _____    ______ ____
ROOT
ATOM      1  C   UNL     1       1.646  13.972  19.834  0.00  0.00    +0.000 A 
ATOM      2  C   UNL     1       1.978  13.296  18.666  0.00  0.00    +0.000 A 
ATOM      3  C   UNL     1       3.121  13.688  17.980  0.00  0.00    +0.000 A 
ATOM      4  C   UNL     1       3.821  14.843  18.360  0.00  0.00    +0.000 A 
ATOM      5  C   UNL     1       3.372  15.527  19.501  0.00  0.00    +0.000 A 
ATOM      6  C   UNL     1       2.615  14.800  20.417  0.00  0.00    +0.000 A 
ATOM      7  C   UNL     1       3.660  14.133  21.438  0.00  0.00    +0.000 C 
ATOM      8  C   UNL     1       5.102  14.749  21.361  0.00  0.00    +0.000 C 
ATOM      9  C   UNL     1       5.047  16.270  21.261  0.00  0.00    +0.000 C 
ATOM     10  C   UNL     1       4.091  16.652  20.155  0.00  0.00    +0.000 C 
ATOM     11  O   UNL     1       3.756  17.809  19.924  0.00  0.00    +0.000 OA
ENDROOT
BRANCH   1  12
ATOM     12  S   UNL     1      -0.143  14.180  20.096  0.00  0.00    +0.000 S 
ATOM     13  O   UNL     1      -0.726  14.542  18.820  0.00  0.00    +0.000 OA
ATOM     14  O   UNL     1      -0.261  15.061  21.242  0.00  0.00    +0.000 OA
BRANCH  12  15
ATOM     15  N   UNL     1      -0.693  12.558  20.553  0.00  0.00    +0.000 N 
BRANCH  15  19
ATOM     16  C   UNL     1      -2.437  10.345  17.261  0.00  0.00    +0.000 A 
ATOM     17  C   UNL     1      -1.081  10.203  17.578  0.00  0.00    +0.000 A 
ATOM     18  C   UNL     1      -0.505  10.938  18.628  0.00  0.00    +0.000 A 
ATOM     19  C   UNL     1      -1.272  11.791  19.431  0.00  0.00    +0.000 A 
ATOM     20  C   UNL     1      -2.632  11.937  19.112  0.00  0.00    +0.000 A 
ATOM     21  C   UNL     1      -3.208  11.220  18.039  0.00  0.00    +0.000 A 
BRANCH  16  23
ATOM     22  C   UNL     1      -3.325  10.512  14.869  0.00  0.00    +0.000 C 
ATOM     23  C   UNL     1      -3.009   9.616  16.062  0.00  0.00    +0.000 C 
ENDBRANCH  16  23
ENDBRANCH  15  19
BRANCH  15  24
ATOM     24  C   UNL     1       0.337  11.823  21.389  0.00  0.00    +0.000 C 
BRANCH  24  25
ATOM     25  C   UNL     1      -0.040  10.399  21.829  0.00  0.00    +0.000 C 
ATOM     26  C   UNL     1       1.133   9.466  22.118  0.00  0.00    +0.000 C 
ATOM     27  C   UNL     1      -0.889  10.517  23.107  0.00  0.00    +0.000 C 
ENDBRANCH  24  25
ENDBRANCH  15  24
ENDBRANCH  12  15
ENDBRANCH   1  12
BRANCH   4  28
ATOM     28  O   UNL     1       4.981  15.258  17.766  0.00  0.00    +0.000 OA
BRANCH  28  29
ATOM     29  C   UNL     1       6.091  14.350  17.917  0.00  0.00    +0.000 C 
BRANCH  29  30
ATOM     30  C   UNL     1       7.419  15.081  17.706  0.00  0.00    +0.000 C 
ATOM     31  C   UNL     1       8.575  14.190  18.171  0.00  0.00    +0.000 C 
ATOM     32  C   UNL     1       9.885  14.956  18.160  0.00  0.00    +0.000 C 
ATOM     33  O   UNL     1       9.784  16.119  18.979  0.00  0.00    +0.000 OA
ATOM     34  C   UNL     1       8.819  17.041  18.477  0.00  0.00    +0.000 C 
ATOM     35  C   UNL     1       7.429  16.417  18.464  0.00  0.00    +0.000 C 
ENDBRANCH  29  30
ENDBRANCH  28  29
ENDBRANCH   4  28
TORSDOF 9
ENDMDL
MODEL 8
REMARK VINA RESULT:      -7.5      4.653      8.235
REMARK  Name = 
REMARK  12 active torsions:
REMARK  status: ('A' for Active; 'I' for Inactive)
REMARK    1  A    between atoms: C_1  and  C_2
REMARK    2  A    between atoms: C_2  and  C_3
REMARK    3  A    between atoms: C_6  and  N_7
REMARK    4  A    between atoms: N_7  and  C_8
REMARK    5  A    between atoms: N_7  and  S_12
REMARK    6  A    between atoms: C_8  and  C_9
REMARK    7  A    between atoms: C_9  and  C_10
REMARK    8  A    between atoms: C_9  and  C_11
REMARK    9  A    between atoms: S_12  and  C_15
REMARK   10  A    between atoms: C_18  and  O_19
REMARK   11  A    between atoms: O_19  and  C_20
REMARK   12  A    between atoms: C_20  and  C_21
REMARK                            x       y       z     vdW  Elec       q    Type
REMARK                         _______ _______ _______ _____ _____    ______ ____
ROOT
ATOM      1  C   UNL     1       1.125  11.141  19.262  0.00  0.00    +0.000 A 
ATOM      2  C   UNL     1       1.472  10.294  18.217  0.00  0.00    +0.000 A 
ATOM      3  C   UNL     1       1.694   8.952  18.503  0.00  0.00    +0.000 A 
ATOM      4  C   UNL     1       1.737   8.502  19.831  0.00  0.00    +0.000 A 
ATOM      5  C   UNL     1       1.464   9.439  20.841  0.00  0.00    +0.000 A 
ATOM      6  C   UNL     1       0.730  10.565  20.477  0.00  0.00    +0.000 A 
ATOM      7  C   UNL     1      -0.817  10.174  20.658  0.00  0.00    +0.000 C 
ATOM      8  C   UNL     1      -1.047   8.867  21.497  0.00  0.00    +0.000 C 
ATOM      9  C   UNL     1      -0.135   8.830  22.720  0.00  0.00    +0.000 C 
ATOM     10  C   UNL     1       1.283   9.108  22.280  0.00  0.00    +0.000 C 
ATOM     11  O   UNL     1       2.215   9.258  23.063  0.00  0.00    +0.000 OA
ENDROOT
BRANCH   1  12
ATOM     12  S   UNL     1       1.809  12.822  19.121  0.00  0.00    +0.000 S 
ATOM     13  O   UNL     1       2.454  12.918  17.827  0.00  0.00    +0.000 OA
ATOM     14  O   UNL     1       2.564  13.030  20.343  0.00  0.00    +0.000 OA
BRANCH  12  15
ATOM     15  N   UNL     1       0.376  13.864  19.141  0.00  0.00    +0.000 N 
BRANCH  15  19
ATOM     16  C   UNL     1      -2.246  13.122  22.512  0.00  0.00    +0.000 A 
ATOM     17  C   UNL     1      -2.716  12.995  21.200  0.00  0.00    +0.000 A 
ATOM     18  C   UNL     1      -1.878  13.260  20.103  0.00  0.00    +0.000 A 
ATOM     19  C   UNL     1      -0.531  13.601  20.279  0.00  0.00    +0.000 A 
ATOM     20  C   UNL     1      -0.058  13.732  21.594  0.00  0.00    +0.000 A 
ATOM     21  C   UNL     1      -0.906  13.493  22.698  0.00  0.00    +0.000 A 
BRANCH  16  23
ATOM     22  C   UNL     1      -4.675  13.013  23.301  0.00  0.00    +0.000 C 
ATOM     23  C   UNL     1      -3.198  12.927  23.674  0.00  0.00    +0.000 C 
ENDBRANCH  16  23
ENDBRANCH  15  19
BRANCH  15  24
ATOM     24  C   UNL     1       0.728  15.320  18.905  0.00  0.00    +0.000 C 
BRANCH  24  25
ATOM     25  C   UNL     1      -0.429  16.324  19.035  0.00  0.00    +0.000 C 
ATOM     26  C   UNL     1      -0.386  17.221  20.270  0.00  0.00    +0.000 C 
ATOM     27  C   UNL     1      -0.408  17.222  17.786  0.00  0.00    +0.000 C 
ENDBRANCH  24  25
ENDBRANCH  15  24
ENDBRANCH  12  15
ENDBRANCH   1  12
BRANCH   4  28
ATOM     28  O   UNL     1       1.897   7.190  20.184  0.00  0.00    +0.000 OA
BRANCH  28  29
ATOM     29  C   UNL     1       2.652   6.403  19.241  0.00  0.00    +0.000 C 
BRANCH  29  30
ATOM     30  C   UNL     1       2.359   4.912  19.427  0.00  0.00    +0.000 C 
ATOM     31  C   UNL     1       1.914   4.651  20.870  0.00  0.00    +0.000 C 
ATOM     32  C   UNL     1       1.806   3.162  21.141  0.00  0.00    +0.000 C 
ATOM     33  O   UNL     1       3.051   2.520  20.874  0.00  0.00    +0.000 OA
ATOM     34  C   UNL     1       3.416   2.615  19.498  0.00  0.00    +0.000 C 
ATOM     35  C   UNL     1       3.598   4.070  19.085  0.00  0.00    +0.000 C 
ENDBRANCH  29  30
ENDBRANCH  28  29
ENDBRANCH   4  28
TORSDOF 9
ENDMDL
MODEL 9
REMARK VINA RESULT:      -7.4      5.943      9.765
REMARK  Name = 
REMARK  12 active torsions:
REMARK  status: ('A' for Active; 'I' for Inactive)
REMARK    1  A    between atoms: C_1  and  C_2
REMARK    2  A    between atoms: C_2  and  C_3
REMARK    3  A    between atoms: C_6  and  N_7
REMARK    4  A    between atoms: N_7  and  C_8
REMARK    5  A    between atoms: N_7  and  S_12
REMARK    6  A    between atoms: C_8  and  C_9
REMARK    7  A    between atoms: C_9  and  C_10
REMARK    8  A    between atoms: C_9  and  C_11
REMARK    9  A    between atoms: S_12  and  C_15
REMARK   10  A    between atoms: C_18  and  O_19
REMARK   11  A    between atoms: O_19  and  C_20
REMARK   12  A    between atoms: C_20  and  C_21
REMARK                            x       y       z     vdW  Elec       q    Type
REMARK                         _______ _______ _______ _____ _____    ______ ____
ROOT
ATOM      1  C   UNL     1       1.430  13.192  19.396  0.00  0.00    +0.000 A 
ATOM      2  C   UNL     1       2.472  12.848  18.545  0.00  0.00    +0.000 A 
ATOM      3  C   UNL     1       2.459  11.586  17.963  0.00  0.00    +0.000 A 
ATOM      4  C   UNL     1       1.514  10.628  18.358  0.00  0.00    +0.000 A 
ATOM      5  C   UNL     1       0.542  11.023  19.292  0.00  0.00    +0.000 A 
ATOM      6  C   UNL     1       0.283  12.387  19.396  0.00  0.00    +0.000 A 
ATOM      7  C   UNL     1      -0.866  12.711  18.321  0.00  0.00    +0.000 C 
ATOM      8  C   UNL     1      -1.594  11.436  17.767  0.00  0.00    +0.000 C 
ATOM      9  C   UNL     1      -1.899  10.446  18.887  0.00  0.00    +0.000 C 
ATOM     10  C   UNL     1      -0.639  10.209  19.685  0.00  0.00    +0.000 C 
ATOM     11  O   UNL     1      -0.610   9.549  20.718  0.00  0.00    +0.000 OA
ENDROOT
BRANCH   1  12
ATOM     12  S   UNL     1       1.925  14.237  20.802  0.00  0.00    +0.000 S 
ATOM     13  O   UNL     1       3.234  13.788  21.232  0.00  0.00    +0.000 OA
ATOM     14  O   UNL     1       0.796  14.211  21.712  0.00  0.00    +0.000 OA
BRANCH  12  15
ATOM     15  N   UNL     1       2.062  15.856  20.096  0.00  0.00    +0.000 N 
BRANCH  15  19
ATOM     16  C   UNL     1       6.140  17.307  19.883  0.00  0.00    +0.000 A 
ATOM     17  C   UNL     1       5.629  16.465  18.889  0.00  0.00    +0.000 A 
ATOM     18  C   UNL     1       4.316  15.971  18.967  0.00  0.00    +0.000 A 
ATOM     19  C   UNL     1       3.453  16.346  20.004  0.00  0.00    +0.000 A 
ATOM     20  C   UNL     1       3.966  17.188  21.004  0.00  0.00    +0.000 A 
ATOM     21  C   UNL     1       5.294  17.664  20.943  0.00  0.00    +0.000 A 
BRANCH  16  23
ATOM     22  C   UNL     1       8.222  17.654  18.440  0.00  0.00    +0.000 C 
ATOM     23  C   UNL     1       7.589  17.744  19.825  0.00  0.00    +0.000 C 
ENDBRANCH  16  23
ENDBRANCH  15  19
BRANCH  15  24
ATOM     24  C   UNL     1       1.230  15.999  18.835  0.00  0.00    +0.000 C 
BRANCH  24  25
ATOM     25  C   UNL     1       0.684  17.406  18.543  0.00  0.00    +0.000 C 
ATOM     26  C   UNL     1       1.252  18.087  17.300  0.00  0.00    +0.000 C 
ATOM     27  C   UNL     1      -0.840  17.287  18.374  0.00  0.00    +0.000 C 
ENDBRANCH  24  25
ENDBRANCH  15  24
ENDBRANCH  12  15
ENDBRANCH   1  12
BRANCH   4  28
ATOM     28  O   UNL     1       1.407   9.387  17.791  0.00  0.00    +0.000 OA
BRANCH  28  29
ATOM     29  C   UNL     1       2.646   8.655  17.711  0.00  0.00    +0.000 C 
BRANCH  29  30
ATOM     30  C   UNL     1       2.457   7.219  18.205  0.00  0.00    +0.000 C 
ATOM     31  C   UNL     1       2.191   7.225  19.714  0.00  0.00    +0.000 C 
ATOM     32  C   UNL     1       2.195   5.812  20.269  0.00  0.00    +0.000 C 
ATOM     33  O   UNL     1       3.436   5.171  19.978  0.00  0.00    +0.000 OA
ATOM     34  C   UNL     1       3.637   5.012  18.575  0.00  0.00    +0.000 C 
ATOM     35  C   UNL     1       3.694   6.366  17.878  0.00  0.00    +0.000 C 
ENDBRANCH  29  30
ENDBRANCH  28  29
ENDBRANCH   4  28
TORSDOF 9
ENDMDL
