MODEL 1
REMARK VINA RESULT:      -8.1      0.000      0.000
REMARK  Name = 
REMARK  7 active torsions:
REMARK  status: ('A' for Active; 'I' for Inactive)
REMARK    1  A    between atoms: C_1  and  N_2
REMARK    2  A    between atoms: C_7  and  S_8
REMARK    3  A    between atoms: S_8  and  N_11
REMARK    4  A    between atoms: N_11  and  C_12
REMARK    5  A    between atoms: C_12  and  C_13
REMARK    6  A    between atoms: N_19  and  C_20
REMARK    7  A    between atoms: C_20  and  C_21
REMARK                            x       y       z     vdW  Elec       q    Type
REMARK                         _______ _______ _______ _____ _____    ______ ____
ROOT
ATOM      1  C   UNL     1       2.172   1.794  19.339  0.00  0.00    +0.000 C 
ATOM      2  N   UNL     1       2.429   3.217  19.201  0.00  0.00    +0.000 N 
ATOM      3  C   UNL     1       1.766   4.067  20.062  0.00  0.00    +0.000 A 
ATOM      4  O   UNL     1       1.025   3.702  20.967  0.00  0.00    +0.000 OA
ATOM      5  C   UNL     1       1.972   5.503  19.847  0.00  0.00    +0.000 A 
ATOM      6  C   UNL     1       1.300   6.393  20.693  0.00  0.00    +0.000 A 
ATOM      7  C   UNL     1       1.423   7.758  20.493  0.00  0.00    +0.000 A 
ATOM      8  C   UNL     1       2.199   8.240  19.438  0.00  0.00    +0.000 A 
ATOM      9  C   UNL     1       2.873   7.335  18.599  0.00  0.00    +0.000 A 
ATOM     10  C   UNL     1       2.777   5.947  18.797  0.00  0.00    +0.000 A 
ATOM     11  N   UNL     1       3.470   4.983  18.001  0.00  0.00    +0.000 N 
ATOM     12  C   UNL     1       3.374   3.615  18.265  0.00  0.00    +0.000 A 
ATOM     13  O   UNL     1       4.078   2.782  17.685  0.00  0.00    +0.000 OA
ENDROOT
BRANCH   7  14
ATOM     14  S   UNL     1       0.537   8.848  21.583  0.00  0.00    +0.000 S 
ATOM     15  O   UNL     1      -0.642   8.136  22.017  0.00  0.00    +0.000 OA
ATOM     16  O   UNL     1       1.469   9.421  22.509  0.00  0.00    +0.000 OA
BRANCH  14  17
ATOM     17  N   UNL     1       0.015  10.029  20.499  0.00  0.00    +0.000 NA
ATOM     18  H   UNL     1      -0.649   9.700  19.795  0.00  0.00    +0.000 HD
BRANCH  17  19
ATOM     19  C   UNL     1      -0.005  11.432  20.907  0.00  0.00    +0.000 C 
ATOM     20  C   UNL     1       1.275  12.160  20.595  0.00  0.00    +0.000 C 
ATOM     21  C   UNL     1      -1.324  12.173  20.797  0.00  0.00    +0.000 C 
ATOM     22  C   UNL     1      -0.733  11.893  22.143  0.00  0.00    +0.000 C 
ENDBRANCH  17  19
ENDBRANCH  14  17
ENDBRANCH   7  14
BRANCH  11  23
ATOM     23  C   UNL     1       4.348   5.402  16.890  0.00  0.00    +0.000 C 
BRANCH  23  24
ATOM     24  C   UNL     1       5.701   5.881  17.354  0.00  0.00    +0.000 A 
ATOM     25  C   UNL     1       6.380   5.244  18.397  0.00  0.00    +0.000 A 
ATOM     26  C   UNL     1       7.529   5.815  18.931  0.00  0.00    +0.000 A 
ATOM     27  C   UNL     1       7.998   6.987  18.365  0.00  0.00    +0.000 A 
ATOM     28  N   UNL     1       7.433   7.576  17.290  0.00  0.00    +0.000 NA
ATOM     29  C   UNL     1       6.304   7.009  16.808  0.00  0.00    +0.000 A 
ENDBRANCH  23  24
ENDBRANCH  11  23
TORSDOF 5
ENDMDL
MODEL 2
REMARK VINA RESULT:      -7.9      2.088      2.315
REMARK  Name = 
REMARK  7 active torsions:
REMARK  status: ('A' for Active; 'I' for Inactive)
REMARK    1  A    between atoms: C_1  and  N_2
REMARK    2  A    between atoms: C_7  and  S_8
REMARK    3  A    between atoms: S_8  and  N_11
REMARK    4  A    between atoms: N_11  and  C_12
REMARK    5  A    between atoms: C_12  and  C_13
REMARK    6  A    between atoms: N_19  and  C_20
REMARK    7  A    between atoms: C_20  and  C_21
REMARK                            x       y       z     vdW  Elec       q    Type
REMARK                         _______ _______ _______ _____ _____    ______ ____
ROOT
ATOM      1  C   UNL     1       2.481   2.918  20.865  0.00  0.00    +0.000 C 
ATOM      2  N   UNL     1       2.796   4.099  20.081  0.00  0.00    +0.000 N 
ATOM      3  C   UNL     1       2.014   5.218  20.282  0.00  0.00    +0.000 A 
ATOM      4  O   UNL     1       1.117   5.301  21.112  0.00  0.00    +0.000 OA
ATOM      5  C   UNL     1       2.292   6.370  19.417  0.00  0.00    +0.000 A 
ATOM      6  C   UNL     1       1.505   7.517  19.583  0.00  0.00    +0.000 A 
ATOM      7  C   UNL     1       1.697   8.608  18.753  0.00  0.00    +0.000 A 
ATOM      8  C   UNL     1       2.657   8.555  17.742  0.00  0.00    +0.000 A 
ATOM      9  C   UNL     1       3.445   7.399  17.590  0.00  0.00    +0.000 A 
ATOM     10  C   UNL     1       3.279   6.288  18.434  0.00  0.00    +0.000 A 
ATOM     11  N   UNL     1       4.075   5.104  18.351  0.00  0.00    +0.000 N 
ATOM     12  C   UNL     1       3.900   4.043  19.241  0.00  0.00    +0.000 A 
ATOM     13  O   UNL     1       4.672   3.080  19.279  0.00  0.00    +0.000 OA
ENDROOT
BRANCH   7  14
ATOM     14  S   UNL     1       0.662  10.034  18.992  0.00  0.00    +0.000 S 
ATOM     15  O   UNL     1      -0.236   9.721  20.079  0.00  0.00    +0.000 OA
ATOM     16  O   UNL     1       1.493  11.203  18.998  0.00  0.00    +0.000 OA
BRANCH  14  17
ATOM     17  N   UNL     1      -0.259  10.001  17.580  0.00  0.00    +0.000 NA
ATOM     18  H   UNL     1      -0.042   9.230  16.945  0.00  0.00    +0.000 HD
BRANCH  17  19
ATOM     19  C   UNL     1      -1.600  10.583  17.573  0.00  0.00    +0.000 C 
ATOM     20  C   UNL     1      -1.629  12.015  18.032  0.00  0.00    +0.000 C 
ATOM     21  C   UNL     1      -2.548  10.137  16.476  0.00  0.00    +0.000 C 
ATOM     22  C   UNL     1      -2.824   9.768  17.900  0.00  0.00    +0.000 C 
ENDBRANCH  17  19
ENDBRANCH  14  17
ENDBRANCH   7  14
BRANCH  11  23
ATOM     23  C   UNL     1       5.146   4.975  17.341  0.00  0.00    +0.000 C 
BRANCH  23  24
ATOM     24  C   UNL     1       6.353   5.827  17.646  0.00  0.00    +0.000 A 
ATOM     25  C   UNL     1       7.161   5.572  18.758  0.00  0.00    +0.000 A 
ATOM     26  C   UNL     1       8.148   6.480  19.124  0.00  0.00    +0.000 A 
ATOM     27  C   UNL     1       8.334   7.596  18.328  0.00  0.00    +0.000 A 
ATOM     28  N   UNL     1       7.648   7.824  17.188  0.00  0.00    +0.000 NA
ATOM     29  C   UNL     1       6.680   6.935  16.872  0.00  0.00    +0.000 A 
ENDBRANCH  23  24
ENDBRANCH  11  23
TORSDOF 5
ENDMDL
MODEL 3
REMARK VINA RESULT:      -7.9      3.446      7.757
REMARK  Name = 
REMARK  7 active torsions:
REMARK  status: ('A' for Active; 'I' for Inactive)
REMARK    1  A    between atoms: C_1  and  N_2
REMARK    2  A    between atoms: C_7  and  S_8
REMARK    3  A    between atoms: S_8  and  N_11
REMARK    4  A    between atoms: N_11  and  C_12
REMARK    5  A    between atoms: C_12  and  C_13
REMARK    6  A    between atoms: N_19  and  C_20
REMARK    7  A    between atoms: C_20  and  C_21
REMARK                            x       y       z     vdW  Elec       q    Type
REMARK                         _______ _______ _______ _____ _____    ______ ____
ROOT
ATOM      1  C   UNL     1       0.788   2.206  18.896  0.00  0.00    +0.000 C 
ATOM      2  N   UNL     1       1.723   3.290  18.652  0.00  0.00    +0.000 N 
ATOM      3  C   UNL     1       2.603   3.142  17.599  0.00  0.00    +0.000 A 
ATOM      4  O   UNL     1       2.610   2.192  16.826  0.00  0.00    +0.000 OA
ATOM      5  C   UNL     1       3.596   4.207  17.426  0.00  0.00    +0.000 A 
ATOM      6  C   UNL     1       4.515   4.079  16.377  0.00  0.00    +0.000 A 
ATOM      7  C   UNL     1       5.504   5.034  16.208  0.00  0.00    +0.000 A 
ATOM      8  C   UNL     1       5.593   6.108  17.096  0.00  0.00    +0.000 A 
ATOM      9  C   UNL     1       4.660   6.227  18.141  0.00  0.00    +0.000 A 
ATOM     10  C   UNL     1       3.638   5.280  18.318  0.00  0.00    +0.000 A 
ATOM     11  N   UNL     1       2.641   5.371  19.338  0.00  0.00    +0.000 N 
ATOM     12  C   UNL     1       1.620   4.425  19.445  0.00  0.00    +0.000 A 
ATOM     13  O   UNL     1       0.669   4.566  20.222  0.00  0.00    +0.000 OA
ENDROOT
BRANCH   7  14
ATOM     14  S   UNL     1       6.657   4.819  14.873  0.00  0.00    +0.000 S 
ATOM     15  O   UNL     1       6.529   5.976  14.020  0.00  0.00    +0.000 OA
ATOM     16  O   UNL     1       7.917   4.410  15.423  0.00  0.00    +0.000 OA
BRANCH  14  17
ATOM     17  N   UNL     1       5.954   3.529  14.047  0.00  0.00    +0.000 NA
ATOM     18  H   UNL     1       5.168   3.089  14.530  0.00  0.00    +0.000 HD
BRANCH  17  19
ATOM     19  C   UNL     1       6.021   3.476  12.588  0.00  0.00    +0.000 C 
ATOM     20  C   UNL     1       7.259   4.122  12.026  0.00  0.00    +0.000 C 
ATOM     21  C   UNL     1       5.453   2.245  11.907  0.00  0.00    +0.000 C 
ATOM     22  C   UNL     1       4.787   3.574  11.729  0.00  0.00    +0.000 C 
ENDBRANCH  17  19
ENDBRANCH  14  17
ENDBRANCH   7  14
BRANCH  11  23
ATOM     23  C   UNL     1       2.630   6.496  20.295  0.00  0.00    +0.000 C 
BRANCH  23  24
ATOM     24  C   UNL     1       1.911   7.713  19.769  0.00  0.00    +0.000 A 
ATOM     25  C   UNL     1       1.993   8.082  18.423  0.00  0.00    +0.000 A 
ATOM     26  C   UNL     1       1.483   9.305  18.005  0.00  0.00    +0.000 A 
ATOM     27  C   UNL     1       0.851  10.103  18.941  0.00  0.00    +0.000 A 
ATOM     28  N   UNL     1       0.657   9.736  20.226  0.00  0.00    +0.000 NA
ATOM     29  C   UNL     1       1.185   8.552  20.608  0.00  0.00    +0.000 A 
ENDBRANCH  23  24
ENDBRANCH  11  23
TORSDOF 5
ENDMDL
MODEL 4
REMARK VINA RESULT:      -7.8      2.921      8.176
REMARK  Name = 
REMARK  7 active torsions:
REMARK  status: ('A' for Active; 'I' for Inactive)
REMARK    1  A    between atoms: C_1  and  N_2
REMARK    2  A    between atoms: C_7  and  S_8
REMARK    3  A    between atoms: S_8  and  N_11
REMARK    4  A    between atoms: N_11  and  C_12
REMARK    5  A    between atoms: C_12  and  C_13
REMARK    6  A    between atoms: N_19  and  C_20
REMARK    7  A    between atoms: C_20  and  C_21
REMARK                            x       y       z     vdW  Elec       q    Type
REMARK                         _______ _______ _______ _____ _____    ______ ____
ROOT
ATOM      1  C   UNL     1      -0.608  10.500  23.185  0.00  0.00    +0.000 C 
ATOM      2  N   UNL     1      -0.225  10.195  21.817  0.00  0.00    +0.000 N 
ATOM      3  C   UNL     1       0.596   9.104  21.618  0.00  0.00    +0.000 A 
ATOM      4  O   UNL     1       0.973   8.346  22.503  0.00  0.00    +0.000 OA
ATOM      5  C   UNL     1       1.042   8.868  20.241  0.00  0.00    +0.000 A 
ATOM      6  C   UNL     1       1.890   7.779  20.007  0.00  0.00    +0.000 A 
ATOM      7  C   UNL     1       2.379   7.549  18.732  0.00  0.00    +0.000 A 
ATOM      8  C   UNL     1       2.042   8.415  17.691  0.00  0.00    +0.000 A 
ATOM      9  C   UNL     1       1.185   9.502  17.938  0.00  0.00    +0.000 A 
ATOM     10  C   UNL     1       0.663   9.741  19.221  0.00  0.00    +0.000 A 
ATOM     11  N   UNL     1      -0.241  10.806  19.522  0.00  0.00    +0.000 N 
ATOM     12  C   UNL     1      -0.766  10.976  20.805  0.00  0.00    +0.000 A 
ATOM     13  O   UNL     1      -1.658  11.795  21.049  0.00  0.00    +0.000 OA
ENDROOT
BRANCH   7  14
ATOM     14  S   UNL     1       3.466   6.163  18.488  0.00  0.00    +0.000 S 
ATOM     15  O   UNL     1       4.352   6.514  17.404  0.00  0.00    +0.000 OA
ATOM     16  O   UNL     1       3.953   5.738  19.768  0.00  0.00    +0.000 OA
BRANCH  14  17
ATOM     17  N   UNL     1       2.390   5.016  17.882  0.00  0.00    +0.000 NA
ATOM     18  H   UNL     1       2.140   5.142  16.898  0.00  0.00    +0.000 HD
BRANCH  17  19
ATOM     19  C   UNL     1       2.345   3.678  18.470  0.00  0.00    +0.000 C 
ATOM     20  C   UNL     1       1.391   3.570  19.628  0.00  0.00    +0.000 C 
ATOM     21  C   UNL     1       2.509   2.497  17.532  0.00  0.00    +0.000 C 
ATOM     22  C   UNL     1       3.567   2.800  18.547  0.00  0.00    +0.000 C 
ENDBRANCH  17  19
ENDBRANCH  14  17
ENDBRANCH   7  14
BRANCH  11  23
ATOM     23  C   UNL     1      -0.689  11.746  18.474  0.00  0.00    +0.000 C 
BRANCH  23  24
ATOM     24  C   UNL     1      -1.966  11.313  17.798  0.00  0.00    +0.000 A 
ATOM     25  C   UNL     1      -1.954  10.420  16.723  0.00  0.00    +0.000 A 
ATOM     26  C   UNL     1      -3.117  10.187  15.998  0.00  0.00    +0.000 A 
ATOM     27  C   UNL     1      -4.277  10.818  16.408  0.00  0.00    +0.000 A 
ATOM     28  N   UNL     1      -4.354  11.603  17.504  0.00  0.00    +0.000 NA
ATOM     29  C   UNL     1      -3.202  11.828  18.173  0.00  0.00    +0.000 A 
ENDBRANCH  23  24
ENDBRANCH  11  23
TORSDOF 5
ENDMDL
MODEL 5
REMARK VINA RESULT:      -7.8      2.980      8.045
REMARK  Name = 
REMARK  7 active torsions:
REMARK  status: ('A' for Active; 'I' for Inactive)
REMARK    1  A    between atoms: C_1  and  N_2
REMARK    2  A    between atoms: C_7  and  S_8
REMARK    3  A    between atoms: S_8  and  N_11
REMARK    4  A    between atoms: N_11  and  C_12
REMARK    5  A    between atoms: C_12  and  C_13
REMARK    6  A    between atoms: N_19  and  C_20
REMARK    7  A    between atoms: C_20  and  C_21
REMARK                            x       y       z     vdW  Elec       q    Type
REMARK                         _______ _______ _______ _____ _____    ______ ____
ROOT
ATOM      1  C   UNL     1      -0.684  10.766  23.075  0.00  0.00    +0.000 C 
ATOM      2  N   UNL     1      -0.290  10.367  21.735  0.00  0.00    +0.000 N 
ATOM      3  C   UNL     1       0.518   9.255  21.618  0.00  0.00    +0.000 A 
ATOM      4  O   UNL     1       0.874   8.551  22.555  0.00  0.00    +0.000 OA
ATOM      5  C   UNL     1       0.976   8.922  20.265  0.00  0.00    +0.000 A 
ATOM      6  C   UNL     1       1.811   7.808  20.113  0.00  0.00    +0.000 A 
ATOM      7  C   UNL     1       2.310   7.489  18.862  0.00  0.00    +0.000 A 
ATOM      8  C   UNL     1       1.997   8.288  17.762  0.00  0.00    +0.000 A 
ATOM      9  C   UNL     1       1.152   9.401  17.927  0.00  0.00    +0.000 A 
ATOM     10  C   UNL     1       0.620   9.731  19.185  0.00  0.00    +0.000 A 
ATOM     11  N   UNL     1      -0.273  10.825  19.405  0.00  0.00    +0.000 N 
ATOM     12  C   UNL     1      -0.809  11.086  20.667  0.00  0.00    +0.000 A 
ATOM     13  O   UNL     1      -1.693  11.931  20.846  0.00  0.00    +0.000 OA
ENDROOT
BRANCH   7  14
ATOM     14  S   UNL     1       3.380   6.076  18.723  0.00  0.00    +0.000 S 
ATOM     15  O   UNL     1       2.781   5.192  17.752  0.00  0.00    +0.000 OA
ATOM     16  O   UNL     1       4.732   6.540  18.603  0.00  0.00    +0.000 OA
BRANCH  14  17
ATOM     17  N   UNL     1       3.160   5.357  20.232  0.00  0.00    +0.000 NA
ATOM     18  H   UNL     1       2.847   5.994  20.968  0.00  0.00    +0.000 HD
BRANCH  17  19
ATOM     19  C   UNL     1       2.824   3.938  20.319  0.00  0.00    +0.000 C 
ATOM     20  C   UNL     1       3.874   3.040  19.724  0.00  0.00    +0.000 C 
ATOM     21  C   UNL     1       2.062   3.475  21.547  0.00  0.00    +0.000 C 
ATOM     22  C   UNL     1       1.404   3.446  20.203  0.00  0.00    +0.000 C 
ENDBRANCH  17  19
ENDBRANCH  14  17
ENDBRANCH   7  14
BRANCH  11  23
ATOM     23  C   UNL     1      -0.696  11.699  18.292  0.00  0.00    +0.000 C 
BRANCH  23  24
ATOM     24  C   UNL     1      -1.978  11.247  17.639  0.00  0.00    +0.000 A 
ATOM     25  C   UNL     1      -1.989  10.226  16.685  0.00  0.00    +0.000 A 
ATOM     26  C   UNL     1      -3.146   9.960  15.962  0.00  0.00    +0.000 A 
ATOM     27  C   UNL     1      -4.282  10.693  16.257  0.00  0.00    +0.000 A 
ATOM     28  N   UNL     1      -4.342  11.613  17.243  0.00  0.00    +0.000 NA
ATOM     29  C   UNL     1      -3.195  11.865  17.912  0.00  0.00    +0.000 A 
ENDBRANCH  23  24
ENDBRANCH  11  23
TORSDOF 5
ENDMDL
MODEL 6
REMARK VINA RESULT:      -7.7      2.915      7.550
REMARK  Name = 
REMARK  7 active torsions:
REMARK  status: ('A' for Active; 'I' for Inactive)
REMARK    1  A    between atoms: C_1  and  N_2
REMARK    2  A    between atoms: C_7  and  S_8
REMARK    3  A    between atoms: S_8  and  N_11
REMARK    4  A    between atoms: N_11  and  C_12
REMARK    5  A    between atoms: C_12  and  C_13
REMARK    6  A    between atoms: N_19  and  C_20
REMARK    7  A    between atoms: C_20  and  C_21
REMARK                            x       y       z     vdW  Elec       q    Type
REMARK                         _______ _______ _______ _____ _____    ______ ____
ROOT
ATOM      1  C   UNL     1      -0.764  10.727  23.029  0.00  0.00    +0.000 C 
ATOM      2  N   UNL     1      -0.269  10.413  21.700  0.00  0.00    +0.000 N 
ATOM      3  C   UNL     1       0.427   9.231  21.547  0.00  0.00    +0.000 A 
ATOM      4  O   UNL     1       0.603   8.407  22.435  0.00  0.00    +0.000 OA
ATOM      5  C   UNL     1       0.993   8.977  20.218  0.00  0.00    +0.000 A 
ATOM      6  C   UNL     1       1.720   7.794  20.033  0.00  0.00    +0.000 A 
ATOM      7  C   UNL     1       2.317   7.538  18.810  0.00  0.00    +0.000 A 
ATOM      8  C   UNL     1       2.212   8.468  17.775  0.00  0.00    +0.000 A 
ATOM      9  C   UNL     1       1.474   9.649  17.973  0.00  0.00    +0.000 A 
ATOM     10  C   UNL     1       0.844   9.918  19.199  0.00  0.00    +0.000 A 
ATOM     11  N   UNL     1       0.051  11.082  19.444  0.00  0.00    +0.000 N 
ATOM     12  C   UNL     1      -0.590  11.284  20.667  0.00  0.00    +0.000 A 
ATOM     13  O   UNL     1      -1.395  12.204  20.846  0.00  0.00    +0.000 OA
ENDROOT
BRANCH   7  14
ATOM     14  S   UNL     1       3.243   6.031  18.630  0.00  0.00    +0.000 S 
ATOM     15  O   UNL     1       2.476   5.171  17.761  0.00  0.00    +0.000 OA
ATOM     16  O   UNL     1       4.611   6.368  18.360  0.00  0.00    +0.000 OA
BRANCH  14  17
ATOM     17  N   UNL     1       3.114   5.388  20.183  0.00  0.00    +0.000 NA
ATOM     18  H   UNL     1       2.854   6.063  20.905  0.00  0.00    +0.000 HD
BRANCH  17  19
ATOM     19  C   UNL     1       2.775   3.977  20.360  0.00  0.00    +0.000 C 
ATOM     20  C   UNL     1       3.791   3.042  19.762  0.00  0.00    +0.000 C 
ATOM     21  C   UNL     1       2.073   3.585  21.646  0.00  0.00    +0.000 C 
ATOM     22  C   UNL     1       1.349   3.492  20.339  0.00  0.00    +0.000 C 
ENDBRANCH  17  19
ENDBRANCH  14  17
ENDBRANCH   7  14
BRANCH  11  23
ATOM     23  C   UNL     1      -0.153  12.100  18.392  0.00  0.00    +0.000 C 
BRANCH  23  24
ATOM     24  C   UNL     1       0.805  13.260  18.499  0.00  0.00    +0.000 A 
ATOM     25  C   UNL     1       2.177  13.093  18.293  0.00  0.00    +0.000 A 
ATOM     26  C   UNL     1       3.056  14.130  18.583  0.00  0.00    +0.000 A 
ATOM     27  C   UNL     1       2.526  15.330  19.020  0.00  0.00    +0.000 A 
ATOM     28  N   UNL     1       1.202  15.567  19.130  0.00  0.00    +0.000 NA
ATOM     29  C   UNL     1       0.374  14.532  18.863  0.00  0.00    +0.000 A 
ENDBRANCH  23  24
ENDBRANCH  11  23
TORSDOF 5
ENDMDL
MODEL 7
REMARK VINA RESULT:      -7.7      2.968      7.562
REMARK  Name = 
REMARK  7 active torsions:
REMARK  status: ('A' for Active; 'I' for Inactive)
REMARK    1  A    between atoms: C_1  and  N_2
REMARK    2  A    between atoms: C_7  and  S_8
REMARK    3  A    between atoms: S_8  and  N_11
REMARK    4  A    between atoms: N_11  and  C_12
REMARK    5  A    between atoms: C_12  and  C_13
REMARK    6  A    between atoms: N_19  and  C_20
REMARK    7  A    between atoms: C_20  and  C_21
REMARK                            x       y       z     vdW  Elec       q    Type
REMARK                         _______ _______ _______ _____ _____    ______ ____
ROOT
ATOM      1  C   UNL     1      -0.729  10.588  23.002  0.00  0.00    +0.000 C 
ATOM      2  N   UNL     1      -0.219  10.318  21.669  0.00  0.00    +0.000 N 
ATOM      3  C   UNL     1       0.478   9.142  21.486  0.00  0.00    +0.000 A 
ATOM      4  O   UNL     1       0.646   8.289  22.349  0.00  0.00    +0.000 OA
ATOM      5  C   UNL     1       1.060   8.930  20.156  0.00  0.00    +0.000 A 
ATOM      6  C   UNL     1       1.789   7.754  19.942  0.00  0.00    +0.000 A 
ATOM      7  C   UNL     1       2.400   7.538  18.718  0.00  0.00    +0.000 A 
ATOM      8  C   UNL     1       2.305   8.501  17.712  0.00  0.00    +0.000 A 
ATOM      9  C   UNL     1       1.565   9.675  17.939  0.00  0.00    +0.000 A 
ATOM     10  C   UNL     1       0.921   9.904  19.167  0.00  0.00    +0.000 A 
ATOM     11  N   UNL     1       0.125  11.059  19.440  0.00  0.00    +0.000 N 
ATOM     12  C   UNL     1      -0.530  11.221  20.662  0.00  0.00    +0.000 A 
ATOM     13  O   UNL     1      -1.337  12.135  20.861  0.00  0.00    +0.000 OA
ENDROOT
BRANCH   7  14
ATOM     14  S   UNL     1       3.329   6.038  18.499  0.00  0.00    +0.000 S 
ATOM     15  O   UNL     1       4.106   6.200  17.293  0.00  0.00    +0.000 OA
ATOM     16  O   UNL     1       3.929   5.688  19.754  0.00  0.00    +0.000 OA
BRANCH  14  17
ATOM     17  N   UNL     1       2.096   4.948  18.136  0.00  0.00    +0.000 NA
ATOM     18  H   UNL     1       1.851   4.893  17.145  0.00  0.00    +0.000 HD
BRANCH  17  19
ATOM     19  C   UNL     1       1.874   3.788  18.998  0.00  0.00    +0.000 C 
ATOM     20  C   UNL     1       1.031   4.097  20.205  0.00  0.00    +0.000 C 
ATOM     21  C   UNL     1       1.738   2.435  18.325  0.00  0.00    +0.000 C 
ATOM     22  C   UNL     1       2.925   2.725  19.190  0.00  0.00    +0.000 C 
ENDBRANCH  17  19
ENDBRANCH  14  17
ENDBRANCH   7  14
BRANCH  11  23
ATOM     23  C   UNL     1      -0.068  12.110  18.420  0.00  0.00    +0.000 C 
BRANCH  23  24
ATOM     24  C   UNL     1       0.946  13.223  18.517  0.00  0.00    +0.000 A 
ATOM     25  C   UNL     1       2.267  13.042  18.098  0.00  0.00    +0.000 A 
ATOM     26  C   UNL     1       3.223  14.012  18.374  0.00  0.00    +0.000 A 
ATOM     27  C   UNL     1       2.814  15.167  19.015  0.00  0.00    +0.000 A 
ATOM     28  N   UNL     1       1.530  15.427  19.340  0.00  0.00    +0.000 NA
ATOM     29  C   UNL     1       0.628  14.454  19.080  0.00  0.00    +0.000 A 
ENDBRANCH  23  24
ENDBRANCH  11  23
TORSDOF 5
ENDMDL
MODEL 8
REMARK VINA RESULT:      -7.6      2.887      8.092
REMARK  Name = 
REMARK  7 active torsions:
REMARK  status: ('A' for Active; 'I' for Inactive)
REMARK    1  A    between atoms: C_1  and  N_2
REMARK    2  A    between atoms: C_7  and  S_8
REMARK    3  A    between atoms: S_8  and  N_11
REMARK    4  A    between atoms: N_11  and  C_12
REMARK    5  A    between atoms: C_12  and  C_13
REMARK    6  A    between atoms: N_19  and  C_20
REMARK    7  A    between atoms: C_20  and  C_21
REMARK                            x       y       z     vdW  Elec       q    Type
REMARK                         _______ _______ _______ _____ _____    ______ ____
ROOT
ATOM      1  C   UNL     1      -0.514  10.105  23.133  0.00  0.00    +0.000 C 
ATOM      2  N   UNL     1      -0.102   9.876  21.759  0.00  0.00    +0.000 N 
ATOM      3  C   UNL     1       0.751   8.818  21.522  0.00  0.00    +0.000 A 
ATOM      4  O   UNL     1       1.135   8.028  22.376  0.00  0.00    +0.000 OA
ATOM      5  C   UNL     1       1.224   8.660  20.143  0.00  0.00    +0.000 A 
ATOM      6  C   UNL     1       2.105   7.605  19.871  0.00  0.00    +0.000 A 
ATOM      7  C   UNL     1       2.619   7.450  18.594  0.00  0.00    +0.000 A 
ATOM      8  C   UNL     1       2.274   8.355  17.590  0.00  0.00    +0.000 A 
ATOM      9  C   UNL     1       1.385   9.407  17.875  0.00  0.00    +0.000 A 
ATOM     10  C   UNL     1       0.837   9.570  19.158  0.00  0.00    +0.000 A 
ATOM     11  N   UNL     1      -0.100  10.595  19.495  0.00  0.00    +0.000 N 
ATOM     12  C   UNL     1      -0.648  10.690  20.776  0.00  0.00    +0.000 A 
ATOM     13  O   UNL     1      -1.566  11.473  21.044  0.00  0.00    +0.000 OA
ENDROOT
BRANCH   7  14
ATOM     14  S   UNL     1       3.746   6.106  18.303  0.00  0.00    +0.000 S 
ATOM     15  O   UNL     1       4.318   5.756  19.582  0.00  0.00    +0.000 OA
ATOM     16  O   UNL     1       3.095   5.140  17.466  0.00  0.00    +0.000 OA
BRANCH  14  17
ATOM     17  N   UNL     1       4.957   6.888  17.430  0.00  0.00    +0.000 NA
ATOM     18  H   UNL     1       4.880   7.907  17.409  0.00  0.00    +0.000 HD
BRANCH  17  19
ATOM     19  C   UNL     1       6.272   6.264  17.290  0.00  0.00    +0.000 C 
ATOM     20  C   UNL     1       6.303   5.168  16.260  0.00  0.00    +0.000 C 
ATOM     21  C   UNL     1       7.489   7.154  17.463  0.00  0.00    +0.000 C 
ATOM     22  C   UNL     1       7.196   6.081  18.466  0.00  0.00    +0.000 C 
ENDBRANCH  17  19
ENDBRANCH  14  17
ENDBRANCH   7  14
BRANCH  11  23
ATOM     23  C   UNL     1      -0.557  11.572  18.486  0.00  0.00    +0.000 C 
BRANCH  23  24
ATOM     24  C   UNL     1      -1.830  11.156  17.793  0.00  0.00    +0.000 A 
ATOM     25  C   UNL     1      -1.848  10.105  16.872  0.00  0.00    +0.000 A 
ATOM     26  C   UNL     1      -2.986   9.867  16.110  0.00  0.00    +0.000 A 
ATOM     27  C   UNL     1      -4.098  10.658  16.333  0.00  0.00    +0.000 A 
ATOM     28  N   UNL     1      -4.157  11.612  17.287  0.00  0.00    +0.000 NA
ATOM     29  C   UNL     1      -3.027  11.835  17.995  0.00  0.00    +0.000 A 
ENDBRANCH  23  24
ENDBRANCH  11  23
TORSDOF 5
ENDMDL
MODEL 9
REMARK VINA RESULT:      -7.6      0.936      1.384
REMARK  Name = 
REMARK  7 active torsions:
REMARK  status: ('A' for Active; 'I' for Inactive)
REMARK    1  A    between atoms: C_1  and  N_2
REMARK    2  A    between atoms: C_7  and  S_8
REMARK    3  A    between atoms: S_8  and  N_11
REMARK    4  A    between atoms: N_11  and  C_12
REMARK    5  A    between atoms: C_12  and  C_13
REMARK    6  A    between atoms: N_19  and  C_20
REMARK    7  A    between atoms: C_20  and  C_21
REMARK                            x       y       z     vdW  Elec       q    Type
REMARK                         _______ _______ _______ _____ _____    ______ ____
ROOT
ATOM      1  C   UNL     1       1.834   1.796  19.325  0.00  0.00    +0.000 C 
ATOM      2  N   UNL     1       2.217   3.194  19.231  0.00  0.00    +0.000 N 
ATOM      3  C   UNL     1       1.567   4.086  20.058  0.00  0.00    +0.000 A 
ATOM      4  O   UNL     1       0.736   3.773  20.902  0.00  0.00    +0.000 OA
ATOM      5  C   UNL     1       1.905   5.502  19.884  0.00  0.00    +0.000 A 
ATOM      6  C   UNL     1       1.250   6.435  20.697  0.00  0.00    +0.000 A 
ATOM      7  C   UNL     1       1.499   7.787  20.531  0.00  0.00    +0.000 A 
ATOM      8  C   UNL     1       2.385   8.215  19.541  0.00  0.00    +0.000 A 
ATOM      9  C   UNL     1       3.040   7.267  18.735  0.00  0.00    +0.000 A 
ATOM     10  C   UNL     1       2.816   5.890  18.901  0.00  0.00    +0.000 A 
ATOM     11  N   UNL     1       3.482   4.881  18.138  0.00  0.00    +0.000 N 
ATOM     12  C   UNL     1       3.256   3.524  18.370  0.00  0.00    +0.000 A 
ATOM     13  O   UNL     1       3.928   2.641  17.827  0.00  0.00    +0.000 OA
ENDROOT
BRANCH   7  14
ATOM     14  S   UNL     1       0.630   8.934  21.575  0.00  0.00    +0.000 S 
ATOM     15  O   UNL     1      -0.758   8.537  21.566  0.00  0.00    +0.000 OA
ATOM     16  O   UNL     1       1.372   9.092  22.792  0.00  0.00    +0.000 OA
BRANCH  14  17
ATOM     17  N   UNL     1       0.735  10.345  20.658  0.00  0.00    +0.000 NA
ATOM     18  H   UNL     1       1.646  10.506  20.224  0.00  0.00    +0.000 HD
BRANCH  17  19
ATOM     19  C   UNL     1      -0.466  10.901  20.038  0.00  0.00    +0.000 C 
ATOM     20  C   UNL     1      -1.319  11.689  20.994  0.00  0.00    +0.000 C 
ATOM     21  C   UNL     1      -0.360  11.353  18.594  0.00  0.00    +0.000 C 
ATOM     22  C   UNL     1      -1.209  10.172  18.948  0.00  0.00    +0.000 C 
ENDBRANCH  17  19
ENDBRANCH  14  17
ENDBRANCH   7  14
BRANCH  11  23
ATOM     23  C   UNL     1       4.469   5.239  17.099  0.00  0.00    +0.000 C 
BRANCH  23  24
ATOM     24  C   UNL     1       5.732   5.839  17.664  0.00  0.00    +0.000 A 
ATOM     25  C   UNL     1       6.287   7.005  17.129  0.00  0.00    +0.000 A 
ATOM     26  C   UNL     1       7.546   7.429  17.540  0.00  0.00    +0.000 A 
ATOM     27  C   UNL     1       8.192   6.698  18.520  0.00  0.00    +0.000 A 
ATOM     28  N   UNL     1       7.645   5.630  19.138  0.00  0.00    +0.000 NA
ATOM     29  C   UNL     1       6.431   5.229  18.701  0.00  0.00    +0.000 A 
ENDBRANCH  23  24
ENDBRANCH  11  23
TORSDOF 5
ENDMDL
