MODEL 1
REMARK VINA RESULT:      -8.3      0.000      0.000
REMARK  Name = 
REMARK  7 active torsions:
REMARK  status: ('A' for Active; 'I' for Inactive)
REMARK    1  A    between atoms: C_1  and  N_2
REMARK    2  A    between atoms: N_2  and  C_3
REMARK    3  A    between atoms: N_2  and  C_4
REMARK    4  A    between atoms: C_4  and  C_5
REMARK    5  A    between atoms: C_8  and  C_9
REMARK    6  A    between atoms: C_14  and  O_15
REMARK    7  A    between atoms: O_15  and  C_16
REMARK                            x       y       z     vdW  Elec       q    Type
REMARK                         _______ _______ _______ _____ _____    ______ ____
ROOT
ATOM      1  C   UNL     1       6.583   4.882  16.692  0.00  0.00    +0.000 A 
ATOM      2  C   UNL     1       7.551   5.584  17.442  0.00  0.00    +0.000 A 
ATOM      3  C   UNL     1       7.410   5.792  18.815  0.00  0.00    +0.000 A 
ATOM      4  C   UNL     1       6.322   5.253  19.485  0.00  0.00    +0.000 A 
ATOM      5  C   UNL     1       5.375   4.519  18.777  0.00  0.00    +0.000 A 
ATOM      6  C   UNL     1       5.457   4.382  17.376  0.00  0.00    +0.000 A 
ENDROOT
BRANCH   1  10
ATOM      7  C   UNL     1       6.914   4.242  13.218  0.00  0.00    +0.000 A 
ATOM      8  N   UNL     1       7.723   5.311  13.299  0.00  0.00    +0.000 NA
ATOM      9  O   UNL     1       7.673   5.652  14.657  0.00  0.00    +0.000 OA
ATOM     10  C   UNL     1       6.827   4.762  15.254  0.00  0.00    +0.000 A 
ATOM     11  N   UNL     1       6.311   3.895  14.404  0.00  0.00    +0.000 NA
BRANCH   7  12
ATOM     12  C   UNL     1       6.698   3.500  11.931  0.00  0.00    +0.000 C 
BRANCH  12  14
ATOM     13  C   UNL     1       4.360   3.215  11.408  0.00  0.00    +0.000 C 
ATOM     14  N   UNL     1       5.544   2.568  11.982  0.00  0.00    +0.000 NA
ATOM     15  C   UNL     1       5.820   1.322  11.264  0.00  0.00    +0.000 C 
ENDBRANCH  12  14
ENDBRANCH   7  12
ENDBRANCH   1  10
BRANCH   6  16
ATOM     16  O   UNL     1       4.438   3.753  16.676  0.00  0.00    +0.000 OA
BRANCH  16  17
ATOM     17  C   UNL     1       3.310   3.376  17.378  0.00  0.00    +0.000 A 
ATOM     18  C   UNL     1       2.182   4.195  17.508  0.00  0.00    +0.000 A 
ATOM     19  C   UNL     1       1.112   3.803  18.316  0.00  0.00    +0.000 A 
ATOM     20  C   UNL     1       1.133   2.557  18.938  0.00  0.00    +0.000 A 
ATOM     21  C   UNL     1       2.219   1.704  18.754  0.00  0.00    +0.000 A 
ATOM     22  C   UNL     1       3.311   2.110  17.974  0.00  0.00    +0.000 A 
ENDBRANCH  16  17
ENDBRANCH   6  16
TORSDOF 5
ENDMDL
MODEL 2
REMARK VINA RESULT:      -8.0      3.012      5.647
REMARK  Name = 
REMARK  7 active torsions:
REMARK  status: ('A' for Active; 'I' for Inactive)
REMARK    1  A    between atoms: C_1  and  N_2
REMARK    2  A    between atoms: N_2  and  C_3
REMARK    3  A    between atoms: N_2  and  C_4
REMARK    4  A    between atoms: C_4  and  C_5
REMARK    5  A    between atoms: C_8  and  C_9
REMARK    6  A    between atoms: C_14  and  O_15
REMARK    7  A    between atoms: O_15  and  C_16
REMARK                            x       y       z     vdW  Elec       q    Type
REMARK                         _______ _______ _______ _____ _____    ______ ____
ROOT
ATOM      1  C   UNL     1       2.840   3.748  18.560  0.00  0.00    +0.000 A 
ATOM      2  C   UNL     1       2.178   2.527  18.304  0.00  0.00    +0.000 A 
ATOM      3  C   UNL     1       1.024   2.156  18.997  0.00  0.00    +0.000 A 
ATOM      4  C   UNL     1       0.470   3.023  19.927  0.00  0.00    +0.000 A 
ATOM      5  C   UNL     1       1.079   4.252  20.167  0.00  0.00    +0.000 A 
ATOM      6  C   UNL     1       2.295   4.598  19.543  0.00  0.00    +0.000 A 
ENDROOT
BRANCH   1  10
ATOM      7  C   UNL     1       6.002   4.400  17.090  0.00  0.00    +0.000 A 
ATOM      8  N   UNL     1       5.274   4.323  15.964  0.00  0.00    +0.000 NA
ATOM      9  O   UNL     1       3.978   4.069  16.434  0.00  0.00    +0.000 OA
ATOM     10  C   UNL     1       4.060   4.005  17.795  0.00  0.00    +0.000 A 
ATOM     11  N   UNL     1       5.290   4.171  18.243  0.00  0.00    +0.000 NA
BRANCH   7  12
ATOM     12  C   UNL     1       7.470   4.712  17.071  0.00  0.00    +0.000 C 
BRANCH  12  14
ATOM     13  C   UNL     1       6.818   7.022  17.317  0.00  0.00    +0.000 C 
ATOM     14  N   UNL     1       7.800   6.009  17.715  0.00  0.00    +0.000 NA
ATOM     15  C   UNL     1       7.828   5.898  19.175  0.00  0.00    +0.000 C 
ENDBRANCH  12  14
ENDBRANCH   7  12
ENDBRANCH   1  10
BRANCH   6  16
ATOM     16  O   UNL     1       2.948   5.771  19.890  0.00  0.00    +0.000 OA
BRANCH  16  17
ATOM     17  C   UNL     1       2.398   6.965  19.465  0.00  0.00    +0.000 A 
ATOM     18  C   UNL     1       2.472   7.410  18.140  0.00  0.00    +0.000 A 
ATOM     19  C   UNL     1       1.988   8.672  17.789  0.00  0.00    +0.000 A 
ATOM     20  C   UNL     1       1.360   9.465  18.747  0.00  0.00    +0.000 A 
ATOM     21  C   UNL     1       1.214   8.998  20.052  0.00  0.00    +0.000 A 
ATOM     22  C   UNL     1       1.733   7.747  20.415  0.00  0.00    +0.000 A 
ENDBRANCH  16  17
ENDBRANCH   6  16
TORSDOF 5
ENDMDL
MODEL 3
REMARK VINA RESULT:      -7.9      2.963      5.077
REMARK  Name = 
REMARK  7 active torsions:
REMARK  status: ('A' for Active; 'I' for Inactive)
REMARK    1  A    between atoms: C_1  and  N_2
REMARK    2  A    between atoms: N_2  and  C_3
REMARK    3  A    between atoms: N_2  and  C_4
REMARK    4  A    between atoms: C_4  and  C_5
REMARK    5  A    between atoms: C_8  and  C_9
REMARK    6  A    between atoms: C_14  and  O_15
REMARK    7  A    between atoms: O_15  and  C_16
REMARK                            x       y       z     vdW  Elec       q    Type
REMARK                         _______ _______ _______ _____ _____    ______ ____
ROOT
ATOM      1  C   UNL     1       3.251   3.705  18.923  0.00  0.00    +0.000 A 
ATOM      2  C   UNL     1       2.725   2.436  18.597  0.00  0.00    +0.000 A 
ATOM      3  C   UNL     1       1.482   2.010  19.070  0.00  0.00    +0.000 A 
ATOM      4  C   UNL     1       0.707   2.866  19.838  0.00  0.00    +0.000 A 
ATOM      5  C   UNL     1       1.183   4.139  20.137  0.00  0.00    +0.000 A 
ATOM      6  C   UNL     1       2.474   4.547  19.744  0.00  0.00    +0.000 A 
ENDROOT
BRANCH   1  10
ATOM      7  C   UNL     1       6.304   4.388  17.249  0.00  0.00    +0.000 A 
ATOM      8  N   UNL     1       6.724   4.577  18.511  0.00  0.00    +0.000 NA
ATOM      9  O   UNL     1       5.577   4.323  19.275  0.00  0.00    +0.000 OA
ATOM     10  C   UNL     1       4.578   4.019  18.396  0.00  0.00    +0.000 A 
ATOM     11  N   UNL     1       4.969   4.077  17.137  0.00  0.00    +0.000 NA
BRANCH   7  12
ATOM     12  C   UNL     1       7.228   4.509  16.073  0.00  0.00    +0.000 C 
BRANCH  12  14
ATOM     13  C   UNL     1       6.187   4.283  13.908  0.00  0.00    +0.000 C 
ATOM     14  N   UNL     1       6.624   5.239  14.930  0.00  0.00    +0.000 NA
ATOM     15  C   UNL     1       5.489   6.063  15.350  0.00  0.00    +0.000 C 
ENDBRANCH  12  14
ENDBRANCH   7  12
ENDBRANCH   1  10
BRANCH   6  16
ATOM     16  O   UNL     1       2.976   5.772  20.159  0.00  0.00    +0.000 OA
BRANCH  16  17
ATOM     17  C   UNL     1       2.445   6.912  19.589  0.00  0.00    +0.000 A 
ATOM     18  C   UNL     1       2.583   7.221  18.230  0.00  0.00    +0.000 A 
ATOM     19  C   UNL     1       2.113   8.438  17.731  0.00  0.00    +0.000 A 
ATOM     20  C   UNL     1       1.438   9.319  18.572  0.00  0.00    +0.000 A 
ATOM     21  C   UNL     1       1.230   8.986  19.909  0.00  0.00    +0.000 A 
ATOM     22  C   UNL     1       1.733   7.782  20.422  0.00  0.00    +0.000 A 
ENDBRANCH  16  17
ENDBRANCH   6  16
TORSDOF 5
ENDMDL
MODEL 4
REMARK VINA RESULT:      -7.8      3.150      5.825
REMARK  Name = 
REMARK  7 active torsions:
REMARK  status: ('A' for Active; 'I' for Inactive)
REMARK    1  A    between atoms: C_1  and  N_2
REMARK    2  A    between atoms: N_2  and  C_3
REMARK    3  A    between atoms: N_2  and  C_4
REMARK    4  A    between atoms: C_4  and  C_5
REMARK    5  A    between atoms: C_8  and  C_9
REMARK    6  A    between atoms: C_14  and  O_15
REMARK    7  A    between atoms: O_15  and  C_16
REMARK                            x       y       z     vdW  Elec       q    Type
REMARK                         _______ _______ _______ _____ _____    ______ ____
ROOT
ATOM      1  C   UNL     1       2.802   4.045  18.509  0.00  0.00    +0.000 A 
ATOM      2  C   UNL     1       2.171   2.829  18.170  0.00  0.00    +0.000 A 
ATOM      3  C   UNL     1       1.050   2.363  18.860  0.00  0.00    +0.000 A 
ATOM      4  C   UNL     1       0.497   3.131  19.873  0.00  0.00    +0.000 A 
ATOM      5  C   UNL     1       1.074   4.355  20.199  0.00  0.00    +0.000 A 
ATOM      6  C   UNL     1       2.259   4.792  19.574  0.00  0.00    +0.000 A 
ENDROOT
BRANCH   1  10
ATOM      7  C   UNL     1       5.771   5.206  16.951  0.00  0.00    +0.000 A 
ATOM      8  N   UNL     1       5.393   4.316  16.018  0.00  0.00    +0.000 NA
ATOM      9  O   UNL     1       4.203   3.790  16.536  0.00  0.00    +0.000 OA
ATOM     10  C   UNL     1       3.990   4.405  17.736  0.00  0.00    +0.000 A 
ATOM     11  N   UNL     1       4.944   5.262  18.048  0.00  0.00    +0.000 NA
BRANCH   7  12
ATOM     12  C   UNL     1       6.994   6.060  16.792  0.00  0.00    +0.000 C 
BRANCH  12  14
ATOM     13  C   UNL     1       8.076   6.180  18.945  0.00  0.00    +0.000 C 
ATOM     14  N   UNL     1       7.265   6.918  17.973  0.00  0.00    +0.000 NA
ATOM     15  C   UNL     1       7.951   8.156  17.599  0.00  0.00    +0.000 C 
ENDBRANCH  12  14
ENDBRANCH   7  12
ENDBRANCH   1  10
BRANCH   6  16
ATOM     16  O   UNL     1       2.885   5.955  20.000  0.00  0.00    +0.000 OA
BRANCH  16  17
ATOM     17  C   UNL     1       2.296   7.160  19.675  0.00  0.00    +0.000 A 
ATOM     18  C   UNL     1       1.608   7.949  20.605  0.00  0.00    +0.000 A 
ATOM     19  C   UNL     1       0.944   9.108  20.197  0.00  0.00    +0.000 A 
ATOM     20  C   UNL     1       1.027   9.524  18.870  0.00  0.00    +0.000 A 
ATOM     21  C   UNL     1       1.772   8.786  17.953  0.00  0.00    +0.000 A 
ATOM     22  C   UNL     1       2.409   7.602  18.352  0.00  0.00    +0.000 A 
ENDBRANCH  16  17
ENDBRANCH   6  16
TORSDOF 5
ENDMDL
MODEL 5
REMARK VINA RESULT:      -7.8      3.125      5.100
REMARK  Name = 
REMARK  7 active torsions:
REMARK  status: ('A' for Active; 'I' for Inactive)
REMARK    1  A    between atoms: C_1  and  N_2
REMARK    2  A    between atoms: N_2  and  C_3
REMARK    3  A    between atoms: N_2  and  C_4
REMARK    4  A    between atoms: C_4  and  C_5
REMARK    5  A    between atoms: C_8  and  C_9
REMARK    6  A    between atoms: C_14  and  O_15
REMARK    7  A    between atoms: O_15  and  C_16
REMARK                            x       y       z     vdW  Elec       q    Type
REMARK                         _______ _______ _______ _____ _____    ______ ____
ROOT
ATOM      1  C   UNL     1       3.226   4.083  19.031  0.00  0.00    +0.000 A 
ATOM      2  C   UNL     1       2.696   2.801  18.770  0.00  0.00    +0.000 A 
ATOM      3  C   UNL     1       1.475   2.386  19.304  0.00  0.00    +0.000 A 
ATOM      4  C   UNL     1       0.725   3.265  20.071  0.00  0.00    +0.000 A 
ATOM      5  C   UNL     1       1.204   4.550  20.308  0.00  0.00    +0.000 A 
ATOM      6  C   UNL     1       2.477   4.949  19.852  0.00  0.00    +0.000 A 
ENDROOT
BRANCH   1  10
ATOM      7  C   UNL     1       6.170   4.997  17.273  0.00  0.00    +0.000 A 
ATOM      8  N   UNL     1       6.747   4.388  18.322  0.00  0.00    +0.000 NA
ATOM      9  O   UNL     1       5.656   3.972  19.096  0.00  0.00    +0.000 OA
ATOM     10  C   UNL     1       4.531   4.386  18.442  0.00  0.00    +0.000 A 
ATOM     11  N   UNL     1       4.797   5.048  17.332  0.00  0.00    +0.000 NA
BRANCH   7  12
ATOM     12  C   UNL     1       6.971   5.569  16.141  0.00  0.00    +0.000 C 
BRANCH  12  14
ATOM     13  C   UNL     1       7.555   5.324  13.813  0.00  0.00    +0.000 C 
ATOM     14  N   UNL     1       6.497   5.123  14.806  0.00  0.00    +0.000 NA
ATOM     15  C   UNL     1       6.094   3.715  14.817  0.00  0.00    +0.000 C 
ENDBRANCH  12  14
ENDBRANCH   7  12
ENDBRANCH   1  10
BRANCH   6  16
ATOM     16  O   UNL     1       2.987   6.190  20.205  0.00  0.00    +0.000 OA
BRANCH  16  17
ATOM     17  C   UNL     1       2.348   7.313  19.715  0.00  0.00    +0.000 A 
ATOM     18  C   UNL     1       1.581   8.166  20.517  0.00  0.00    +0.000 A 
ATOM     19  C   UNL     1       0.875   9.228  19.948  0.00  0.00    +0.000 A 
ATOM     20  C   UNL     1       0.990   9.486  18.584  0.00  0.00    +0.000 A 
ATOM     21  C   UNL     1       1.810   8.687  17.790  0.00  0.00    +0.000 A 
ATOM     22  C   UNL     1       2.491   7.598  18.352  0.00  0.00    +0.000 A 
ENDBRANCH  16  17
ENDBRANCH   6  16
TORSDOF 5
ENDMDL
MODEL 6
REMARK VINA RESULT:      -7.6      4.907      7.052
REMARK  Name = 
REMARK  7 active torsions:
REMARK  status: ('A' for Active; 'I' for Inactive)
REMARK    1  A    between atoms: C_1  and  N_2
REMARK    2  A    between atoms: N_2  and  C_3
REMARK    3  A    between atoms: N_2  and  C_4
REMARK    4  A    between atoms: C_4  and  C_5
REMARK    5  A    between atoms: C_8  and  C_9
REMARK    6  A    between atoms: C_14  and  O_15
REMARK    7  A    between atoms: O_15  and  C_16
REMARK                            x       y       z     vdW  Elec       q    Type
REMARK                         _______ _______ _______ _____ _____    ______ ____
ROOT
ATOM      1  C   UNL     1       3.643   6.736  17.659  0.00  0.00    +0.000 A 
ATOM      2  C   UNL     1       4.986   7.058  17.369  0.00  0.00    +0.000 A 
ATOM      3  C   UNL     1       5.933   6.075  17.076  0.00  0.00    +0.000 A 
ATOM      4  C   UNL     1       5.547   4.745  17.012  0.00  0.00    +0.000 A 
ATOM      5  C   UNL     1       4.219   4.403  17.251  0.00  0.00    +0.000 A 
ATOM      6  C   UNL     1       3.275   5.375  17.639  0.00  0.00    +0.000 A 
ENDROOT
BRANCH   1  10
ATOM      7  C   UNL     1       1.387   9.219  18.813  0.00  0.00    +0.000 A 
ATOM      8  N   UNL     1       1.758   9.808  17.664  0.00  0.00    +0.000 NA
ATOM      9  O   UNL     1       2.662   8.893  17.109  0.00  0.00    +0.000 OA
ATOM     10  C   UNL     1       2.756   7.852  17.987  0.00  0.00    +0.000 A 
ATOM     11  N   UNL     1       2.014   8.022  19.065  0.00  0.00    +0.000 NA
BRANCH   7  12
ATOM     12  C   UNL     1       0.372   9.832  19.733  0.00  0.00    +0.000 C 
BRANCH  12  14
ATOM     13  C   UNL     1       0.792  11.873  20.948  0.00  0.00    +0.000 C 
ATOM     14  N   UNL     1       0.973  10.419  20.957  0.00  0.00    +0.000 NA
ATOM     15  C   UNL     1       0.383   9.857  22.174  0.00  0.00    +0.000 C 
ENDBRANCH  12  14
ENDBRANCH   7  12
ENDBRANCH   1  10
BRANCH   6  16
ATOM     16  O   UNL     1       1.988   4.996  17.994  0.00  0.00    +0.000 OA
BRANCH  16  17
ATOM     17  C   UNL     1       1.828   4.272  19.159  0.00  0.00    +0.000 A 
ATOM     18  C   UNL     1       2.268   4.728  20.407  0.00  0.00    +0.000 A 
ATOM     19  C   UNL     1       2.171   3.909  21.534  0.00  0.00    +0.000 A 
ATOM     20  C   UNL     1       1.565   2.658  21.433  0.00  0.00    +0.000 A 
ATOM     21  C   UNL     1       1.057   2.227  20.209  0.00  0.00    +0.000 A 
ATOM     22  C   UNL     1       1.186   3.032  19.069  0.00  0.00    +0.000 A 
ENDBRANCH  16  17
ENDBRANCH   6  16
TORSDOF 5
ENDMDL
MODEL 7
REMARK VINA RESULT:      -7.6      2.785      3.617
REMARK  Name = 
REMARK  7 active torsions:
REMARK  status: ('A' for Active; 'I' for Inactive)
REMARK    1  A    between atoms: C_1  and  N_2
REMARK    2  A    between atoms: N_2  and  C_3
REMARK    3  A    between atoms: N_2  and  C_4
REMARK    4  A    between atoms: C_4  and  C_5
REMARK    5  A    between atoms: C_8  and  C_9
REMARK    6  A    between atoms: C_14  and  O_15
REMARK    7  A    between atoms: O_15  and  C_16
REMARK                            x       y       z     vdW  Elec       q    Type
REMARK                         _______ _______ _______ _____ _____    ______ ____
ROOT
ATOM      1  C   UNL     1       3.721   7.148  17.950  0.00  0.00    +0.000 A 
ATOM      2  C   UNL     1       3.180   8.336  17.411  0.00  0.00    +0.000 A 
ATOM      3  C   UNL     1       2.107   8.996  18.013  0.00  0.00    +0.000 A 
ATOM      4  C   UNL     1       1.581   8.515  19.202  0.00  0.00    +0.000 A 
ATOM      5  C   UNL     1       2.124   7.370  19.779  0.00  0.00    +0.000 A 
ATOM      6  C   UNL     1       3.145   6.642  19.133  0.00  0.00    +0.000 A 
ENDROOT
BRANCH   1  10
ATOM      7  C   UNL     1       6.092   5.358  16.012  0.00  0.00    +0.000 A 
ATOM      8  N   UNL     1       6.914   6.295  16.513  0.00  0.00    +0.000 NA
ATOM      9  O   UNL     1       6.068   7.071  17.316  0.00  0.00    +0.000 OA
ATOM     10  C   UNL     1       4.819   6.532  17.207  0.00  0.00    +0.000 A 
ATOM     11  N   UNL     1       4.778   5.495  16.392  0.00  0.00    +0.000 NA
BRANCH   7  12
ATOM     12  C   UNL     1       6.585   4.260  15.116  0.00  0.00    +0.000 C 
BRANCH  12  14
ATOM     13  C   UNL     1       7.802   5.128  13.223  0.00  0.00    +0.000 C 
ATOM     14  N   UNL     1       6.510   4.605  13.674  0.00  0.00    +0.000 NA
ATOM     15  C   UNL     1       6.134   3.449  12.858  0.00  0.00    +0.000 C 
ENDBRANCH  12  14
ENDBRANCH   7  12
ENDBRANCH   1  10
BRANCH   6  16
ATOM     16  O   UNL     1       3.585   5.438  19.662  0.00  0.00    +0.000 OA
BRANCH  16  17
ATOM     17  C   UNL     1       2.699   4.378  19.678  0.00  0.00    +0.000 A 
ATOM     18  C   UNL     1       2.250   3.742  18.514  0.00  0.00    +0.000 A 
ATOM     19  C   UNL     1       1.276   2.744  18.585  0.00  0.00    +0.000 A 
ATOM     20  C   UNL     1       0.799   2.326  19.826  0.00  0.00    +0.000 A 
ATOM     21  C   UNL     1       1.296   2.902  20.993  0.00  0.00    +0.000 A 
ATOM     22  C   UNL     1       2.246   3.930  20.923  0.00  0.00    +0.000 A 
ENDBRANCH  16  17
ENDBRANCH   6  16
TORSDOF 5
ENDMDL
MODEL 8
REMARK VINA RESULT:      -7.6      3.005      4.801
REMARK  Name = 
REMARK  7 active torsions:
REMARK  status: ('A' for Active; 'I' for Inactive)
REMARK    1  A    between atoms: C_1  and  N_2
REMARK    2  A    between atoms: N_2  and  C_3
REMARK    3  A    between atoms: N_2  and  C_4
REMARK    4  A    between atoms: C_4  and  C_5
REMARK    5  A    between atoms: C_8  and  C_9
REMARK    6  A    between atoms: C_14  and  O_15
REMARK    7  A    between atoms: O_15  and  C_16
REMARK                            x       y       z     vdW  Elec       q    Type
REMARK                         _______ _______ _______ _____ _____    ______ ____
ROOT
ATOM      1  C   UNL     1       2.886   4.180  18.223  0.00  0.00    +0.000 A 
ATOM      2  C   UNL     1       2.281   2.923  18.005  0.00  0.00    +0.000 A 
ATOM      3  C   UNL     1       1.271   2.437  18.838  0.00  0.00    +0.000 A 
ATOM      4  C   UNL     1       0.802   3.222  19.881  0.00  0.00    +0.000 A 
ATOM      5  C   UNL     1       1.351   4.484  20.092  0.00  0.00    +0.000 A 
ATOM      6  C   UNL     1       2.433   4.946  19.316  0.00  0.00    +0.000 A 
ENDROOT
BRANCH   1  10
ATOM      7  C   UNL     1       5.584   4.677  15.973  0.00  0.00    +0.000 A 
ATOM      8  N   UNL     1       5.214   5.959  16.124  0.00  0.00    +0.000 NA
ATOM      9  O   UNL     1       4.137   5.882  17.017  0.00  0.00    +0.000 OA
ATOM     10  C   UNL     1       3.957   4.560  17.303  0.00  0.00    +0.000 A 
ATOM     11  N   UNL     1       4.803   3.777  16.660  0.00  0.00    +0.000 NA
BRANCH   7  12
ATOM     12  C   UNL     1       6.754   4.278  15.122  0.00  0.00    +0.000 C 
BRANCH  12  14
ATOM     13  C   UNL     1       7.816   5.194  13.160  0.00  0.00    +0.000 C 
ATOM     14  N   UNL     1       6.576   4.620  13.688  0.00  0.00    +0.000 NA
ATOM     15  C   UNL     1       6.198   3.450  12.894  0.00  0.00    +0.000 C 
ENDBRANCH  12  14
ENDBRANCH   7  12
ENDBRANCH   1  10
BRANCH   6  16
ATOM     16  O   UNL     1       3.046   6.153  19.622  0.00  0.00    +0.000 OA
BRANCH  16  17
ATOM     17  C   UNL     1       2.320   7.312  19.429  0.00  0.00    +0.000 A 
ATOM     18  C   UNL     1       2.189   7.931  18.180  0.00  0.00    +0.000 A 
ATOM     19  C   UNL     1       1.529   9.156  18.064  0.00  0.00    +0.000 A 
ATOM     20  C   UNL     1       0.932   9.732  19.184  0.00  0.00    +0.000 A 
ATOM     21  C   UNL     1       0.993   9.085  20.416  0.00  0.00    +0.000 A 
ATOM     22  C   UNL     1       1.687   7.874  20.543  0.00  0.00    +0.000 A 
ENDBRANCH  16  17
ENDBRANCH   6  16
TORSDOF 5
ENDMDL
MODEL 9
REMARK VINA RESULT:      -7.6      4.920      6.967
REMARK  Name = 
REMARK  7 active torsions:
REMARK  status: ('A' for Active; 'I' for Inactive)
REMARK    1  A    between atoms: C_1  and  N_2
REMARK    2  A    between atoms: N_2  and  C_3
REMARK    3  A    between atoms: N_2  and  C_4
REMARK    4  A    between atoms: C_4  and  C_5
REMARK    5  A    between atoms: C_8  and  C_9
REMARK    6  A    between atoms: C_14  and  O_15
REMARK    7  A    between atoms: O_15  and  C_16
REMARK                            x       y       z     vdW  Elec       q    Type
REMARK                         _______ _______ _______ _____ _____    ______ ____
ROOT
ATOM      1  C   UNL     1       3.676   6.669  17.618  0.00  0.00    +0.000 A 
ATOM      2  C   UNL     1       5.016   6.966  17.291  0.00  0.00    +0.000 A 
ATOM      3  C   UNL     1       5.934   5.965  16.965  0.00  0.00    +0.000 A 
ATOM      4  C   UNL     1       5.519   4.643  16.904  0.00  0.00    +0.000 A 
ATOM      5  C   UNL     1       4.191   4.327  17.179  0.00  0.00    +0.000 A 
ATOM      6  C   UNL     1       3.279   5.316  17.600  0.00  0.00    +0.000 A 
ENDROOT
BRANCH   1  10
ATOM      7  C   UNL     1       1.519   9.198  18.858  0.00  0.00    +0.000 A 
ATOM      8  N   UNL     1       1.827   9.762  17.678  0.00  0.00    +0.000 NA
ATOM      9  O   UNL     1       2.687   8.827  17.087  0.00  0.00    +0.000 OA
ATOM     10  C   UNL     1       2.822   7.801  17.977  0.00  0.00    +0.000 A 
ATOM     11  N   UNL     1       2.147   7.998  19.093  0.00  0.00    +0.000 NA
BRANCH   7  12
ATOM     12  C   UNL     1       0.567   9.839  19.825  0.00  0.00    +0.000 C 
BRANCH  12  14
ATOM     13  C   UNL     1      -1.447  10.749  18.857  0.00  0.00    +0.000 C 
ATOM     14  N   UNL     1      -0.080  11.061  19.284  0.00  0.00    +0.000 NA
ATOM     15  C   UNL     1      -0.108  12.142  20.271  0.00  0.00    +0.000 C 
ENDBRANCH  12  14
ENDBRANCH   7  12
ENDBRANCH   1  10
BRANCH   6  16
ATOM     16  O   UNL     1       1.995   4.962  17.988  0.00  0.00    +0.000 OA
BRANCH  16  17
ATOM     17  C   UNL     1       1.857   4.168  19.110  0.00  0.00    +0.000 A 
ATOM     18  C   UNL     1       1.282   2.892  19.076  0.00  0.00    +0.000 A 
ATOM     19  C   UNL     1       1.076   2.177  20.258  0.00  0.00    +0.000 A 
ATOM     20  C   UNL     1       1.511   2.703  21.472  0.00  0.00    +0.000 A 
ATOM     21  C   UNL     1       2.152   3.940  21.506  0.00  0.00    +0.000 A 
ATOM     22  C   UNL     1       2.327   4.676  20.326  0.00  0.00    +0.000 A 
ENDBRANCH  16  17
ENDBRANCH   6  16
TORSDOF 5
ENDMDL
