MODEL 1
REMARK VINA RESULT:      -5.9      0.000      0.000
REMARK  Name = 
REMARK  7 active torsions:
REMARK  status: ('A' for Active; 'I' for Inactive)
REMARK    1  A    between atoms: C_1  and  C_2
REMARK    2  A    between atoms: C_6  and  C_7
REMARK    3  A    between atoms: C_7  and  S_8
REMARK    4  A    between atoms: S_8  and  C_9
REMARK    5  A    between atoms: C_9  and  C_10
REMARK    6  A    between atoms: C_10  and  C_11
REMARK    7  A    between atoms: C_11  and  O_12
REMARK                            x       y       z     vdW  Elec       q    Type
REMARK                         _______ _______ _______ _____ _____    ______ ____
ROOT
ATOM      1  C   UNL     1       7.780   7.909  17.540  0.00  0.00    +0.000 C 
ATOM      2  C   UNL     1       6.757   6.814  17.638  0.00  0.00    +0.000 A 
ATOM      3  C   UNL     1       5.715   6.747  16.618  0.00  0.00    +0.000 A 
ATOM      4  C   UNL     1       4.788   5.777  16.682  0.00  0.00    +0.000 A 
ATOM      5  N   UNL     1       4.840   4.836  17.712  0.00  0.00    +0.000 N 
ATOM      6  C   UNL     1       4.037   3.744  17.996  0.00  0.00    +0.000 A 
ATOM      7  C   UNL     1       4.560   3.213  19.160  0.00  0.00    +0.000 A 
ATOM      8  N   UNL     1       5.657   3.906  19.586  0.00  0.00    +0.000 NA
ATOM      9  C   UNL     1       5.816   4.875  18.711  0.00  0.00    +0.000 A 
ATOM     10  C   UNL     1       6.789   5.913  18.643  0.00  0.00    +0.000 A 
ENDROOT
BRANCH   6  11
ATOM     11  C   UNL     1       2.826   3.327  17.248  0.00  0.00    +0.000 C 
BRANCH  11  12
ATOM     12  S   UNL     1       1.252   3.918  17.924  0.00  0.00    +0.000 S 
BRANCH  12  13
ATOM     13  C   UNL     1       0.881   2.635  19.168  0.00  0.00    +0.000 C 
BRANCH  13  14
ATOM     14  C   UNL     1       1.124   3.260  20.542  0.00  0.00    +0.000 C 
BRANCH  14  15
ATOM     15  C   UNL     1       1.319   4.767  20.485  0.00  0.00    +0.000 C 
BRANCH  15  16
ATOM     16  O   UNL     1       2.450   5.132  21.270  0.00  0.00    +0.000 OA
ATOM     17  H   UNL     1       2.714   4.355  21.792  0.00  0.00    +0.000 HD
ENDBRANCH  15  16
ENDBRANCH  14  15
ENDBRANCH  13  14
ENDBRANCH  12  13
ENDBRANCH  11  12
ENDBRANCH   6  11
TORSDOF 6
ENDMDL
MODEL 2
REMARK VINA RESULT:      -5.7      4.058      6.352
REMARK  Name = 
REMARK  7 active torsions:
REMARK  status: ('A' for Active; 'I' for Inactive)
REMARK    1  A    between atoms: C_1  and  C_2
REMARK    2  A    between atoms: C_6  and  C_7
REMARK    3  A    between atoms: C_7  and  S_8
REMARK    4  A    between atoms: S_8  and  C_9
REMARK    5  A    between atoms: C_9  and  C_10
REMARK    6  A    between atoms: C_10  and  C_11
REMARK    7  A    between atoms: C_11  and  O_12
REMARK                            x       y       z     vdW  Elec       q    Type
REMARK                         _______ _______ _______ _____ _____    ______ ____
ROOT
ATOM      1  C   UNL     1       0.647   2.851  19.187  0.00  0.00    +0.000 C 
ATOM      2  C   UNL     1       1.906   3.408  18.589  0.00  0.00    +0.000 A 
ATOM      3  C   UNL     1       2.945   2.474  18.168  0.00  0.00    +0.000 A 
ATOM      4  C   UNL     1       4.082   2.947  17.631  0.00  0.00    +0.000 A 
ATOM      5  N   UNL     1       4.250   4.323  17.465  0.00  0.00    +0.000 N 
ATOM      6  C   UNL     1       5.294   5.060  16.930  0.00  0.00    +0.000 A 
ATOM      7  C   UNL     1       4.902   6.378  17.068  0.00  0.00    +0.000 A 
ATOM      8  N   UNL     1       3.663   6.484  17.632  0.00  0.00    +0.000 NA
ATOM      9  C   UNL     1       3.282   5.247  17.865  0.00  0.00    +0.000 A 
ATOM     10  C   UNL     1       2.084   4.739  18.445  0.00  0.00    +0.000 A 
ENDROOT
BRANCH   6  11
ATOM     11  C   UNL     1       6.580   4.521  16.424  0.00  0.00    +0.000 C 
BRANCH  11  12
ATOM     12  S   UNL     1       6.934   4.863  14.680  0.00  0.00    +0.000 S 
BRANCH  12  13
ATOM     13  C   UNL     1       5.712   3.799  13.841  0.00  0.00    +0.000 C 
BRANCH  13  14
ATOM     14  C   UNL     1       6.262   3.497  12.447  0.00  0.00    +0.000 C 
BRANCH  14  15
ATOM     15  C   UNL     1       5.366   2.570  11.640  0.00  0.00    +0.000 C 
BRANCH  15  16
ATOM     16  O   UNL     1       6.013   1.313  11.469  0.00  0.00    +0.000 OA
ATOM     17  H   UNL     1       6.766   1.444  10.868  0.00  0.00    +0.000 HD
ENDBRANCH  15  16
ENDBRANCH  14  15
ENDBRANCH  13  14
ENDBRANCH  12  13
ENDBRANCH  11  12
ENDBRANCH   6  11
TORSDOF 6
ENDMDL
MODEL 3
REMARK VINA RESULT:      -5.6      0.996      1.083
REMARK  Name = 
REMARK  7 active torsions:
REMARK  status: ('A' for Active; 'I' for Inactive)
REMARK    1  A    between atoms: C_1  and  C_2
REMARK    2  A    between atoms: C_6  and  C_7
REMARK    3  A    between atoms: C_7  and  S_8
REMARK    4  A    between atoms: S_8  and  C_9
REMARK    5  A    between atoms: C_9  and  C_10
REMARK    6  A    between atoms: C_10  and  C_11
REMARK    7  A    between atoms: C_11  and  O_12
REMARK                            x       y       z     vdW  Elec       q    Type
REMARK                         _______ _______ _______ _____ _____    ______ ____
ROOT
ATOM      1  C   UNL     1       7.693   7.834  17.450  0.00  0.00    +0.000 C 
ATOM      2  C   UNL     1       6.694   6.719  17.567  0.00  0.00    +0.000 A 
ATOM      3  C   UNL     1       5.627   6.640  16.574  0.00  0.00    +0.000 A 
ATOM      4  C   UNL     1       4.719   5.652  16.657  0.00  0.00    +0.000 A 
ATOM      5  N   UNL     1       4.816   4.705  17.678  0.00  0.00    +0.000 N 
ATOM      6  C   UNL     1       4.041   3.596  17.975  0.00  0.00    +0.000 A 
ATOM      7  C   UNL     1       4.605   3.068  19.121  0.00  0.00    +0.000 A 
ATOM      8  N   UNL     1       5.700   3.779  19.522  0.00  0.00    +0.000 NA
ATOM      9  C   UNL     1       5.817   4.756  18.651  0.00  0.00    +0.000 A 
ATOM     10  C   UNL     1       6.769   5.812  18.564  0.00  0.00    +0.000 A 
ENDROOT
BRANCH   6  11
ATOM     11  C   UNL     1       2.818   3.163  17.256  0.00  0.00    +0.000 C 
BRANCH  11  12
ATOM     12  S   UNL     1       1.294   3.175  18.236  0.00  0.00    +0.000 S 
BRANCH  12  13
ATOM     13  C   UNL     1       1.587   4.586  19.356  0.00  0.00    +0.000 C 
BRANCH  13  14
ATOM     14  C   UNL     1       1.038   4.191  20.727  0.00  0.00    +0.000 C 
BRANCH  14  15
ATOM     15  C   UNL     1       2.091   3.581  21.638  0.00  0.00    +0.000 C 
BRANCH  15  16
ATOM     16  O   UNL     1       1.632   2.323  22.124  0.00  0.00    +0.000 OA
ATOM     17  H   UNL     1       1.074   1.923  21.434  0.00  0.00    +0.000 HD
ENDBRANCH  15  16
ENDBRANCH  14  15
ENDBRANCH  13  14
ENDBRANCH  12  13
ENDBRANCH  11  12
ENDBRANCH   6  11
TORSDOF 6
ENDMDL
MODEL 4
REMARK VINA RESULT:      -5.6      2.375      5.503
REMARK  Name = 
REMARK  7 active torsions:
REMARK  status: ('A' for Active; 'I' for Inactive)
REMARK    1  A    between atoms: C_1  and  C_2
REMARK    2  A    between atoms: C_6  and  C_7
REMARK    3  A    between atoms: C_7  and  S_8
REMARK    4  A    between atoms: S_8  and  C_9
REMARK    5  A    between atoms: C_9  and  C_10
REMARK    6  A    between atoms: C_10  and  C_11
REMARK    7  A    between atoms: C_11  and  O_12
REMARK                            x       y       z     vdW  Elec       q    Type
REMARK                         _______ _______ _______ _____ _____    ______ ____
ROOT
ATOM      1  C   UNL     1       1.254   2.633  22.003  0.00  0.00    +0.000 C 
ATOM      2  C   UNL     1       1.976   3.263  20.848  0.00  0.00    +0.000 A 
ATOM      3  C   UNL     1       2.193   4.706  20.872  0.00  0.00    +0.000 A 
ATOM      4  C   UNL     1       2.836   5.296  19.850  0.00  0.00    +0.000 A 
ATOM      5  N   UNL     1       3.304   4.522  18.787  0.00  0.00    +0.000 N 
ATOM      6  C   UNL     1       4.001   4.867  17.640  0.00  0.00    +0.000 A 
ATOM      7  C   UNL     1       4.153   3.679  16.949  0.00  0.00    +0.000 A 
ATOM      8  N   UNL     1       3.611   2.624  17.626  0.00  0.00    +0.000 NA
ATOM      9  C   UNL     1       3.106   3.141  18.725  0.00  0.00    +0.000 A 
ATOM     10  C   UNL     1       2.414   2.523  19.806  0.00  0.00    +0.000 A 
ENDROOT
BRANCH   6  11
ATOM     11  C   UNL     1       4.392   6.237  17.230  0.00  0.00    +0.000 C 
BRANCH  11  12
ATOM     12  S   UNL     1       6.026   6.383  16.462  0.00  0.00    +0.000 S 
BRANCH  12  13
ATOM     13  C   UNL     1       6.870   7.528  17.606  0.00  0.00    +0.000 C 
BRANCH  13  14
ATOM     14  C   UNL     1       7.941   6.720  18.340  0.00  0.00    +0.000 C 
BRANCH  14  15
ATOM     15  C   UNL     1       7.368   5.562  19.141  0.00  0.00    +0.000 C 
BRANCH  15  16
ATOM     16  O   UNL     1       7.926   5.566  20.451  0.00  0.00    +0.000 OA
ATOM     17  H   UNL     1       8.017   6.492  20.735  0.00  0.00    +0.000 HD
ENDBRANCH  15  16
ENDBRANCH  14  15
ENDBRANCH  13  14
ENDBRANCH  12  13
ENDBRANCH  11  12
ENDBRANCH   6  11
TORSDOF 6
ENDMDL
MODEL 5
REMARK VINA RESULT:      -5.5      2.726      4.683
REMARK  Name = 
REMARK  7 active torsions:
REMARK  status: ('A' for Active; 'I' for Inactive)
REMARK    1  A    between atoms: C_1  and  C_2
REMARK    2  A    between atoms: C_6  and  C_7
REMARK    3  A    between atoms: C_7  and  S_8
REMARK    4  A    between atoms: S_8  and  C_9
REMARK    5  A    between atoms: C_9  and  C_10
REMARK    6  A    between atoms: C_10  and  C_11
REMARK    7  A    between atoms: C_11  and  O_12
REMARK                            x       y       z     vdW  Elec       q    Type
REMARK                         _______ _______ _______ _____ _____    ______ ____
ROOT
ATOM      1  C   UNL     1       1.506   7.794  20.780  0.00  0.00    +0.000 C 
ATOM      2  C   UNL     1       2.241   6.901  19.821  0.00  0.00    +0.000 A 
ATOM      3  C   UNL     1       2.687   7.468  18.552  0.00  0.00    +0.000 A 
ATOM      4  C   UNL     1       3.346   6.691  17.677  0.00  0.00    +0.000 A 
ATOM      5  N   UNL     1       3.612   5.358  17.997  0.00  0.00    +0.000 N 
ATOM      6  C   UNL     1       4.278   4.364  17.298  0.00  0.00    +0.000 A 
ATOM      7  C   UNL     1       4.191   3.246  18.106  0.00  0.00    +0.000 A 
ATOM      8  N   UNL     1       3.534   3.512  19.273  0.00  0.00    +0.000 NA
ATOM      9  C   UNL     1       3.192   4.780  19.197  0.00  0.00    +0.000 A 
ATOM     10  C   UNL     1       2.484   5.606  20.115  0.00  0.00    +0.000 A 
ENDROOT
BRANCH   6  11
ATOM     11  C   UNL     1       4.855   4.484  15.937  0.00  0.00    +0.000 C 
BRANCH  11  12
ATOM     12  S   UNL     1       6.664   4.438  15.851  0.00  0.00    +0.000 S 
BRANCH  12  13
ATOM     13  C   UNL     1       7.122   5.730  17.056  0.00  0.00    +0.000 C 
BRANCH  13  14
ATOM     14  C   UNL     1       7.668   5.017  18.293  0.00  0.00    +0.000 C 
BRANCH  14  15
ATOM     15  C   UNL     1       7.626   5.880  19.545  0.00  0.00    +0.000 C 
BRANCH  15  16
ATOM     16  O   UNL     1       8.319   5.221  20.601  0.00  0.00    +0.000 OA
ATOM     17  H   UNL     1       7.825   5.375  21.424  0.00  0.00    +0.000 HD
ENDBRANCH  15  16
ENDBRANCH  14  15
ENDBRANCH  13  14
ENDBRANCH  12  13
ENDBRANCH  11  12
ENDBRANCH   6  11
TORSDOF 6
ENDMDL
MODEL 6
REMARK VINA RESULT:      -5.5      2.379      3.138
REMARK  Name = 
REMARK  7 active torsions:
REMARK  status: ('A' for Active; 'I' for Inactive)
REMARK    1  A    between atoms: C_1  and  C_2
REMARK    2  A    between atoms: C_6  and  C_7
REMARK    3  A    between atoms: C_7  and  S_8
REMARK    4  A    between atoms: S_8  and  C_9
REMARK    5  A    between atoms: C_9  and  C_10
REMARK    6  A    between atoms: C_10  and  C_11
REMARK    7  A    between atoms: C_11  and  O_12
REMARK                            x       y       z     vdW  Elec       q    Type
REMARK                         _______ _______ _______ _____ _____    ______ ____
ROOT
ATOM      1  C   UNL     1       6.659   4.069  13.243  0.00  0.00    +0.000 C 
ATOM      2  C   UNL     1       6.341   4.372  14.679  0.00  0.00    +0.000 A 
ATOM      3  C   UNL     1       4.961   4.220  15.129  0.00  0.00    +0.000 A 
ATOM      4  C   UNL     1       4.649   4.485  16.408  0.00  0.00    +0.000 A 
ATOM      5  N   UNL     1       5.649   4.886  17.296  0.00  0.00    +0.000 N 
ATOM      6  C   UNL     1       5.604   5.197  18.646  0.00  0.00    +0.000 A 
ATOM      7  C   UNL     1       6.899   5.557  18.968  0.00  0.00    +0.000 A 
ATOM      8  N   UNL     1       7.737   5.456  17.894  0.00  0.00    +0.000 NA
ATOM      9  C   UNL     1       6.977   5.053  16.899  0.00  0.00    +0.000 A 
ATOM     10  C   UNL     1       7.299   4.781  15.539  0.00  0.00    +0.000 A 
ENDROOT
BRANCH   6  11
ATOM     11  C   UNL     1       4.393   5.224  19.500  0.00  0.00    +0.000 C 
BRANCH  11  12
ATOM     12  S   UNL     1       3.690   3.604  19.906  0.00  0.00    +0.000 S 
BRANCH  12  13
ATOM     13  C   UNL     1       2.233   4.073  20.900  0.00  0.00    +0.000 C 
BRANCH  13  14
ATOM     14  C   UNL     1       1.024   3.371  20.282  0.00  0.00    +0.000 C 
BRANCH  14  15
ATOM     15  C   UNL     1       1.195   3.084  18.798  0.00  0.00    +0.000 C 
BRANCH  15  16
ATOM     16  O   UNL     1       1.009   1.693  18.557  0.00  0.00    +0.000 OA
ATOM     17  H   UNL     1       1.514   1.203  19.228  0.00  0.00    +0.000 HD
ENDBRANCH  15  16
ENDBRANCH  14  15
ENDBRANCH  13  14
ENDBRANCH  12  13
ENDBRANCH  11  12
ENDBRANCH   6  11
TORSDOF 6
ENDMDL
MODEL 7
REMARK VINA RESULT:      -5.4      2.709      3.748
REMARK  Name = 
REMARK  7 active torsions:
REMARK  status: ('A' for Active; 'I' for Inactive)
REMARK    1  A    between atoms: C_1  and  C_2
REMARK    2  A    between atoms: C_6  and  C_7
REMARK    3  A    between atoms: C_7  and  S_8
REMARK    4  A    between atoms: S_8  and  C_9
REMARK    5  A    between atoms: C_9  and  C_10
REMARK    6  A    between atoms: C_10  and  C_11
REMARK    7  A    between atoms: C_11  and  O_12
REMARK                            x       y       z     vdW  Elec       q    Type
REMARK                         _______ _______ _______ _____ _____    ______ ____
ROOT
ATOM      1  C   UNL     1       6.533   3.758  12.605  0.00  0.00    +0.000 C 
ATOM      2  C   UNL     1       6.373   4.138  14.049  0.00  0.00    +0.000 A 
ATOM      3  C   UNL     1       5.428   3.380  14.863  0.00  0.00    +0.000 A 
ATOM      4  C   UNL     1       5.266   3.699  16.158  0.00  0.00    +0.000 A 
ATOM      5  N   UNL     1       6.014   4.739  16.714  0.00  0.00    +0.000 N 
ATOM      6  C   UNL     1       6.055   5.250  18.001  0.00  0.00    +0.000 A 
ATOM      7  C   UNL     1       6.959   6.294  17.937  0.00  0.00    +0.000 A 
ATOM      8  N   UNL     1       7.492   6.429  16.687  0.00  0.00    +0.000 NA
ATOM      9  C   UNL     1       6.919   5.492  15.964  0.00  0.00    +0.000 A 
ATOM     10  C   UNL     1       7.078   5.155  14.589  0.00  0.00    +0.000 A 
ENDROOT
BRANCH   6  11
ATOM     11  C   UNL     1       5.220   4.813  19.146  0.00  0.00    +0.000 C 
BRANCH  11  12
ATOM     12  S   UNL     1       3.647   5.691  19.342  0.00  0.00    +0.000 S 
BRANCH  12  13
ATOM     13  C   UNL     1       2.602   4.855  18.101  0.00  0.00    +0.000 C 
BRANCH  13  14
ATOM     14  C   UNL     1       2.113   3.551  18.731  0.00  0.00    +0.000 C 
BRANCH  14  15
ATOM     15  C   UNL     1       2.273   2.349  17.812  0.00  0.00    +0.000 C 
BRANCH  15  16
ATOM     16  O   UNL     1       3.101   1.375  18.441  0.00  0.00    +0.000 OA
ATOM     17  H   UNL     1       2.566   0.915  19.110  0.00  0.00    +0.000 HD
ENDBRANCH  15  16
ENDBRANCH  14  15
ENDBRANCH  13  14
ENDBRANCH  12  13
ENDBRANCH  11  12
ENDBRANCH   6  11
TORSDOF 6
ENDMDL
MODEL 8
REMARK VINA RESULT:      -5.4      3.942      5.980
REMARK  Name = 
REMARK  7 active torsions:
REMARK  status: ('A' for Active; 'I' for Inactive)
REMARK    1  A    between atoms: C_1  and  C_2
REMARK    2  A    between atoms: C_6  and  C_7
REMARK    3  A    between atoms: C_7  and  S_8
REMARK    4  A    between atoms: S_8  and  C_9
REMARK    5  A    between atoms: C_9  and  C_10
REMARK    6  A    between atoms: C_10  and  C_11
REMARK    7  A    between atoms: C_11  and  O_12
REMARK                            x       y       z     vdW  Elec       q    Type
REMARK                         _______ _______ _______ _____ _____    ______ ____
ROOT
ATOM      1  C   UNL     1       0.871   4.095  20.118  0.00  0.00    +0.000 C 
ATOM      2  C   UNL     1       2.177   4.175  19.382  0.00  0.00    +0.000 A 
ATOM      3  C   UNL     1       2.248   3.611  18.038  0.00  0.00    +0.000 A 
ATOM      4  C   UNL     1       3.405   3.669  17.357  0.00  0.00    +0.000 A 
ATOM      5  N   UNL     1       4.519   4.281  17.934  0.00  0.00    +0.000 N 
ATOM      6  C   UNL     1       5.801   4.491  17.452  0.00  0.00    +0.000 A 
ATOM      7  C   UNL     1       6.469   5.117  18.488  0.00  0.00    +0.000 A 
ATOM      8  N   UNL     1       5.655   5.326  19.565  0.00  0.00    +0.000 NA
ATOM      9  C   UNL     1       4.490   4.823  19.221  0.00  0.00    +0.000 A 
ATOM     10  C   UNL     1       3.264   4.748  19.942  0.00  0.00    +0.000 A 
ENDROOT
BRANCH   6  11
ATOM     11  C   UNL     1       6.332   4.036  16.145  0.00  0.00    +0.000 C 
BRANCH  11  12
ATOM     12  S   UNL     1       5.769   4.981  14.705  0.00  0.00    +0.000 S 
BRANCH  12  13
ATOM     13  C   UNL     1       6.283   3.897  13.329  0.00  0.00    +0.000 C 
BRANCH  13  14
ATOM     14  C   UNL     1       5.017   3.515  12.562  0.00  0.00    +0.000 C 
BRANCH  14  15
ATOM     15  C   UNL     1       5.271   2.492  11.466  0.00  0.00    +0.000 C 
BRANCH  15  16
ATOM     16  O   UNL     1       6.477   1.786  11.743  0.00  0.00    +0.000 OA
ATOM     17  H   UNL     1       6.323   1.223  12.521  0.00  0.00    +0.000 HD
ENDBRANCH  15  16
ENDBRANCH  14  15
ENDBRANCH  13  14
ENDBRANCH  12  13
ENDBRANCH  11  12
ENDBRANCH   6  11
TORSDOF 6
ENDMDL
MODEL 9
REMARK VINA RESULT:      -5.3      3.308      5.962
REMARK  Name = 
REMARK  7 active torsions:
REMARK  status: ('A' for Active; 'I' for Inactive)
REMARK    1  A    between atoms: C_1  and  C_2
REMARK    2  A    between atoms: C_6  and  C_7
REMARK    3  A    between atoms: C_7  and  S_8
REMARK    4  A    between atoms: S_8  and  C_9
REMARK    5  A    between atoms: C_9  and  C_10
REMARK    6  A    between atoms: C_10  and  C_11
REMARK    7  A    between atoms: C_11  and  O_12
REMARK                            x       y       z     vdW  Elec       q    Type
REMARK                         _______ _______ _______ _____ _____    ______ ____
ROOT
ATOM      1  C   UNL     1       0.680   2.102  18.765  0.00  0.00    +0.000 C 
ATOM      2  C   UNL     1       1.854   3.036  18.707  0.00  0.00    +0.000 A 
ATOM      3  C   UNL     1       3.156   2.538  19.139  0.00  0.00    +0.000 A 
ATOM      4  C   UNL     1       4.223   3.354  19.097  0.00  0.00    +0.000 A 
ATOM      5  N   UNL     1       4.078   4.660  18.627  0.00  0.00    +0.000 N 
ATOM      6  C   UNL     1       5.000   5.682  18.463  0.00  0.00    +0.000 A 
ATOM      7  C   UNL     1       4.261   6.751  17.993  0.00  0.00    +0.000 A 
ATOM      8  N   UNL     1       2.944   6.428  17.833  0.00  0.00    +0.000 NA
ATOM      9  C   UNL     1       2.846   5.174  18.215  0.00  0.00    +0.000 A 
ATOM     10  C   UNL     1       1.717   4.308  18.273  0.00  0.00    +0.000 A 
ENDROOT
BRANCH   6  11
ATOM     11  C   UNL     1       6.437   5.633  18.824  0.00  0.00    +0.000 C 
BRANCH  11  12
ATOM     12  S   UNL     1       7.507   4.771  17.642  0.00  0.00    +0.000 S 
BRANCH  12  13
ATOM     13  C   UNL     1       6.761   5.257  16.048  0.00  0.00    +0.000 C 
BRANCH  13  14
ATOM     14  C   UNL     1       6.863   4.048  15.118  0.00  0.00    +0.000 C 
BRANCH  14  15
ATOM     15  C   UNL     1       5.909   4.124  13.936  0.00  0.00    +0.000 C 
BRANCH  15  16
ATOM     16  O   UNL     1       6.241   3.112  12.990  0.00  0.00    +0.000 OA
ATOM     17  H   UNL     1       5.413   2.796  12.588  0.00  0.00    +0.000 HD
ENDBRANCH  15  16
ENDBRANCH  14  15
ENDBRANCH  13  14
ENDBRANCH  12  13
ENDBRANCH  11  12
ENDBRANCH   6  11
TORSDOF 6
ENDMDL
