MODEL 1
REMARK VINA RESULT:      -8.3      0.000      0.000
REMARK  Name = 
REMARK  5 active torsions:
REMARK  status: ('A' for Active; 'I' for Inactive)
REMARK    1  A    between atoms: C_1  and  S_2
REMARK    2  A    between atoms: S_2  and  N_5
REMARK    3  A    between atoms: N_5  and  C_6
REMARK    4  A    between atoms: C_9  and  C_10
REMARK    5  A    between atoms: C_20  and  C_21
REMARK                            x       y       z     vdW  Elec       q    Type
REMARK                         _______ _______ _______ _____ _____    ______ ____
ROOT
ATOM      1  C   UNL     1       1.098   7.296  20.729  0.00  0.00    +0.000 A 
ATOM      2  C   UNL     1       2.047   7.678  19.759  0.00  0.00    +0.000 A 
ATOM      3  C   UNL     1       2.949   6.677  19.111  0.00  0.00    +0.000 A 
ATOM      4  C   UNL     1       3.115   5.208  19.270  0.00  0.00    +0.000 A 
ATOM      5  C   UNL     1       2.205   4.917  20.349  0.00  0.00    +0.000 A 
ATOM      6  C   UNL     1       1.210   5.958  21.054  0.00  0.00    +0.000 A 
ENDROOT
BRANCH   4   7
ATOM      7  C   UNL     1       4.277   4.394  18.196  0.00  0.00    +0.000 A 
ATOM      8  C   UNL     1       5.371   4.191  19.018  0.00  0.00    +0.000 A 
ATOM      9  N   UNL     1       6.615   4.626  18.774  0.00  0.00    +0.000 NA
ATOM     10  C   UNL     1       6.832   4.894  17.470  0.00  0.00    +0.000 A 
ATOM     11  C   UNL     1       5.820   5.328  16.556  0.00  0.00    +0.000 A 
ATOM     12  C   UNL     1       6.176   5.850  15.191  0.00  0.00    +0.000 A 
ATOM     13  C   UNL     1       6.531   5.108  14.073  0.00  0.00    +0.000 A 
ATOM     14  C   UNL     1       6.345   3.792  14.306  0.00  0.00    +0.000 A 
ATOM     15  C   UNL     1       5.554   3.398  15.517  0.00  0.00    +0.000 A 
ATOM     16  C   UNL     1       4.886   4.355  16.668  0.00  0.00    +0.000 A 
ENDBRANCH   4   7
BRANCH   5  17
ATOM     17  C   UNL     1       2.009   3.604  21.048  0.00  0.00    +0.000 C 
ATOM     18  F   UNL     1       0.755   3.126  20.953  0.00  0.00    +0.000 F 
ATOM     19  F   UNL     1       2.846   2.642  20.560  0.00  0.00    +0.000 F 
ATOM     20  F   UNL     1       2.309   3.695  22.375  0.00  0.00    +0.000 F 
ENDBRANCH   5  17
BRANCH   1  21
ATOM     21  N   UNL     1       0.271   8.291  21.379  0.00  0.00    +0.000 N 
ATOM     22  H   UNL     1      -0.675   8.540  20.994  0.00  0.00    +0.000 HD
BRANCH  21  24
ATOM     23  C   UNL     1       0.798  10.956  21.118  0.00  0.00    +0.000 C 
ATOM     24  S   UNL     1       0.801   9.614  22.295  0.00  0.00    +0.000 S 
ATOM     25  O   UNL     1       2.143   9.361  22.652  0.00  0.00    +0.000 OA
ATOM     26  O   UNL     1      -0.158   9.883  23.338  0.00  0.00    +0.000 OA
ENDBRANCH  21  24
ENDBRANCH   1  21
TORSDOF 4
ENDMDL
MODEL 2
REMARK VINA RESULT:      -8.3      0.860      1.221
REMARK  Name = 
REMARK  5 active torsions:
REMARK  status: ('A' for Active; 'I' for Inactive)
REMARK    1  A    between atoms: C_1  and  S_2
REMARK    2  A    between atoms: S_2  and  N_5
REMARK    3  A    between atoms: N_5  and  C_6
REMARK    4  A    between atoms: C_9  and  C_10
REMARK    5  A    between atoms: C_20  and  C_21
REMARK                            x       y       z     vdW  Elec       q    Type
REMARK                         _______ _______ _______ _____ _____    ______ ____
ROOT
ATOM      1  C   UNL     1       1.253   7.815  20.211  0.00  0.00    +0.000 A 
ATOM      2  C   UNL     1       2.167   8.063  19.166  0.00  0.00    +0.000 A 
ATOM      3  C   UNL     1       3.019   6.973  18.599  0.00  0.00    +0.000 A 
ATOM      4  C   UNL     1       3.162   5.527  18.916  0.00  0.00    +0.000 A 
ATOM      5  C   UNL     1       2.294   5.382  20.057  0.00  0.00    +0.000 A 
ATOM      6  C   UNL     1       1.351   6.520  20.681  0.00  0.00    +0.000 A 
ENDROOT
BRANCH   4   7
ATOM      7  C   UNL     1       4.259   4.569  17.894  0.00  0.00    +0.000 A 
ATOM      8  C   UNL     1       5.261   4.199  18.775  0.00  0.00    +0.000 A 
ATOM      9  N   UNL     1       6.566   4.454  18.614  0.00  0.00    +0.000 NA
ATOM     10  C   UNL     1       6.899   4.705  17.332  0.00  0.00    +0.000 A 
ATOM     11  C   UNL     1       6.018   5.293  16.369  0.00  0.00    +0.000 A 
ATOM     12  C   UNL     1       6.529   5.778  15.040  0.00  0.00    +0.000 A 
ATOM     13  C   UNL     1       6.842   5.008  13.928  0.00  0.00    +0.000 A 
ATOM     14  C   UNL     1       6.456   3.730  14.120  0.00  0.00    +0.000 A 
ATOM     15  C   UNL     1       5.543   3.437  15.273  0.00  0.00    +0.000 A 
ATOM     16  C   UNL     1       4.950   4.464  16.405  0.00  0.00    +0.000 A 
ENDBRANCH   4   7
BRANCH   5  17
ATOM     17  C   UNL     1       2.101   4.160  20.908  0.00  0.00    +0.000 C 
ATOM     18  F   UNL     1       2.793   3.090  20.477  0.00  0.00    +0.000 F 
ATOM     19  F   UNL     1       2.469   4.385  22.203  0.00  0.00    +0.000 F 
ATOM     20  F   UNL     1       0.788   3.797  20.970  0.00  0.00    +0.000 F 
ENDBRANCH   5  17
BRANCH   1  21
ATOM     21  N   UNL     1       0.475   8.897  20.778  0.00  0.00    +0.000 N 
ATOM     22  H   UNL     1      -0.208   9.436  20.187  0.00  0.00    +0.000 HD
BRANCH  21  24
ATOM     23  C   UNL     1      -0.530   9.882  23.116  0.00  0.00    +0.000 C 
ATOM     24  S   UNL     1       0.916   9.898  22.071  0.00  0.00    +0.000 S 
ATOM     25  O   UNL     1       1.058  11.204  21.556  0.00  0.00    +0.000 OA
ATOM     26  O   UNL     1       2.028   9.303  22.773  0.00  0.00    +0.000 OA
ENDBRANCH  21  24
ENDBRANCH   1  21
TORSDOF 4
ENDMDL
MODEL 3
REMARK VINA RESULT:      -8.0      4.139      7.633
REMARK  Name = 
REMARK  5 active torsions:
REMARK  status: ('A' for Active; 'I' for Inactive)
REMARK    1  A    between atoms: C_1  and  S_2
REMARK    2  A    between atoms: S_2  and  N_5
REMARK    3  A    between atoms: N_5  and  C_6
REMARK    4  A    between atoms: C_9  and  C_10
REMARK    5  A    between atoms: C_20  and  C_21
REMARK                            x       y       z     vdW  Elec       q    Type
REMARK                         _______ _______ _______ _____ _____    ______ ____
ROOT
ATOM      1  C   UNL     1       4.738   5.727  18.026  0.00  0.00    +0.000 A 
ATOM      2  C   UNL     1       4.446   6.823  17.188  0.00  0.00    +0.000 A 
ATOM      3  C   UNL     1       3.316   7.756  17.487  0.00  0.00    +0.000 A 
ATOM      4  C   UNL     1       2.301   7.805  18.572  0.00  0.00    +0.000 A 
ATOM      5  C   UNL     1       2.589   6.601  19.309  0.00  0.00    +0.000 A 
ATOM      6  C   UNL     1       3.801   5.588  19.032  0.00  0.00    +0.000 A 
ENDROOT
BRANCH   4   7
ATOM      7  C   UNL     1       1.176   9.184  18.580  0.00  0.00    +0.000 A 
ATOM      8  C   UNL     1       1.873  10.157  17.883  0.00  0.00    +0.000 A 
ATOM      9  N   UNL     1       2.170  11.378  18.347  0.00  0.00    +0.000 NA
ATOM     10  C   UNL     1       1.374  11.763  19.363  0.00  0.00    +0.000 A 
ATOM     11  C   UNL     1       0.764  10.865  20.297  0.00  0.00    +0.000 A 
ATOM     12  C   UNL     1       0.102  11.374  21.548  0.00  0.00    +0.000 A 
ATOM     13  C   UNL     1      -1.152  11.959  21.658  0.00  0.00    +0.000 A 
ATOM     14  C   UNL     1      -1.818  11.860  20.489  0.00  0.00    +0.000 A 
ATOM     15  C   UNL     1      -1.271  10.935  19.444  0.00  0.00    +0.000 A 
ATOM     16  C   UNL     1       0.087  10.018  19.488  0.00  0.00    +0.000 A 
ENDBRANCH   4   7
BRANCH   5  17
ATOM     17  C   UNL     1       1.819   6.032  20.465  0.00  0.00    +0.000 C 
ATOM     18  F   UNL     1       0.840   5.186  20.095  0.00  0.00    +0.000 F 
ATOM     19  F   UNL     1       2.632   5.357  21.329  0.00  0.00    +0.000 F 
ATOM     20  F   UNL     1       1.243   7.015  21.215  0.00  0.00    +0.000 F 
ENDBRANCH   5  17
BRANCH   1  21
ATOM     21  N   UNL     1       5.805   4.809  17.688  0.00  0.00    +0.000 N 
ATOM     22  H   UNL     1       5.776   3.809  18.010  0.00  0.00    +0.000 HD
BRANCH  21  24
ATOM     23  C   UNL     1       7.769   6.461  18.618  0.00  0.00    +0.000 C 
ATOM     24  S   UNL     1       7.429   5.196  17.404  0.00  0.00    +0.000 S 
ATOM     25  O   UNL     1       7.496   5.798  16.129  0.00  0.00    +0.000 OA
ATOM     26  O   UNL     1       8.246   4.038  17.670  0.00  0.00    +0.000 OA
ENDBRANCH  21  24
ENDBRANCH   1  21
TORSDOF 4
ENDMDL
MODEL 4
REMARK VINA RESULT:      -7.9      3.742      5.142
REMARK  Name = 
REMARK  5 active torsions:
REMARK  status: ('A' for Active; 'I' for Inactive)
REMARK    1  A    between atoms: C_1  and  S_2
REMARK    2  A    between atoms: S_2  and  N_5
REMARK    3  A    between atoms: N_5  and  C_6
REMARK    4  A    between atoms: C_9  and  C_10
REMARK    5  A    between atoms: C_20  and  C_21
REMARK                            x       y       z     vdW  Elec       q    Type
REMARK                         _______ _______ _______ _____ _____    ______ ____
ROOT
ATOM      1  C   UNL     1       0.060  10.776  21.570  0.00  0.00    +0.000 A 
ATOM      2  C   UNL     1       0.402   9.646  22.340  0.00  0.00    +0.000 A 
ATOM      3  C   UNL     1       1.065   8.454  21.728  0.00  0.00    +0.000 A 
ATOM      4  C   UNL     1       1.488   8.130  20.339  0.00  0.00    +0.000 A 
ATOM      5  C   UNL     1       1.002   9.269  19.603  0.00  0.00    +0.000 A 
ATOM      6  C   UNL     1       0.305  10.572  20.225  0.00  0.00    +0.000 A 
ENDROOT
BRANCH   4   7
ATOM      7  C   UNL     1       2.346   6.592  20.083  0.00  0.00    +0.000 A 
ATOM      8  C   UNL     1       3.340   6.937  19.184  0.00  0.00    +0.000 A 
ATOM      9  N   UNL     1       3.535   6.366  17.988  0.00  0.00    +0.000 NA
ATOM     10  C   UNL     1       2.982   5.140  17.895  0.00  0.00    +0.000 A 
ATOM     11  C   UNL     1       1.814   4.724  18.610  0.00  0.00    +0.000 A 
ATOM     12  C   UNL     1       1.108   3.440  18.269  0.00  0.00    +0.000 A 
ATOM     13  C   UNL     1       1.489   2.152  18.619  0.00  0.00    +0.000 A 
ATOM     14  C   UNL     1       2.519   2.189  19.489  0.00  0.00    +0.000 A 
ATOM     15  C   UNL     1       2.852   3.503  20.129  0.00  0.00    +0.000 A 
ATOM     16  C   UNL     1       2.156   4.969  19.896  0.00  0.00    +0.000 A 
ENDBRANCH   4   7
BRANCH   5  17
ATOM     17  C   UNL     1       1.025   9.472  18.115  0.00  0.00    +0.000 C 
ATOM     18  F   UNL     1       1.189   8.332  17.420  0.00  0.00    +0.000 F 
ATOM     19  F   UNL     1      -0.125  10.056  17.669  0.00  0.00    +0.000 F 
ATOM     20  F   UNL     1       2.023  10.323  17.743  0.00  0.00    +0.000 F 
ENDBRANCH   5  17
BRANCH   1  21
ATOM     21  N   UNL     1      -0.627  11.897  22.176  0.00  0.00    +0.000 N 
ATOM     22  H   UNL     1      -1.663  11.861  22.355  0.00  0.00    +0.000 HD
BRANCH  21  24
ATOM     23  C   UNL     1      -1.183  14.133  20.711  0.00  0.00    +0.000 C 
ATOM     24  S   UNL     1      -0.196  13.532  22.072  0.00  0.00    +0.000 S 
ATOM     25  O   UNL     1       1.157  13.580  21.674  0.00  0.00    +0.000 OA
ATOM     26  O   UNL     1      -0.588  14.203  23.288  0.00  0.00    +0.000 OA
ENDBRANCH  21  24
ENDBRANCH   1  21
TORSDOF 4
ENDMDL
MODEL 5
REMARK VINA RESULT:      -7.9      3.688      5.215
REMARK  Name = 
REMARK  5 active torsions:
REMARK  status: ('A' for Active; 'I' for Inactive)
REMARK    1  A    between atoms: C_1  and  S_2
REMARK    2  A    between atoms: S_2  and  N_5
REMARK    3  A    between atoms: N_5  and  C_6
REMARK    4  A    between atoms: C_9  and  C_10
REMARK    5  A    between atoms: C_20  and  C_21
REMARK                            x       y       z     vdW  Elec       q    Type
REMARK                         _______ _______ _______ _____ _____    ______ ____
ROOT
ATOM      1  C   UNL     1       0.306  10.969  21.384  0.00  0.00    +0.000 A 
ATOM      2  C   UNL     1       0.563   9.876  22.236  0.00  0.00    +0.000 A 
ATOM      3  C   UNL     1       1.127   8.593  21.715  0.00  0.00    +0.000 A 
ATOM      4  C   UNL     1       1.514   8.134  20.354  0.00  0.00    +0.000 A 
ATOM      5  C   UNL     1       1.115   9.249  19.535  0.00  0.00    +0.000 A 
ATOM      6  C   UNL     1       0.526  10.646  20.058  0.00  0.00    +0.000 A 
ENDROOT
BRANCH   4   7
ATOM      7  C   UNL     1       2.247   6.518  20.214  0.00  0.00    +0.000 A 
ATOM      8  C   UNL     1       3.374   6.754  19.445  0.00  0.00    +0.000 A 
ATOM      9  N   UNL     1       3.662   6.148  18.285  0.00  0.00    +0.000 NA
ATOM     10  C   UNL     1       3.010   4.978  18.129  0.00  0.00    +0.000 A 
ATOM     11  C   UNL     1       1.728   4.685  18.693  0.00  0.00    +0.000 A 
ATOM     12  C   UNL     1       0.951   3.468  18.271  0.00  0.00    +0.000 A 
ATOM     13  C   UNL     1       1.161   2.156  18.671  0.00  0.00    +0.000 A 
ATOM     14  C   UNL     1       2.074   2.109  19.663  0.00  0.00    +0.000 A 
ATOM     15  C   UNL     1       2.448   3.397  20.335  0.00  0.00    +0.000 A 
ATOM     16  C   UNL     1       1.929   4.917  20.011  0.00  0.00    +0.000 A 
ENDBRANCH   4   7
BRANCH   5  17
ATOM     17  C   UNL     1       1.144   9.338  18.036  0.00  0.00    +0.000 C 
ATOM     18  F   UNL     1      -0.008   9.780  17.501  0.00  0.00    +0.000 F 
ATOM     19  F   UNL     1       2.137  10.166  17.599  0.00  0.00    +0.000 F 
ATOM     20  F   UNL     1       1.416   8.127  17.470  0.00  0.00    +0.000 F 
ENDBRANCH   5  17
BRANCH   1  21
ATOM     21  N   UNL     1      -0.287  12.182  21.904  0.00  0.00    +0.000 N 
ATOM     22  H   UNL     1       0.231  12.781  22.596  0.00  0.00    +0.000 HD
BRANCH  21  24
ATOM     23  C   UNL     1      -1.970  14.227  22.567  0.00  0.00    +0.000 C 
ATOM     24  S   UNL     1      -1.938  12.503  22.104  0.00  0.00    +0.000 S 
ATOM     25  O   UNL     1      -2.375  11.753  23.216  0.00  0.00    +0.000 OA
ATOM     26  O   UNL     1      -2.611  12.330  20.839  0.00  0.00    +0.000 OA
ENDBRANCH  21  24
ENDBRANCH   1  21
TORSDOF 4
ENDMDL
MODEL 6
REMARK VINA RESULT:      -7.8      1.134      1.506
REMARK  Name = 
REMARK  5 active torsions:
REMARK  status: ('A' for Active; 'I' for Inactive)
REMARK    1  A    between atoms: C_1  and  S_2
REMARK    2  A    between atoms: S_2  and  N_5
REMARK    3  A    between atoms: N_5  and  C_6
REMARK    4  A    between atoms: C_9  and  C_10
REMARK    5  A    between atoms: C_20  and  C_21
REMARK                            x       y       z     vdW  Elec       q    Type
REMARK                         _______ _______ _______ _____ _____    ______ ____
ROOT
ATOM      1  C   UNL     1       1.725   8.224  19.496  0.00  0.00    +0.000 A 
ATOM      2  C   UNL     1       2.590   8.379  18.394  0.00  0.00    +0.000 A 
ATOM      3  C   UNL     1       3.356   7.223  17.834  0.00  0.00    +0.000 A 
ATOM      4  C   UNL     1       3.448   5.788  18.211  0.00  0.00    +0.000 A 
ATOM      5  C   UNL     1       2.639   5.737  19.402  0.00  0.00    +0.000 A 
ATOM      6  C   UNL     1       1.788   6.948  20.021  0.00  0.00    +0.000 A 
ENDROOT
BRANCH   4   7
ATOM      7  C   UNL     1       4.440   4.732  17.178  0.00  0.00    +0.000 A 
ATOM      8  C   UNL     1       5.346   4.186  18.071  0.00  0.00    +0.000 A 
ATOM      9  N   UNL     1       6.679   4.261  17.965  0.00  0.00    +0.000 NA
ATOM     10  C   UNL     1       7.092   4.520  16.708  0.00  0.00    +0.000 A 
ATOM     11  C   UNL     1       6.339   5.268  15.748  0.00  0.00    +0.000 A 
ATOM     12  C   UNL     1       6.963   5.734  14.461  0.00  0.00    +0.000 A 
ATOM     13  C   UNL     1       7.209   4.978  13.323  0.00  0.00    +0.000 A 
ATOM     14  C   UNL     1       6.642   3.760  13.439  0.00  0.00    +0.000 A 
ATOM     15  C   UNL     1       5.654   3.548  14.547  0.00  0.00    +0.000 A 
ATOM     16  C   UNL     1       5.166   4.596  15.708  0.00  0.00    +0.000 A 
ENDBRANCH   4   7
BRANCH   5  17
ATOM     17  C   UNL     1       2.436   4.566  20.319  0.00  0.00    +0.000 C 
ATOM     18  F   UNL     1       3.487   3.727  20.360  0.00  0.00    +0.000 F 
ATOM     19  F   UNL     1       2.187   4.966  21.600  0.00  0.00    +0.000 F 
ATOM     20  F   UNL     1       1.344   3.833  19.958  0.00  0.00    +0.000 F 
ENDBRANCH   5  17
BRANCH   1  21
ATOM     21  N   UNL     1       1.032   9.368  20.052  0.00  0.00    +0.000 N 
ATOM     22  H   UNL     1       1.221  10.338  19.693  0.00  0.00    +0.000 HD
BRANCH  21  24
ATOM     23  C   UNL     1      -0.324  11.144  21.620  0.00  0.00    +0.000 C 
ATOM     24  S   UNL     1       0.431   9.526  21.627  0.00  0.00    +0.000 S 
ATOM     25  O   UNL     1       1.544   9.577  22.493  0.00  0.00    +0.000 OA
ATOM     26  O   UNL     1      -0.580   8.522  21.852  0.00  0.00    +0.000 OA
ENDBRANCH  21  24
ENDBRANCH   1  21
TORSDOF 4
ENDMDL
MODEL 7
REMARK VINA RESULT:      -7.8      3.660      5.209
REMARK  Name = 
REMARK  5 active torsions:
REMARK  status: ('A' for Active; 'I' for Inactive)
REMARK    1  A    between atoms: C_1  and  S_2
REMARK    2  A    between atoms: S_2  and  N_5
REMARK    3  A    between atoms: N_5  and  C_6
REMARK    4  A    between atoms: C_9  and  C_10
REMARK    5  A    between atoms: C_20  and  C_21
REMARK                            x       y       z     vdW  Elec       q    Type
REMARK                         _______ _______ _______ _____ _____    ______ ____
ROOT
ATOM      1  C   UNL     1       0.413  11.025  21.320  0.00  0.00    +0.000 A 
ATOM      2  C   UNL     1       0.632   9.945  22.199  0.00  0.00    +0.000 A 
ATOM      3  C   UNL     1       1.154   8.632  21.709  0.00  0.00    +0.000 A 
ATOM      4  C   UNL     1       1.529   8.129  20.361  0.00  0.00    +0.000 A 
ATOM      5  C   UNL     1       1.170   9.237  19.515  0.00  0.00    +0.000 A 
ATOM      6  C   UNL     1       0.626  10.665  20.003  0.00  0.00    +0.000 A 
ENDROOT
BRANCH   4   7
ATOM      7  C   UNL     1       2.209   6.487  20.261  0.00  0.00    +0.000 A 
ATOM      8  C   UNL     1       3.385   6.680  19.558  0.00  0.00    +0.000 A 
ATOM      9  N   UNL     1       3.715   6.062  18.416  0.00  0.00    +0.000 NA
ATOM     10  C   UNL     1       3.031   4.917  18.221  0.00  0.00    +0.000 A 
ATOM     11  C   UNL     1       1.709   4.672  18.712  0.00  0.00    +0.000 A 
ATOM     12  C   UNL     1       0.913   3.485  18.245  0.00  0.00    +0.000 A 
ATOM     13  C   UNL     1       1.051   2.166  18.656  0.00  0.00    +0.000 A 
ATOM     14  C   UNL     1       1.903   2.087  19.698  0.00  0.00    +0.000 A 
ATOM     15  C   UNL     1       2.286   3.360  20.391  0.00  0.00    +0.000 A 
ATOM     16  C   UNL     1       1.843   4.899  20.039  0.00  0.00    +0.000 A 
ENDBRANCH   4   7
BRANCH   5  17
ATOM     17  C   UNL     1       1.206   9.290  18.015  0.00  0.00    +0.000 C 
ATOM     18  F   UNL     1       2.135  10.132  17.528  0.00  0.00    +0.000 F 
ATOM     19  F   UNL     1       1.450   8.061  17.473  0.00  0.00    +0.000 F 
ATOM     20  F   UNL     1       0.002   9.671  17.499  0.00  0.00    +0.000 F 
ENDBRANCH   5  17
BRANCH   1  21
ATOM     21  N   UNL     1      -0.141  12.270  21.810  0.00  0.00    +0.000 N 
ATOM     22  H   UNL     1       0.444  12.933  22.379  0.00  0.00    +0.000 HD
BRANCH  21  24
ATOM     23  C   UNL     1      -2.592  12.422  20.619  0.00  0.00    +0.000 C 
ATOM     24  S   UNL     1      -1.762  12.582  22.191  0.00  0.00    +0.000 S 
ATOM     25  O   UNL     1      -1.843  13.934  22.583  0.00  0.00    +0.000 OA
ATOM     26  O   UNL     1      -2.240  11.564  23.096  0.00  0.00    +0.000 OA
ENDBRANCH  21  24
ENDBRANCH   1  21
TORSDOF 4
ENDMDL
MODEL 8
REMARK VINA RESULT:      -7.8      1.690      1.946
REMARK  Name = 
REMARK  5 active torsions:
REMARK  status: ('A' for Active; 'I' for Inactive)
REMARK    1  A    between atoms: C_1  and  S_2
REMARK    2  A    between atoms: S_2  and  N_5
REMARK    3  A    between atoms: N_5  and  C_6
REMARK    4  A    between atoms: C_9  and  C_10
REMARK    5  A    between atoms: C_20  and  C_21
REMARK                            x       y       z     vdW  Elec       q    Type
REMARK                         _______ _______ _______ _____ _____    ______ ____
ROOT
ATOM      1  C   UNL     1       1.496   8.279  19.738  0.00  0.00    +0.000 A 
ATOM      2  C   UNL     1       2.430   8.422  18.692  0.00  0.00    +0.000 A 
ATOM      3  C   UNL     1       3.195   7.251  18.161  0.00  0.00    +0.000 A 
ATOM      4  C   UNL     1       3.220   5.809  18.521  0.00  0.00    +0.000 A 
ATOM      5  C   UNL     1       2.340   5.766  19.661  0.00  0.00    +0.000 A 
ATOM      6  C   UNL     1       1.489   6.993  20.246  0.00  0.00    +0.000 A 
ENDROOT
BRANCH   4   7
ATOM      7  C   UNL     1       4.241   4.737  17.533  0.00  0.00    +0.000 A 
ATOM      8  C   UNL     1       5.152   4.242  18.451  0.00  0.00    +0.000 A 
ATOM      9  N   UNL     1       6.484   4.341  18.350  0.00  0.00    +0.000 NA
ATOM     10  C   UNL     1       6.901   4.563  17.088  0.00  0.00    +0.000 A 
ATOM     11  C   UNL     1       6.139   5.261  16.097  0.00  0.00    +0.000 A 
ATOM     12  C   UNL     1       6.763   5.694  14.798  0.00  0.00    +0.000 A 
ATOM     13  C   UNL     1       7.032   4.903  13.689  0.00  0.00    +0.000 A 
ATOM     14  C   UNL     1       6.489   3.678  13.846  0.00  0.00    +0.000 A 
ATOM     15  C   UNL     1       5.498   3.485  14.953  0.00  0.00    +0.000 A 
ATOM     16  C   UNL     1       4.980   4.564  16.074  0.00  0.00    +0.000 A 
ENDBRANCH   4   7
BRANCH   5  17
ATOM     17  C   UNL     1       2.048   4.589  20.545  0.00  0.00    +0.000 C 
ATOM     18  F   UNL     1       2.585   3.438  20.103  0.00  0.00    +0.000 F 
ATOM     19  F   UNL     1       2.506   4.788  21.816  0.00  0.00    +0.000 F 
ATOM     20  F   UNL     1       0.706   4.387  20.680  0.00  0.00    +0.000 F 
ENDBRANCH   5  17
BRANCH   1  21
ATOM     21  N   UNL     1       0.806   9.435  20.269  0.00  0.00    +0.000 N 
ATOM     22  H   UNL     1       0.406   9.424  21.242  0.00  0.00    +0.000 HD
BRANCH  21  24
ATOM     23  C   UNL     1       1.167  11.865  19.080  0.00  0.00    +0.000 C 
ATOM     24  S   UNL     1      -0.054  10.600  19.390  0.00  0.00    +0.000 S 
ATOM     25  O   UNL     1      -1.024  11.144  20.258  0.00  0.00    +0.000 OA
ATOM     26  O   UNL     1      -0.484  10.025  18.138  0.00  0.00    +0.000 OA
ENDBRANCH  21  24
ENDBRANCH   1  21
TORSDOF 4
ENDMDL
MODEL 9
REMARK VINA RESULT:      -7.7      3.009      3.616
REMARK  Name = 
REMARK  5 active torsions:
REMARK  status: ('A' for Active; 'I' for Inactive)
REMARK    1  A    between atoms: C_1  and  S_2
REMARK    2  A    between atoms: S_2  and  N_5
REMARK    3  A    between atoms: N_5  and  C_6
REMARK    4  A    between atoms: C_9  and  C_10
REMARK    5  A    between atoms: C_20  and  C_21
REMARK                            x       y       z     vdW  Elec       q    Type
REMARK                         _______ _______ _______ _____ _____    ______ ____
ROOT
ATOM      1  C   UNL     1       0.995  10.597  18.671  0.00  0.00    +0.000 A 
ATOM      2  C   UNL     1       1.904  10.173  17.681  0.00  0.00    +0.000 A 
ATOM      3  C   UNL     1       2.513   8.808  17.712  0.00  0.00    +0.000 A 
ATOM      4  C   UNL     1       2.388   7.662  18.651  0.00  0.00    +0.000 A 
ATOM      5  C   UNL     1       1.546   8.210  19.684  0.00  0.00    +0.000 A 
ATOM      6  C   UNL     1       0.859   9.659  19.677  0.00  0.00    +0.000 A 
ENDROOT
BRANCH   4   7
ATOM      7  C   UNL     1       3.248   6.162  18.231  0.00  0.00    +0.000 A 
ATOM      8  C   UNL     1       3.733   5.729  19.454  0.00  0.00    +0.000 A 
ATOM      9  N   UNL     1       5.020   5.487  19.734  0.00  0.00    +0.000 NA
ATOM     10  C   UNL     1       5.765   5.266  18.632  0.00  0.00    +0.000 A 
ATOM     11  C   UNL     1       5.495   5.834  17.347  0.00  0.00    +0.000 A 
ATOM     12  C   UNL     1       6.503   5.753  16.233  0.00  0.00    +0.000 A 
ATOM     13  C   UNL     1       6.777   4.658  15.425  0.00  0.00    +0.000 A 
ATOM     14  C   UNL     1       5.876   3.678  15.644  0.00  0.00    +0.000 A 
ATOM     15  C   UNL     1       4.643   4.019  16.425  0.00  0.00    +0.000 A 
ATOM     16  C   UNL     1       4.221   5.444  17.116  0.00  0.00    +0.000 A 
ENDBRANCH   4   7
BRANCH   5  17
ATOM     17  C   UNL     1       1.152   7.562  20.980  0.00  0.00    +0.000 C 
ATOM     18  F   UNL     1       1.929   7.918  22.018  0.00  0.00    +0.000 F 
ATOM     19  F   UNL     1      -0.137   7.857  21.319  0.00  0.00    +0.000 F 
ATOM     20  F   UNL     1       1.192   6.202  20.890  0.00  0.00    +0.000 F 
ENDBRANCH   5  17
BRANCH   1  21
ATOM     21  N   UNL     1       0.458  11.941  18.648  0.00  0.00    +0.000 N 
ATOM     22  H   UNL     1      -0.391  12.172  18.072  0.00  0.00    +0.000 HD
BRANCH  21  24
ATOM     23  C   UNL     1       2.089  13.160  20.465  0.00  0.00    +0.000 C 
ATOM     24  S   UNL     1       1.316  13.384  18.871  0.00  0.00    +0.000 S 
ATOM     25  O   UNL     1       0.365  14.418  18.999  0.00  0.00    +0.000 OA
ATOM     26  O   UNL     1       2.331  13.494  17.852  0.00  0.00    +0.000 OA
ENDBRANCH  21  24
ENDBRANCH   1  21
TORSDOF 4
ENDMDL
