MODEL 1
REMARK VINA RESULT:      -7.5      0.000      0.000
REMARK  Name = 
REMARK  5 active torsions:
REMARK  status: ('A' for Active; 'I' for Inactive)
REMARK    1  A    between atoms: C_1  and  C_2
REMARK    2  A    between atoms: C_5  and  C_6
REMARK    3  A    between atoms: C_6  and  N_7
REMARK    4  A    between atoms: C_6  and  C_17
REMARK    5  A    between atoms: N_13  and  C_14
REMARK                            x       y       z     vdW  Elec       q    Type
REMARK                         _______ _______ _______ _____ _____    ______ ____
ROOT
ATOM      1  C   UNL     1       5.791   5.614  15.989  0.00  0.00    +0.000 C 
ENDROOT
BRANCH   1   2
ATOM      2  N   UNL     1       4.922   4.755  16.816  0.00  0.00    +0.000 N 
ATOM      3  C   UNL     1       3.957   5.319  17.612  0.00  0.00    +0.000 C 
ATOM      4  O   UNL     1       3.714   6.523  17.580  0.00  0.00    +0.000 OA
ATOM      5  N   UNL     1       3.291   4.436  18.452  0.00  0.00    +0.000 N 
ATOM      6  C   UNL     1       2.361   5.014  19.427  0.00  0.00    +0.000 C 
ATOM      7  C   UNL     1       1.199   4.066  19.777  0.00  0.00    +0.000 C 
ATOM      8  N   UNL     1       1.600   2.700  20.167  0.00  0.00    +0.000 NA
ATOM      9  C   UNL     1       2.181   2.660  21.505  0.00  0.00    +0.000 C 
ATOM     10  C   UNL     1       2.505   2.146  19.146  0.00  0.00    +0.000 C 
ATOM     11  C   UNL     1       3.683   3.046  18.722  0.00  0.00    +0.000 C 
ATOM     12  H   UNL     1       5.417   4.014  17.284  0.00  0.00    +0.000 HD
ENDBRANCH   1   2
BRANCH   1  17
ATOM     13  C   UNL     1       7.004   2.622  11.135  0.00  0.00    +0.000 C 
ATOM     14  C   UNL     1       6.650   3.544  12.261  0.00  0.00    +0.000 A 
ATOM     15  C   UNL     1       7.625   4.321  12.890  0.00  0.00    +0.000 A 
ATOM     16  C   UNL     1       7.321   5.056  14.041  0.00  0.00    +0.000 A 
ATOM     17  C   UNL     1       6.033   5.009  14.605  0.00  0.00    +0.000 A 
ATOM     18  C   UNL     1       5.037   4.298  13.922  0.00  0.00    +0.000 A 
ATOM     19  C   UNL     1       5.355   3.566  12.782  0.00  0.00    +0.000 A 
ATOM     20  F   UNL     1       4.392   2.830  12.201  0.00  0.00    +0.000 F 
ENDBRANCH   1  17
BRANCH   1  21
ATOM     21  C   UNL     1       7.149   5.903  16.699  0.00  0.00    +0.000 C 
ATOM     22 CL   UNL     1       7.170   7.483  17.537  0.00  0.00    +0.000 Cl
ATOM     23 CL   UNL     1       7.525   4.621  17.903  0.00  0.00    +0.000 Cl
ENDBRANCH   1  21
TORSDOF 3
ENDMDL
MODEL 2
REMARK VINA RESULT:      -7.4      1.396      1.729
REMARK  Name = 
REMARK  5 active torsions:
REMARK  status: ('A' for Active; 'I' for Inactive)
REMARK    1  A    between atoms: C_1  and  C_2
REMARK    2  A    between atoms: C_5  and  C_6
REMARK    3  A    between atoms: C_6  and  N_7
REMARK    4  A    between atoms: C_6  and  C_17
REMARK    5  A    between atoms: N_13  and  C_14
REMARK                            x       y       z     vdW  Elec       q    Type
REMARK                         _______ _______ _______ _____ _____    ______ ____
ROOT
ATOM      1  C   UNL     1       5.952   5.667  16.892  0.00  0.00    +0.000 C 
ENDROOT
BRANCH   1   2
ATOM      2  N   UNL     1       5.004   4.803  17.619  0.00  0.00    +0.000 N 
ATOM      3  C   UNL     1       3.924   5.356  18.262  0.00  0.00    +0.000 C 
ATOM      4  O   UNL     1       3.655   6.550  18.163  0.00  0.00    +0.000 OA
ATOM      5  N   UNL     1       3.176   4.474  19.030  0.00  0.00    +0.000 N 
ATOM      6  C   UNL     1       2.107   5.046  19.854  0.00  0.00    +0.000 C 
ATOM      7  C   UNL     1       0.935   4.071  20.072  0.00  0.00    +0.000 C 
ATOM      8  N   UNL     1       1.317   2.729  20.553  0.00  0.00    +0.000 NA
ATOM      9  C   UNL     1       1.713   2.741  21.957  0.00  0.00    +0.000 C 
ATOM     10  C   UNL     1       2.367   2.178  19.678  0.00  0.00    +0.000 C 
ATOM     11  C   UNL     1       3.566   3.104  19.391  0.00  0.00    +0.000 C 
ATOM     12  H   UNL     1       5.451   4.089  18.171  0.00  0.00    +0.000 HD
ENDBRANCH   1   2
BRANCH   1  17
ATOM     13  C   UNL     1       6.953   3.900  11.428  0.00  0.00    +0.000 C 
ATOM     14  C   UNL     1       6.813   4.202  12.888  0.00  0.00    +0.000 A 
ATOM     15  C   UNL     1       5.765   3.663  13.638  0.00  0.00    +0.000 A 
ATOM     16  C   UNL     1       5.546   4.074  14.957  0.00  0.00    +0.000 A 
ATOM     17  C   UNL     1       6.359   5.057  15.550  0.00  0.00    +0.000 A 
ATOM     18  C   UNL     1       7.460   5.530  14.824  0.00  0.00    +0.000 A 
ATOM     19  C   UNL     1       7.663   5.118  13.510  0.00  0.00    +0.000 A 
ATOM     20  F   UNL     1       8.682   5.655  12.817  0.00  0.00    +0.000 F 
ENDBRANCH   1  17
BRANCH   1  21
ATOM     21  C   UNL     1       7.216   5.977  17.752  0.00  0.00    +0.000 C 
ATOM     22 CL   UNL     1       7.700   7.697  17.678  0.00  0.00    +0.000 Cl
ATOM     23 CL   UNL     1       6.938   5.543  19.475  0.00  0.00    +0.000 Cl
ENDBRANCH   1  21
TORSDOF 3
ENDMDL
MODEL 3
REMARK VINA RESULT:      -6.9      4.689      6.266
REMARK  Name = 
REMARK  5 active torsions:
REMARK  status: ('A' for Active; 'I' for Inactive)
REMARK    1  A    between atoms: C_1  and  C_2
REMARK    2  A    between atoms: C_5  and  C_6
REMARK    3  A    between atoms: C_6  and  N_7
REMARK    4  A    between atoms: C_6  and  C_17
REMARK    5  A    between atoms: N_13  and  C_14
REMARK                            x       y       z     vdW  Elec       q    Type
REMARK                         _______ _______ _______ _____ _____    ______ ____
ROOT
ATOM      1  C   UNL     1       2.789   6.207  19.617  0.00  0.00    +0.000 C 
ENDROOT
BRANCH   1   2
ATOM      2  N   UNL     1       2.221   7.554  19.427  0.00  0.00    +0.000 N 
ATOM      3  C   UNL     1       1.515   8.152  20.441  0.00  0.00    +0.000 C 
ATOM      4  O   UNL     1       1.428   7.643  21.555  0.00  0.00    +0.000 OA
ATOM      5  N   UNL     1       0.906   9.356  20.110  0.00  0.00    +0.000 N 
ATOM      6  C   UNL     1       0.018   9.952  21.112  0.00  0.00    +0.000 C 
ATOM      7  C   UNL     1      -0.026  11.490  21.029  0.00  0.00    +0.000 C 
ATOM      8  N   UNL     1      -0.294  12.038  19.685  0.00  0.00    +0.000 NA
ATOM      9  C   UNL     1      -1.688  11.866  19.290  0.00  0.00    +0.000 C 
ATOM     10  C   UNL     1       0.641  11.438  18.717  0.00  0.00    +0.000 C 
ATOM     11  C   UNL     1       0.761   9.901  18.754  0.00  0.00    +0.000 C 
ATOM     12  H   UNL     1       1.782   7.684  18.529  0.00  0.00    +0.000 HD
ENDBRANCH   1   2
BRANCH   1  17
ATOM     13  C   UNL     1       6.723   4.560  15.644  0.00  0.00    +0.000 C 
ATOM     14  C   UNL     1       5.853   5.108  16.732  0.00  0.00    +0.000 A 
ATOM     15  C   UNL     1       5.802   4.501  17.989  0.00  0.00    +0.000 A 
ATOM     16  C   UNL     1       4.872   4.919  18.947  0.00  0.00    +0.000 A 
ATOM     17  C   UNL     1       3.949   5.940  18.657  0.00  0.00    +0.000 A 
ATOM     18  C   UNL     1       4.061   6.603  17.428  0.00  0.00    +0.000 A 
ATOM     19  C   UNL     1       4.987   6.174  16.481  0.00  0.00    +0.000 A 
ATOM     20  F   UNL     1       5.010   6.781  15.282  0.00  0.00    +0.000 F 
ENDBRANCH   1  17
BRANCH   1  21
ATOM     21  C   UNL     1       1.698   5.102  19.469  0.00  0.00    +0.000 C 
ATOM     22 CL   UNL     1       1.664   4.376  17.836  0.00  0.00    +0.000 Cl
ATOM     23 CL   UNL     1       1.957   3.786  20.667  0.00  0.00    +0.000 Cl
ENDBRANCH   1  21
TORSDOF 3
ENDMDL
MODEL 4
REMARK VINA RESULT:      -6.7      4.216      5.612
REMARK  Name = 
REMARK  5 active torsions:
REMARK  status: ('A' for Active; 'I' for Inactive)
REMARK    1  A    between atoms: C_1  and  C_2
REMARK    2  A    between atoms: C_5  and  C_6
REMARK    3  A    between atoms: C_6  and  N_7
REMARK    4  A    between atoms: C_6  and  C_17
REMARK    5  A    between atoms: N_13  and  C_14
REMARK                            x       y       z     vdW  Elec       q    Type
REMARK                         _______ _______ _______ _____ _____    ______ ____
ROOT
ATOM      1  C   UNL     1       3.359   5.164  18.893  0.00  0.00    +0.000 C 
ENDROOT
BRANCH   1   2
ATOM      2  N   UNL     1       2.834   6.541  18.830  0.00  0.00    +0.000 N 
ATOM      3  C   UNL     1       2.197   7.085  19.918  0.00  0.00    +0.000 C 
ATOM      4  O   UNL     1       2.143   6.497  20.995  0.00  0.00    +0.000 OA
ATOM      5  N   UNL     1       1.620   8.329  19.706  0.00  0.00    +0.000 N 
ATOM      6  C   UNL     1       0.802   8.879  20.791  0.00  0.00    +0.000 C 
ATOM      7  C   UNL     1       0.811  10.419  20.823  0.00  0.00    +0.000 C 
ATOM      8  N   UNL     1       0.503  11.075  19.537  0.00  0.00    +0.000 NA
ATOM      9  C   UNL     1      -0.913  10.981  19.199  0.00  0.00    +0.000 C 
ATOM     10  C   UNL     1       1.370  10.518  18.484  0.00  0.00    +0.000 C 
ATOM     11  C   UNL     1       1.434   8.980  18.402  0.00  0.00    +0.000 C 
ATOM     12  H   UNL     1       2.360   6.752  17.966  0.00  0.00    +0.000 HD
ENDBRANCH   1   2
BRANCH   1  17
ATOM     13  C   UNL     1       7.349   4.831  14.657  0.00  0.00    +0.000 C 
ATOM     14  C   UNL     1       6.442   4.793  15.848  0.00  0.00    +0.000 A 
ATOM     15  C   UNL     1       5.406   3.860  15.936  0.00  0.00    +0.000 A 
ATOM     16  C   UNL     1       4.466   3.932  16.969  0.00  0.00    +0.000 A 
ATOM     17  C   UNL     1       4.528   4.959  17.929  0.00  0.00    +0.000 A 
ATOM     18  C   UNL     1       5.618   5.838  17.887  0.00  0.00    +0.000 A 
ATOM     19  C   UNL     1       6.542   5.761  16.849  0.00  0.00    +0.000 A 
ATOM     20  F   UNL     1       7.528   6.672  16.796  0.00  0.00    +0.000 F 
ENDBRANCH   1  17
BRANCH   1  21
ATOM     21  C   UNL     1       2.239   4.113  18.619  0.00  0.00    +0.000 C 
ATOM     22 CL   UNL     1       1.336   3.662  20.095  0.00  0.00    +0.000 Cl
ATOM     23 CL   UNL     1       1.065   4.734  17.407  0.00  0.00    +0.000 Cl
ENDBRANCH   1  21
TORSDOF 3
ENDMDL
MODEL 5
REMARK VINA RESULT:      -6.4      4.923      6.569
REMARK  Name = 
REMARK  5 active torsions:
REMARK  status: ('A' for Active; 'I' for Inactive)
REMARK    1  A    between atoms: C_1  and  C_2
REMARK    2  A    between atoms: C_5  and  C_6
REMARK    3  A    between atoms: C_6  and  N_7
REMARK    4  A    between atoms: C_6  and  C_17
REMARK    5  A    between atoms: N_13  and  C_14
REMARK                            x       y       z     vdW  Elec       q    Type
REMARK                         _______ _______ _______ _____ _____    ______ ____
ROOT
ATOM      1  C   UNL     1       2.714   6.383  19.839  0.00  0.00    +0.000 C 
ENDROOT
BRANCH   1   2
ATOM      2  N   UNL     1       2.080   7.687  19.574  0.00  0.00    +0.000 N 
ATOM      3  C   UNL     1       1.455   8.367  20.591  0.00  0.00    +0.000 C 
ATOM      4  O   UNL     1       1.498   7.973  21.753  0.00  0.00    +0.000 OA
ATOM      5  N   UNL     1       0.772   9.512  20.206  0.00  0.00    +0.000 N 
ATOM      6  C   UNL     1      -0.035  10.185  21.228  0.00  0.00    +0.000 C 
ATOM      7  C   UNL     1      -0.145  11.703  20.998  0.00  0.00    +0.000 C 
ATOM      8  N   UNL     1      -0.565  12.103  19.640  0.00  0.00    +0.000 NA
ATOM      9  C   UNL     1      -1.984  11.853  19.409  0.00  0.00    +0.000 C 
ATOM     10  C   UNL     1       0.292  11.432  18.647  0.00  0.00    +0.000 C 
ATOM     11  C   UNL     1       0.473   9.911  18.824  0.00  0.00    +0.000 C 
ATOM     12  H   UNL     1       1.550   7.711  18.718  0.00  0.00    +0.000 HD
ENDBRANCH   1   2
BRANCH   1  17
ATOM     13  C   UNL     1       7.067   5.722  16.020  0.00  0.00    +0.000 C 
ATOM     14  C   UNL     1       5.861   5.739  16.907  0.00  0.00    +0.000 A 
ATOM     15  C   UNL     1       4.758   6.541  16.609  0.00  0.00    +0.000 A 
ATOM     16  C   UNL     1       3.705   6.675  17.520  0.00  0.00    +0.000 A 
ATOM     17  C   UNL     1       3.745   6.027  18.768  0.00  0.00    +0.000 A 
ATOM     18  C   UNL     1       4.812   5.155  19.026  0.00  0.00    +0.000 A 
ATOM     19  C   UNL     1       5.856   5.035  18.113  0.00  0.00    +0.000 A 
ATOM     20  F   UNL     1       6.902   4.253  18.431  0.00  0.00    +0.000 F 
ENDBRANCH   1  17
BRANCH   1  21
ATOM     21  C   UNL     1       1.651   5.247  19.967  0.00  0.00    +0.000 C 
ATOM     22 CL   UNL     1       1.512   4.259  18.484  0.00  0.00    +0.000 Cl
ATOM     23 CL   UNL     1       2.049   4.154  21.339  0.00  0.00    +0.000 Cl
ENDBRANCH   1  21
TORSDOF 3
ENDMDL
MODEL 6
REMARK VINA RESULT:      -6.4      4.305      5.702
REMARK  Name = 
REMARK  5 active torsions:
REMARK  status: ('A' for Active; 'I' for Inactive)
REMARK    1  A    between atoms: C_1  and  C_2
REMARK    2  A    between atoms: C_5  and  C_6
REMARK    3  A    between atoms: C_6  and  N_7
REMARK    4  A    between atoms: C_6  and  C_17
REMARK    5  A    between atoms: N_13  and  C_14
REMARK                            x       y       z     vdW  Elec       q    Type
REMARK                         _______ _______ _______ _____ _____    ______ ____
ROOT
ATOM      1  C   UNL     1       3.057   5.818  18.921  0.00  0.00    +0.000 C 
ENDROOT
BRANCH   1   2
ATOM      2  N   UNL     1       2.547   7.201  18.959  0.00  0.00    +0.000 N 
ATOM      3  C   UNL     1       1.859   7.650  20.059  0.00  0.00    +0.000 C 
ATOM      4  O   UNL     1       1.744   6.966  21.073  0.00  0.00    +0.000 OA
ATOM      5  N   UNL     1       1.304   8.917  19.935  0.00  0.00    +0.000 N 
ATOM      6  C   UNL     1       0.435   9.375  21.023  0.00  0.00    +0.000 C 
ATOM      7  C   UNL     1       0.455  10.904  21.198  0.00  0.00    +0.000 C 
ATOM      8  N   UNL     1       0.219  11.680  19.965  0.00  0.00    +0.000 NA
ATOM      9  C   UNL     1      -1.178  11.636  19.548  0.00  0.00    +0.000 C 
ATOM     10  C   UNL     1       1.135  11.212  18.910  0.00  0.00    +0.000 C 
ATOM     11  C   UNL     1       1.191   9.687  18.689  0.00  0.00    +0.000 C 
ATOM     12  H   UNL     1       2.120   7.497  18.096  0.00  0.00    +0.000 HD
ENDBRANCH   1   2
BRANCH   1  17
ATOM     13  C   UNL     1       6.856   4.976  14.581  0.00  0.00    +0.000 C 
ATOM     14  C   UNL     1       5.738   5.167  15.559  0.00  0.00    +0.000 A 
ATOM     15  C   UNL     1       5.233   6.439  15.836  0.00  0.00    +0.000 A 
ATOM     16  C   UNL     1       4.303   6.630  16.863  0.00  0.00    +0.000 A 
ATOM     17  C   UNL     1       3.874   5.550  17.656  0.00  0.00    +0.000 A 
ATOM     18  C   UNL     1       4.316   4.265  17.318  0.00  0.00    +0.000 A 
ATOM     19  C   UNL     1       5.247   4.089  16.297  0.00  0.00    +0.000 A 
ATOM     20  F   UNL     1       5.710   2.851  16.055  0.00  0.00    +0.000 F 
ENDBRANCH   1  17
BRANCH   1  21
ATOM     21  C   UNL     1       1.899   4.780  19.049  0.00  0.00    +0.000 C 
ATOM     22 CL   UNL     1       1.312   4.199  17.463  0.00  0.00    +0.000 Cl
ATOM     23 CL   UNL     1       2.425   3.355  20.013  0.00  0.00    +0.000 Cl
ENDBRANCH   1  21
TORSDOF 3
ENDMDL
MODEL 7
REMARK VINA RESULT:      -6.3      4.365      5.909
REMARK  Name = 
REMARK  5 active torsions:
REMARK  status: ('A' for Active; 'I' for Inactive)
REMARK    1  A    between atoms: C_1  and  C_2
REMARK    2  A    between atoms: C_5  and  C_6
REMARK    3  A    between atoms: C_6  and  N_7
REMARK    4  A    between atoms: C_6  and  C_17
REMARK    5  A    between atoms: N_13  and  C_14
REMARK                            x       y       z     vdW  Elec       q    Type
REMARK                         _______ _______ _______ _____ _____    ______ ____
ROOT
ATOM      1  C   UNL     1       3.184   5.409  19.386  0.00  0.00    +0.000 C 
ENDROOT
BRANCH   1   2
ATOM      2  N   UNL     1       2.744   6.797  19.151  0.00  0.00    +0.000 N 
ATOM      3  C   UNL     1       1.953   7.433  20.075  0.00  0.00    +0.000 C 
ATOM      4  O   UNL     1       1.682   6.919  21.157  0.00  0.00    +0.000 OA
ATOM      5  N   UNL     1       1.481   8.682  19.693  0.00  0.00    +0.000 N 
ATOM      6  C   UNL     1       0.512   9.331  20.581  0.00  0.00    +0.000 C 
ATOM      7  C   UNL     1       0.588  10.868  20.526  0.00  0.00    +0.000 C 
ATOM      8  N   UNL     1       0.542  11.450  19.170  0.00  0.00    +0.000 NA
ATOM      9  C   UNL     1      -0.795  11.386  18.590  0.00  0.00    +0.000 C 
ATOM     10  C   UNL     1       1.553  10.794  18.322  0.00  0.00    +0.000 C 
ATOM     11  C   UNL     1       1.558   9.253  18.341  0.00  0.00    +0.000 C 
ATOM     12  H   UNL     1       2.440   6.969  18.207  0.00  0.00    +0.000 HD
ENDBRANCH   1   2
BRANCH   1  17
ATOM     13  C   UNL     1       7.493   4.680  15.529  0.00  0.00    +0.000 C 
ATOM     14  C   UNL     1       6.383   4.668  16.534  0.00  0.00    +0.000 A 
ATOM     15  C   UNL     1       5.046   4.649  16.131  0.00  0.00    +0.000 A 
ATOM     16  C   UNL     1       4.016   4.800  17.066  0.00  0.00    +0.000 A 
ATOM     17  C   UNL     1       4.304   5.000  18.429  0.00  0.00    +0.000 A 
ATOM     18  C   UNL     1       5.642   4.932  18.839  0.00  0.00    +0.000 A 
ATOM     19  C   UNL     1       6.658   4.787  17.898  0.00  0.00    +0.000 A 
ATOM     20  F   UNL     1       7.933   4.808  18.320  0.00  0.00    +0.000 F 
ENDBRANCH   1  17
BRANCH   1  21
ATOM     21  C   UNL     1       1.991   4.408  19.285  0.00  0.00    +0.000 C 
ATOM     22 CL   UNL     1       1.230   4.399  17.668  0.00  0.00    +0.000 Cl
ATOM     23 CL   UNL     1       2.530   2.735  19.665  0.00  0.00    +0.000 Cl
ENDBRANCH   1  21
TORSDOF 3
ENDMDL
MODEL 8
REMARK VINA RESULT:      -6.3      6.165      8.684
REMARK  Name = 
REMARK  5 active torsions:
REMARK  status: ('A' for Active; 'I' for Inactive)
REMARK    1  A    between atoms: C_1  and  C_2
REMARK    2  A    between atoms: C_5  and  C_6
REMARK    3  A    between atoms: C_6  and  N_7
REMARK    4  A    between atoms: C_6  and  C_17
REMARK    5  A    between atoms: N_13  and  C_14
REMARK                            x       y       z     vdW  Elec       q    Type
REMARK                         _______ _______ _______ _____ _____    ______ ____
ROOT
ATOM      1  C   UNL     1       0.501  10.697  19.376  0.00  0.00    +0.000 C 
ENDROOT
BRANCH   1   2
ATOM      2  N   UNL     1       1.269   9.513  18.949  0.00  0.00    +0.000 N 
ATOM      3  C   UNL     1       1.406   8.441  19.796  0.00  0.00    +0.000 C 
ATOM      4  O   UNL     1       0.814   8.387  20.871  0.00  0.00    +0.000 OA
ATOM      5  N   UNL     1       2.262   7.441  19.354  0.00  0.00    +0.000 N 
ATOM      6  C   UNL     1       2.557   6.352  20.289  0.00  0.00    +0.000 C 
ATOM      7  C   UNL     1       2.858   5.020  19.578  0.00  0.00    +0.000 C 
ATOM      8  N   UNL     1       3.874   5.095  18.509  0.00  0.00    +0.000 NA
ATOM      9  C   UNL     1       5.223   5.241  19.044  0.00  0.00    +0.000 C 
ATOM     10  C   UNL     1       3.521   6.178  17.575  0.00  0.00    +0.000 C 
ATOM     11  C   UNL     1       3.181   7.540  18.212  0.00  0.00    +0.000 C 
ATOM     12  H   UNL     1       2.130   9.739  18.479  0.00  0.00    +0.000 HD
ENDBRANCH   1   2
BRANCH   1  17
ATOM     13  C   UNL     1      -4.612  11.407  16.668  0.00  0.00    +0.000 C 
ATOM     14  C   UNL     1      -3.389  11.081  17.468  0.00  0.00    +0.000 A 
ATOM     15  C   UNL     1      -3.105  11.755  18.658  0.00  0.00    +0.000 A 
ATOM     16  C   UNL     1      -1.886  11.561  19.315  0.00  0.00    +0.000 A 
ATOM     17  C   UNL     1      -0.908  10.703  18.780  0.00  0.00    +0.000 A 
ATOM     18  C   UNL     1      -1.232   9.963  17.635  0.00  0.00    +0.000 A 
ATOM     19  C   UNL     1      -2.446  10.170  16.987  0.00  0.00    +0.000 A 
ATOM     20  F   UNL     1      -2.688   9.504  15.845  0.00  0.00    +0.000 F 
ENDBRANCH   1  17
BRANCH   1  21
ATOM     21  C   UNL     1       1.246  12.020  19.017  0.00  0.00    +0.000 C 
ATOM     22 CL   UNL     1       1.904  12.856  20.454  0.00  0.00    +0.000 Cl
ATOM     23 CL   UNL     1       2.602  11.700  17.880  0.00  0.00    +0.000 Cl
ENDBRANCH   1  21
TORSDOF 3
ENDMDL
MODEL 9
REMARK VINA RESULT:      -6.3      0.784      1.217
REMARK  Name = 
REMARK  5 active torsions:
REMARK  status: ('A' for Active; 'I' for Inactive)
REMARK    1  A    between atoms: C_1  and  C_2
REMARK    2  A    between atoms: C_5  and  C_6
REMARK    3  A    between atoms: C_6  and  N_7
REMARK    4  A    between atoms: C_6  and  C_17
REMARK    5  A    between atoms: N_13  and  C_14
REMARK                            x       y       z     vdW  Elec       q    Type
REMARK                         _______ _______ _______ _____ _____    ______ ____
ROOT
ATOM      1  C   UNL     1       5.560   5.806  16.879  0.00  0.00    +0.000 C 
ENDROOT
BRANCH   1   2
ATOM      2  N   UNL     1       4.592   4.921  17.552  0.00  0.00    +0.000 N 
ATOM      3  C   UNL     1       3.662   5.448  18.413  0.00  0.00    +0.000 C 
ATOM      4  O   UNL     1       3.535   6.660  18.564  0.00  0.00    +0.000 OA
ATOM      5  N   UNL     1       2.893   4.517  19.098  0.00  0.00    +0.000 N 
ATOM      6  C   UNL     1       1.995   5.027  20.138  0.00  0.00    +0.000 C 
ATOM      7  C   UNL     1       0.740   4.155  20.323  0.00  0.00    +0.000 C 
ATOM      8  N   UNL     1       0.999   2.713  20.504  0.00  0.00    +0.000 NA
ATOM      9  C   UNL     1       1.537   2.413  21.826  0.00  0.00    +0.000 C 
ATOM     10  C   UNL     1       1.876   2.235  19.420  0.00  0.00    +0.000 C 
ATOM     11  C   UNL     1       3.144   3.070  19.156  0.00  0.00    +0.000 C 
ATOM     12  H   UNL     1       5.001   4.072  17.906  0.00  0.00    +0.000 HD
ENDBRANCH   1   2
BRANCH   1  17
ATOM     13  C   UNL     1       7.030   3.287  11.831  0.00  0.00    +0.000 C 
ATOM     14  C   UNL     1       6.609   4.096  13.019  0.00  0.00    +0.000 A 
ATOM     15  C   UNL     1       7.538   4.842  13.749  0.00  0.00    +0.000 A 
ATOM     16  C   UNL     1       7.172   5.465  14.946  0.00  0.00    +0.000 A 
ATOM     17  C   UNL     1       5.867   5.332  15.457  0.00  0.00    +0.000 A 
ATOM     18  C   UNL     1       4.918   4.657  14.679  0.00  0.00    +0.000 A 
ATOM     19  C   UNL     1       5.297   4.036  13.492  0.00  0.00    +0.000 A 
ATOM     20  F   UNL     1       4.378   3.328  12.814  0.00  0.00    +0.000 F 
ENDBRANCH   1  17
BRANCH   1  21
ATOM     21  C   UNL     1       6.878   5.942  17.702  0.00  0.00    +0.000 C 
ATOM     22 CL   UNL     1       7.944   4.516  17.542  0.00  0.00    +0.000 Cl
ATOM     23 CL   UNL     1       7.801   7.398  17.191  0.00  0.00    +0.000 Cl
ENDBRANCH   1  21
TORSDOF 3
ENDMDL
