MODEL 1
REMARK VINA RESULT:      -7.6      0.000      0.000
REMARK  Name = 
REMARK  8 active torsions:
REMARK  status: ('A' for Active; 'I' for Inactive)
REMARK    1  A    between atoms: C_2  and  O_3
REMARK    2  A    between atoms: C_2  and  C_4
REMARK    3  A    between atoms: C_6  and  C_7
REMARK    4  A    between atoms: C_11  and  N_12
REMARK    5  A    between atoms: N_12  and  S_13
REMARK    6  A    between atoms: S_13  and  C_16
REMARK    7  A    between atoms: C_23  and  O_24
REMARK    8  A    between atoms: C_25  and  O_26
REMARK                            x       y       z     vdW  Elec       q    Type
REMARK                         _______ _______ _______ _____ _____    ______ ____
ROOT
ATOM      1  C   UNL     1       2.420   4.920  19.446  0.00  0.00    +0.000 A 
ATOM      2  C   UNL     1       2.217   6.305  19.365  0.00  0.00    +0.000 A 
ATOM      3  C   UNL     1       2.790   7.086  18.345  0.00  0.00    +0.000 A 
ATOM      4  C   UNL     1       3.618   6.433  17.415  0.00  0.00    +0.000 A 
ATOM      5  C   UNL     1       3.837   5.056  17.488  0.00  0.00    +0.000 A 
ATOM      6  C   UNL     1       3.211   4.296  18.483  0.00  0.00    +0.000 A 
ENDROOT
BRANCH   3   7
ATOM      7  C   UNL     1       2.466   8.558  18.242  0.00  0.00    +0.000 C 
ATOM      8  C   UNL     1       1.137   8.985  17.661  0.00  0.00    +0.000 C 
ATOM      9  C   UNL     1       1.414   9.190  19.120  0.00  0.00    +0.000 C 
ENDBRANCH   3   7
BRANCH   1  11
ATOM     10  O   UNL     1       2.287   4.070  21.660  0.00  0.00    +0.000 OA
ATOM     11  C   UNL     1       1.761   4.200  20.565  0.00  0.00    +0.000 C 
BRANCH  11  12
ATOM     12  O   UNL     1       0.513   3.766  20.296  0.00  0.00    +0.000 OA
ATOM     13  H   UNL     1      -0.135   4.502  20.235  0.00  0.00    +0.000 HD
ENDBRANCH  11  12
ENDBRANCH   1  11
BRANCH   5  14
ATOM     14  N   UNL     1       4.666   4.379  16.539  0.00  0.00    +0.000 N 
ATOM     15  H   UNL     1       4.174   3.858  15.810  0.00  0.00    +0.000 HD
BRANCH  14  16
ATOM     16  S   UNL     1       5.909   5.272  15.790  0.00  0.00    +0.000 S 
ATOM     17  O   UNL     1       6.795   4.304  15.178  0.00  0.00    +0.000 OA
ATOM     18  O   UNL     1       5.299   6.310  14.989  0.00  0.00    +0.000 OA
BRANCH  16  19
ATOM     19  C   UNL     1       6.795   6.042  17.120  0.00  0.00    +0.000 A 
ATOM     20  C   UNL     1       7.116   7.402  17.006  0.00  0.00    +0.000 A 
ATOM     21  C   UNL     1       7.915   8.008  17.975  0.00  0.00    +0.000 A 
ATOM     22 BR   UNL     1       8.364   9.837  17.807  0.00  0.00    +0.000 Br
ATOM     23  C   UNL     1       8.404   7.276  19.053  0.00  0.00    +0.000 A 
ATOM     24  C   UNL     1       8.077   5.923  19.163  0.00  0.00    +0.000 A 
ATOM     25 CL   UNL     1       8.700   5.020  20.494  0.00  0.00    +0.000 Cl
ATOM     26  C   UNL     1       7.267   5.304  18.204  0.00  0.00    +0.000 A 
BRANCH  26  27
ATOM     27  O   UNL     1       6.922   3.986  18.351  0.00  0.00    +0.000 OA
ATOM     28  H   UNL     1       7.746   3.475  18.461  0.00  0.00    +0.000 HD
ENDBRANCH  26  27
ENDBRANCH  16  19
ENDBRANCH  14  16
ENDBRANCH   5  14
BRANCH   6  29
ATOM     29  O   UNL     1       3.340   2.929  18.458  0.00  0.00    +0.000 OA
ATOM     30  H   UNL     1       2.441   2.569  18.633  0.00  0.00    +0.000 HD
ENDBRANCH   6  29
TORSDOF 8
ENDMDL
MODEL 2
REMARK VINA RESULT:      -7.2      4.034      6.321
REMARK  Name = 
REMARK  8 active torsions:
REMARK  status: ('A' for Active; 'I' for Inactive)
REMARK    1  A    between atoms: C_2  and  O_3
REMARK    2  A    between atoms: C_2  and  C_4
REMARK    3  A    between atoms: C_6  and  C_7
REMARK    4  A    between atoms: C_11  and  N_12
REMARK    5  A    between atoms: N_12  and  S_13
REMARK    6  A    between atoms: S_13  and  C_16
REMARK    7  A    between atoms: C_23  and  O_24
REMARK    8  A    between atoms: C_25  and  O_26
REMARK                            x       y       z     vdW  Elec       q    Type
REMARK                         _______ _______ _______ _____ _____    ______ ____
ROOT
ATOM      1  C   UNL     1       2.863   4.108  18.059  0.00  0.00    +0.000 A 
ATOM      2  C   UNL     1       3.850   4.135  17.064  0.00  0.00    +0.000 A 
ATOM      3  C   UNL     1       4.526   5.319  16.714  0.00  0.00    +0.000 A 
ATOM      4  C   UNL     1       4.150   6.501  17.377  0.00  0.00    +0.000 A 
ATOM      5  C   UNL     1       3.164   6.491  18.365  0.00  0.00    +0.000 A 
ATOM      6  C   UNL     1       2.545   5.289  18.728  0.00  0.00    +0.000 A 
ENDROOT
BRANCH   3   7
ATOM      7  C   UNL     1       5.648   5.283  15.704  0.00  0.00    +0.000 C 
ATOM      8  C   UNL     1       6.971   4.659  16.088  0.00  0.00    +0.000 C 
ATOM      9  C   UNL     1       6.094   3.984  15.077  0.00  0.00    +0.000 C 
ENDBRANCH   3   7
BRANCH   1  11
ATOM     10  O   UNL     1       2.856   1.825  18.715  0.00  0.00    +0.000 OA
ATOM     11  C   UNL     1       2.220   2.800  18.344  0.00  0.00    +0.000 C 
BRANCH  11  12
ATOM     12  O   UNL     1       0.876   2.798  18.231  0.00  0.00    +0.000 OA
ATOM     13  H   UNL     1       0.485   3.683  18.397  0.00  0.00    +0.000 HD
ENDBRANCH  11  12
ENDBRANCH   1  11
BRANCH   5  14
ATOM     14  N   UNL     1       2.784   7.685  19.055  0.00  0.00    +0.000 N 
ATOM     15  H   UNL     1       3.546   8.213  19.485  0.00  0.00    +0.000 HD
BRANCH  14  16
ATOM     16  S   UNL     1       1.784   8.793  18.233  0.00  0.00    +0.000 S 
ATOM     17  O   UNL     1       2.669   9.678  17.505  0.00  0.00    +0.000 OA
ATOM     18  O   UNL     1       0.763   8.047  17.533  0.00  0.00    +0.000 OA
BRANCH  16  19
ATOM     19  C   UNL     1       1.002   9.749  19.507  0.00  0.00    +0.000 A 
ATOM     20  C   UNL     1       0.723  11.098  19.249  0.00  0.00    +0.000 A 
ATOM     21  C   UNL     1       0.221  11.907  20.267  0.00  0.00    +0.000 A 
ATOM     22 BR   UNL     1      -0.135  13.733  19.923  0.00  0.00    +0.000 Br
ATOM     23  C   UNL     1      -0.000  11.393  21.541  0.00  0.00    +0.000 A 
ATOM     24  C   UNL     1       0.277  10.047  21.791  0.00  0.00    +0.000 A 
ATOM     25 CL   UNL     1       0.012   9.421  23.376  0.00  0.00    +0.000 Cl
ATOM     26  C   UNL     1       0.769   9.219  20.776  0.00  0.00    +0.000 A 
BRANCH  26  27
ATOM     27  O   UNL     1       0.995   7.892  21.027  0.00  0.00    +0.000 OA
ATOM     28  H   UNL     1       1.741   7.831  21.653  0.00  0.00    +0.000 HD
ENDBRANCH  26  27
ENDBRANCH  16  19
ENDBRANCH  14  16
ENDBRANCH   5  14
BRANCH   6  29
ATOM     29  O   UNL     1       1.671   5.283  19.787  0.00  0.00    +0.000 OA
ATOM     30  H   UNL     1       1.000   4.594  19.580  0.00  0.00    +0.000 HD
ENDBRANCH   6  29
TORSDOF 8
ENDMDL
MODEL 3
REMARK VINA RESULT:      -7.2      3.691      4.993
REMARK  Name = 
REMARK  8 active torsions:
REMARK  status: ('A' for Active; 'I' for Inactive)
REMARK    1  A    between atoms: C_2  and  O_3
REMARK    2  A    between atoms: C_2  and  C_4
REMARK    3  A    between atoms: C_6  and  C_7
REMARK    4  A    between atoms: C_11  and  N_12
REMARK    5  A    between atoms: N_12  and  S_13
REMARK    6  A    between atoms: S_13  and  C_16
REMARK    7  A    between atoms: C_23  and  O_24
REMARK    8  A    between atoms: C_25  and  O_26
REMARK                            x       y       z     vdW  Elec       q    Type
REMARK                         _______ _______ _______ _____ _____    ______ ____
ROOT
ATOM      1  C   UNL     1       2.130   7.477  19.367  0.00  0.00    +0.000 A 
ATOM      2  C   UNL     1       1.909   6.417  20.257  0.00  0.00    +0.000 A 
ATOM      3  C   UNL     1       2.544   5.171  20.106  0.00  0.00    +0.000 A 
ATOM      4  C   UNL     1       3.392   5.004  18.997  0.00  0.00    +0.000 A 
ATOM      5  C   UNL     1       3.614   6.048  18.097  0.00  0.00    +0.000 A 
ATOM      6  C   UNL     1       3.009   7.293  18.301  0.00  0.00    +0.000 A 
ENDROOT
BRANCH   3   7
ATOM      7  C   UNL     1       2.351   4.090  21.143  0.00  0.00    +0.000 C 
ATOM      8  C   UNL     1       1.280   3.042  20.932  0.00  0.00    +0.000 C 
ATOM      9  C   UNL     1       2.727   2.656  20.858  0.00  0.00    +0.000 C 
ENDBRANCH   3   7
BRANCH   1  11
ATOM     10  O   UNL     1       1.179   9.564  18.749  0.00  0.00    +0.000 OA
ATOM     11  C   UNL     1       1.406   8.748  19.628  0.00  0.00    +0.000 C 
BRANCH  11  12
ATOM     12  O   UNL     1       0.960   8.890  20.893  0.00  0.00    +0.000 OA
ATOM     13  H   UNL     1       1.302   9.704  21.322  0.00  0.00    +0.000 HD
ENDBRANCH  11  12
ENDBRANCH   1  11
BRANCH   5  14
ATOM     14  N   UNL     1       4.485   5.893  16.972  0.00  0.00    +0.000 N 
ATOM     15  H   UNL     1       5.231   6.588  16.888  0.00  0.00    +0.000 HD
BRANCH  14  16
ATOM     16  S   UNL     1       5.173   4.358  16.706  0.00  0.00    +0.000 S 
ATOM     17  O   UNL     1       6.282   4.242  17.631  0.00  0.00    +0.000 OA
ATOM     18  O   UNL     1       4.110   3.378  16.718  0.00  0.00    +0.000 OA
BRANCH  16  19
ATOM     19  C   UNL     1       5.849   4.428  15.068  0.00  0.00    +0.000 A 
ATOM     20  C   UNL     1       5.269   3.627  14.074  0.00  0.00    +0.000 A 
ATOM     21  C   UNL     1       5.849   3.566  12.808  0.00  0.00    +0.000 A 
ATOM     22 BR   UNL     1       5.077   2.468  11.476  0.00  0.00    +0.000 Br
ATOM     23  C   UNL     1       7.005   4.287  12.520  0.00  0.00    +0.000 A 
ATOM     24  C   UNL     1       7.576   5.086  13.513  0.00  0.00    +0.000 A 
ATOM     25 CL   UNL     1       9.015   5.965  13.150  0.00  0.00    +0.000 Cl
ATOM     26  C   UNL     1       6.997   5.166  14.784  0.00  0.00    +0.000 A 
BRANCH  26  27
ATOM     27  O   UNL     1       7.547   5.988  15.732  0.00  0.00    +0.000 OA
ATOM     28  H   UNL     1       6.950   5.991  16.504  0.00  0.00    +0.000 HD
ENDBRANCH  26  27
ENDBRANCH  16  19
ENDBRANCH  14  16
ENDBRANCH   5  14
BRANCH   6  29
ATOM     29  O   UNL     1       3.342   8.339  17.476  0.00  0.00    +0.000 OA
ATOM     30  H   UNL     1       2.572   8.951  17.490  0.00  0.00    +0.000 HD
ENDBRANCH   6  29
TORSDOF 8
ENDMDL
MODEL 4
REMARK VINA RESULT:      -7.2      3.400      4.087
REMARK  Name = 
REMARK  8 active torsions:
REMARK  status: ('A' for Active; 'I' for Inactive)
REMARK    1  A    between atoms: C_2  and  O_3
REMARK    2  A    between atoms: C_2  and  C_4
REMARK    3  A    between atoms: C_6  and  C_7
REMARK    4  A    between atoms: C_11  and  N_12
REMARK    5  A    between atoms: N_12  and  S_13
REMARK    6  A    between atoms: S_13  and  C_16
REMARK    7  A    between atoms: C_23  and  O_24
REMARK    8  A    between atoms: C_25  and  O_26
REMARK                            x       y       z     vdW  Elec       q    Type
REMARK                         _______ _______ _______ _____ _____    ______ ____
ROOT
ATOM      1  C   UNL     1       1.553   4.153  19.330  0.00  0.00    +0.000 A 
ATOM      2  C   UNL     1       1.517   5.297  20.141  0.00  0.00    +0.000 A 
ATOM      3  C   UNL     1       2.228   6.466  19.814  0.00  0.00    +0.000 A 
ATOM      4  C   UNL     1       3.018   6.442  18.652  0.00  0.00    +0.000 A 
ATOM      5  C   UNL     1       3.071   5.308  17.839  0.00  0.00    +0.000 A 
ATOM      6  C   UNL     1       2.313   4.176  18.161  0.00  0.00    +0.000 A 
ENDROOT
BRANCH   3   7
ATOM      7  C   UNL     1       2.083   7.705  20.665  0.00  0.00    +0.000 C 
ATOM      8  C   UNL     1       1.267   8.869  20.148  0.00  0.00    +0.000 C 
ATOM      9  C   UNL     1       0.765   8.063  21.308  0.00  0.00    +0.000 C 
ENDBRANCH   3   7
BRANCH   1  11
ATOM     10  O   UNL     1       0.200   2.231  18.988  0.00  0.00    +0.000 OA
ATOM     11  C   UNL     1       0.760   2.978  19.775  0.00  0.00    +0.000 C 
BRANCH  11  12
ATOM     12  O   UNL     1       0.770   2.765  21.107  0.00  0.00    +0.000 OA
ATOM     13  H   UNL     1      -0.067   2.366  21.429  0.00  0.00    +0.000 HD
ENDBRANCH  11  12
ENDBRANCH   1  11
BRANCH   5  14
ATOM     14  N   UNL     1       3.861   5.277  16.647  0.00  0.00    +0.000 N 
ATOM     15  H   UNL     1       4.036   6.182  16.205  0.00  0.00    +0.000 HD
BRANCH  14  16
ATOM     16  S   UNL     1       5.338   4.429  16.695  0.00  0.00    +0.000 S 
ATOM     17  O   UNL     1       6.232   5.214  17.520  0.00  0.00    +0.000 OA
ATOM     18  O   UNL     1       5.056   3.051  17.033  0.00  0.00    +0.000 OA
BRANCH  16  19
ATOM     19  C   UNL     1       5.959   4.481  15.034  0.00  0.00    +0.000 A 
ATOM     20  C   UNL     1       5.329   3.689  14.064  0.00  0.00    +0.000 A 
ATOM     21  C   UNL     1       5.865   3.613  12.779  0.00  0.00    +0.000 A 
ATOM     22 BR   UNL     1       5.026   2.527  11.477  0.00  0.00    +0.000 Br
ATOM     23  C   UNL     1       7.024   4.310  12.449  0.00  0.00    +0.000 A 
ATOM     24  C   UNL     1       7.644   5.100  13.419  0.00  0.00    +0.000 A 
ATOM     25 CL   UNL     1       9.087   5.949  13.005  0.00  0.00    +0.000 Cl
ATOM     26  C   UNL     1       7.111   5.196  14.709  0.00  0.00    +0.000 A 
BRANCH  26  27
ATOM     27  O   UNL     1       7.709   6.009  15.635  0.00  0.00    +0.000 OA
ATOM     28  H   UNL     1       8.165   6.724  15.152  0.00  0.00    +0.000 HD
ENDBRANCH  26  27
ENDBRANCH  16  19
ENDBRANCH  14  16
ENDBRANCH   5  14
BRANCH   6  29
ATOM     29  O   UNL     1       2.281   3.122  17.282  0.00  0.00    +0.000 OA
ATOM     30  H   UNL     1       1.538   3.306  16.665  0.00  0.00    +0.000 HD
ENDBRANCH   6  29
TORSDOF 8
ENDMDL
MODEL 5
REMARK VINA RESULT:      -7.2      3.925      6.680
REMARK  Name = 
REMARK  8 active torsions:
REMARK  status: ('A' for Active; 'I' for Inactive)
REMARK    1  A    between atoms: C_2  and  O_3
REMARK    2  A    between atoms: C_2  and  C_4
REMARK    3  A    between atoms: C_6  and  C_7
REMARK    4  A    between atoms: C_11  and  N_12
REMARK    5  A    between atoms: N_12  and  S_13
REMARK    6  A    between atoms: S_13  and  C_16
REMARK    7  A    between atoms: C_23  and  O_24
REMARK    8  A    between atoms: C_25  and  O_26
REMARK                            x       y       z     vdW  Elec       q    Type
REMARK                         _______ _______ _______ _____ _____    ______ ____
ROOT
ATOM      1  C   UNL     1       4.460   5.099  16.918  0.00  0.00    +0.000 A 
ATOM      2  C   UNL     1       3.650   3.982  17.166  0.00  0.00    +0.000 A 
ATOM      3  C   UNL     1       2.527   4.048  18.013  0.00  0.00    +0.000 A 
ATOM      4  C   UNL     1       2.259   5.277  18.642  0.00  0.00    +0.000 A 
ATOM      5  C   UNL     1       3.062   6.395  18.410  0.00  0.00    +0.000 A 
ATOM      6  C   UNL     1       4.142   6.314  17.523  0.00  0.00    +0.000 A 
ENDROOT
BRANCH   3   7
ATOM      7  C   UNL     1       1.628   2.845  18.176  0.00  0.00    +0.000 C 
ATOM      8  C   UNL     1       1.844   1.911  19.346  0.00  0.00    +0.000 C 
ATOM      9  C   UNL     1       0.617   2.771  19.293  0.00  0.00    +0.000 C 
ENDBRANCH   3   7
BRANCH   1  11
ATOM     10  O   UNL     1       5.933   5.744  15.169  0.00  0.00    +0.000 OA
ATOM     11  C   UNL     1       5.616   4.911  16.004  0.00  0.00    +0.000 C 
BRANCH  11  12
ATOM     12  O   UNL     1       6.326   3.785  16.221  0.00  0.00    +0.000 OA
ATOM     13  H   UNL     1       5.864   3.160  16.821  0.00  0.00    +0.000 HD
ENDBRANCH  11  12
ENDBRANCH   1  11
BRANCH   5  14
ATOM     14  N   UNL     1       2.790   7.654  19.034  0.00  0.00    +0.000 N 
ATOM     15  H   UNL     1       3.606   8.167  19.374  0.00  0.00    +0.000 HD
BRANCH  14  16
ATOM     16  S   UNL     1       1.794   8.755  18.198  0.00  0.00    +0.000 S 
ATOM     17  O   UNL     1       2.682   9.618  17.447  0.00  0.00    +0.000 OA
ATOM     18  O   UNL     1       0.762   8.004  17.519  0.00  0.00    +0.000 OA
BRANCH  16  19
ATOM     19  C   UNL     1       1.030   9.741  19.459  0.00  0.00    +0.000 A 
ATOM     20  C   UNL     1       0.791  11.095  19.190  0.00  0.00    +0.000 A 
ATOM     21  C   UNL     1       0.305  11.926  20.199  0.00  0.00    +0.000 A 
ATOM     22 BR   UNL     1       0.004  13.758  19.840  0.00  0.00    +0.000 Br
ATOM     23  C   UNL     1       0.058  11.426  21.475  0.00  0.00    +0.000 A 
ATOM     24  C   UNL     1       0.294  10.074  21.735  0.00  0.00    +0.000 A 
ATOM     25 CL   UNL     1      -0.001   9.467  23.322  0.00  0.00    +0.000 Cl
ATOM     26  C   UNL     1       0.771   9.227  20.729  0.00  0.00    +0.000 A 
BRANCH  26  27
ATOM     27  O   UNL     1       0.957   7.895  20.991  0.00  0.00    +0.000 OA
ATOM     28  H   UNL     1       0.352   7.392  20.414  0.00  0.00    +0.000 HD
ENDBRANCH  26  27
ENDBRANCH  16  19
ENDBRANCH  14  16
ENDBRANCH   5  14
BRANCH   6  29
ATOM     29  O   UNL     1       4.838   7.456  17.214  0.00  0.00    +0.000 OA
ATOM     30  H   UNL     1       5.192   7.796  18.067  0.00  0.00    +0.000 HD
ENDBRANCH   6  29
TORSDOF 8
ENDMDL
MODEL 6
REMARK VINA RESULT:      -7.1      3.991      6.261
REMARK  Name = 
REMARK  8 active torsions:
REMARK  status: ('A' for Active; 'I' for Inactive)
REMARK    1  A    between atoms: C_2  and  O_3
REMARK    2  A    between atoms: C_2  and  C_4
REMARK    3  A    between atoms: C_6  and  C_7
REMARK    4  A    between atoms: C_11  and  N_12
REMARK    5  A    between atoms: N_12  and  S_13
REMARK    6  A    between atoms: S_13  and  C_16
REMARK    7  A    between atoms: C_23  and  O_24
REMARK    8  A    between atoms: C_25  and  O_26
REMARK                            x       y       z     vdW  Elec       q    Type
REMARK                         _______ _______ _______ _____ _____    ______ ____
ROOT
ATOM      1  C   UNL     1       4.168   3.966  18.481  0.00  0.00    +0.000 A 
ATOM      2  C   UNL     1       4.754   4.018  17.208  0.00  0.00    +0.000 A 
ATOM      3  C   UNL     1       4.850   5.217  16.478  0.00  0.00    +0.000 A 
ATOM      4  C   UNL     1       4.298   6.374  17.055  0.00  0.00    +0.000 A 
ATOM      5  C   UNL     1       3.704   6.336  18.318  0.00  0.00    +0.000 A 
ATOM      6  C   UNL     1       3.669   5.140  19.044  0.00  0.00    +0.000 A 
ENDROOT
BRANCH   3   7
ATOM      7  C   UNL     1       5.574   5.243  15.153  0.00  0.00    +0.000 C 
ATOM      8  C   UNL     1       7.039   4.870  15.102  0.00  0.00    +0.000 C 
ATOM      9  C   UNL     1       6.017   3.968  14.479  0.00  0.00    +0.000 C 
ENDBRANCH   3   7
BRANCH   1  11
ATOM     10  O   UNL     1       3.294   1.794  18.882  0.00  0.00    +0.000 OA
ATOM     11  C   UNL     1       4.127   2.644  19.158  0.00  0.00    +0.000 C 
BRANCH  11  12
ATOM     12  O   UNL     1       5.121   2.436  20.045  0.00  0.00    +0.000 OA
ATOM     13  H   UNL     1       5.854   1.903  19.667  0.00  0.00    +0.000 HD
ENDBRANCH  11  12
ENDBRANCH   1  11
BRANCH   5  14
ATOM     14  N   UNL     1       3.152   7.511  18.921  0.00  0.00    +0.000 N 
ATOM     15  H   UNL     1       3.828   8.200  19.255  0.00  0.00    +0.000 HD
BRANCH  14  16
ATOM     16  S   UNL     1       1.938   8.346  18.066  0.00  0.00    +0.000 S 
ATOM     17  O   UNL     1       2.622   9.269  17.184  0.00  0.00    +0.000 OA
ATOM     18  O   UNL     1       1.015   7.373  17.525  0.00  0.00    +0.000 OA
BRANCH  16  19
ATOM     19  C   UNL     1       1.084   9.307  19.288  0.00  0.00    +0.000 A 
ATOM     20  C   UNL     1       0.531  10.535  18.900  0.00  0.00    +0.000 A 
ATOM     21  C   UNL     1      -0.040  11.371  19.859  0.00  0.00    +0.000 A 
ATOM     22 BR   UNL     1      -0.766  13.037  19.337  0.00  0.00    +0.000 Br
ATOM     23  C   UNL     1      -0.062  11.001  21.201  0.00  0.00    +0.000 A 
ATOM     24  C   UNL     1       0.487   9.775  21.580  0.00  0.00    +0.000 A 
ATOM     25 CL   UNL     1       0.468   9.332  23.247  0.00  0.00    +0.000 Cl
ATOM     26  C   UNL     1       1.053   8.921  20.627  0.00  0.00    +0.000 A 
BRANCH  26  27
ATOM     27  O   UNL     1       1.549   7.703  21.011  0.00  0.00    +0.000 OA
ATOM     28  H   UNL     1       1.793   7.766  21.954  0.00  0.00    +0.000 HD
ENDBRANCH  26  27
ENDBRANCH  16  19
ENDBRANCH  14  16
ENDBRANCH   5  14
BRANCH   6  29
ATOM     29  O   UNL     1       3.195   5.155  20.333  0.00  0.00    +0.000 OA
ATOM     30  H   UNL     1       3.979   5.018  20.911  0.00  0.00    +0.000 HD
ENDBRANCH   6  29
TORSDOF 8
ENDMDL
MODEL 7
REMARK VINA RESULT:      -7.1      4.322      7.009
REMARK  Name = 
REMARK  8 active torsions:
REMARK  status: ('A' for Active; 'I' for Inactive)
REMARK    1  A    between atoms: C_2  and  O_3
REMARK    2  A    between atoms: C_2  and  C_4
REMARK    3  A    between atoms: C_6  and  C_7
REMARK    4  A    between atoms: C_11  and  N_12
REMARK    5  A    between atoms: N_12  and  S_13
REMARK    6  A    between atoms: S_13  and  C_16
REMARK    7  A    between atoms: C_23  and  O_24
REMARK    8  A    between atoms: C_25  and  O_26
REMARK                            x       y       z     vdW  Elec       q    Type
REMARK                         _______ _______ _______ _____ _____    ______ ____
ROOT
ATOM      1  C   UNL     1       4.576   5.154  17.011  0.00  0.00    +0.000 A 
ATOM      2  C   UNL     1       3.772   4.019  17.191  0.00  0.00    +0.000 A 
ATOM      3  C   UNL     1       2.599   4.052  17.968  0.00  0.00    +0.000 A 
ATOM      4  C   UNL     1       2.271   5.265  18.599  0.00  0.00    +0.000 A 
ATOM      5  C   UNL     1       3.067   6.400  18.435  0.00  0.00    +0.000 A 
ATOM      6  C   UNL     1       4.200   6.352  17.614  0.00  0.00    +0.000 A 
ENDROOT
BRANCH   3   7
ATOM      7  C   UNL     1       1.713   2.832  18.055  0.00  0.00    +0.000 C 
ATOM      8  C   UNL     1       1.854   1.896  19.235  0.00  0.00    +0.000 C 
ATOM      9  C   UNL     1       0.618   2.733  19.090  0.00  0.00    +0.000 C 
ENDBRANCH   3   7
BRANCH   1  11
ATOM     10  O   UNL     1       6.092   5.810  15.304  0.00  0.00    +0.000 OA
ATOM     11  C   UNL     1       5.789   5.000  16.167  0.00  0.00    +0.000 C 
BRANCH  11  12
ATOM     12  O   UNL     1       6.561   3.940  16.480  0.00  0.00    +0.000 OA
ATOM     13  H   UNL     1       6.948   3.511  15.686  0.00  0.00    +0.000 HD
ENDBRANCH  11  12
ENDBRANCH   1  11
BRANCH   5  14
ATOM     14  N   UNL     1       2.735   7.643  19.061  0.00  0.00    +0.000 N 
ATOM     15  H   UNL     1       3.509   8.135  19.512  0.00  0.00    +0.000 HD
BRANCH  14  16
ATOM     16  S   UNL     1       1.858   8.783  18.147  0.00  0.00    +0.000 S 
ATOM     17  O   UNL     1       2.827   9.481  17.328  0.00  0.00    +0.000 OA
ATOM     18  O   UNL     1       0.739   8.104  17.532  0.00  0.00    +0.000 OA
BRANCH  16  19
ATOM     19  C   UNL     1       1.226   9.942  19.331  0.00  0.00    +0.000 A 
ATOM     20  C   UNL     1       0.757   9.451  20.557  0.00  0.00    +0.000 A 
ATOM     21  C   UNL     1       0.143  10.318  21.461  0.00  0.00    +0.000 A 
ATOM     22 BR   UNL     1      -0.510   9.649  23.104  0.00  0.00    +0.000 Br
ATOM     23  C   UNL     1      -0.014  11.668  21.156  0.00  0.00    +0.000 A 
ATOM     24  C   UNL     1       0.459  12.151  19.935  0.00  0.00    +0.000 A 
ATOM     25 CL   UNL     1       0.247  13.822  19.561  0.00  0.00    +0.000 Cl
ATOM     26  C   UNL     1       1.088  11.295  19.024  0.00  0.00    +0.000 A 
BRANCH  26  27
ATOM     27  O   UNL     1       1.584  11.796  17.849  0.00  0.00    +0.000 OA
ATOM     28  H   UNL     1       1.232  12.699  17.740  0.00  0.00    +0.000 HD
ENDBRANCH  26  27
ENDBRANCH  16  19
ENDBRANCH  14  16
ENDBRANCH   5  14
BRANCH   6  29
ATOM     29  O   UNL     1       4.894   7.511  17.368  0.00  0.00    +0.000 OA
ATOM     30  H   UNL     1       4.612   8.149  18.062  0.00  0.00    +0.000 HD
ENDBRANCH   6  29
TORSDOF 8
ENDMDL
MODEL 8
REMARK VINA RESULT:      -7.1      5.021      7.978
REMARK  Name = 
REMARK  8 active torsions:
REMARK  status: ('A' for Active; 'I' for Inactive)
REMARK    1  A    between atoms: C_2  and  O_3
REMARK    2  A    between atoms: C_2  and  C_4
REMARK    3  A    between atoms: C_6  and  C_7
REMARK    4  A    between atoms: C_11  and  N_12
REMARK    5  A    between atoms: N_12  and  S_13
REMARK    6  A    between atoms: S_13  and  C_16
REMARK    7  A    between atoms: C_23  and  O_24
REMARK    8  A    between atoms: C_25  and  O_26
REMARK                            x       y       z     vdW  Elec       q    Type
REMARK                         _______ _______ _______ _____ _____    ______ ____
ROOT
ATOM      1  C   UNL     1       3.369   6.123  18.416  0.00  0.00    +0.000 A 
ATOM      2  C   UNL     1       3.187   5.092  19.347  0.00  0.00    +0.000 A 
ATOM      3  C   UNL     1       2.367   5.245  20.480  0.00  0.00    +0.000 A 
ATOM      4  C   UNL     1       1.755   6.496  20.674  0.00  0.00    +0.000 A 
ATOM      5  C   UNL     1       1.934   7.535  19.760  0.00  0.00    +0.000 A 
ATOM      6  C   UNL     1       2.714   7.338  18.614  0.00  0.00    +0.000 A 
ENDROOT
BRANCH   3   7
ATOM      7  C   UNL     1       2.123   4.076  21.405  0.00  0.00    +0.000 C 
ATOM      8  C   UNL     1       1.164   2.985  20.984  0.00  0.00    +0.000 C 
ATOM      9  C   UNL     1       2.632   2.695  21.070  0.00  0.00    +0.000 C 
ENDBRANCH   3   7
BRANCH   1  11
ATOM     10  O   UNL     1       4.687   6.731  16.535  0.00  0.00    +0.000 OA
ATOM     11  C   UNL     1       4.256   5.845  17.257  0.00  0.00    +0.000 C 
BRANCH  11  12
ATOM     12  O   UNL     1       4.602   4.550  17.112  0.00  0.00    +0.000 OA
ATOM     13  H   UNL     1       3.850   3.991  16.818  0.00  0.00    +0.000 HD
ENDBRANCH  11  12
ENDBRANCH   1  11
BRANCH   5  14
ATOM     14  N   UNL     1       1.305   8.808  19.940  0.00  0.00    +0.000 N 
ATOM     15  H   UNL     1       0.621   9.071  19.228  0.00  0.00    +0.000 HD
BRANCH  14  16
ATOM     16  S   UNL     1       0.625   9.148  21.465  0.00  0.00    +0.000 S 
ATOM     17  O   UNL     1      -0.473   8.219  21.638  0.00  0.00    +0.000 OA
ATOM     18  O   UNL     1       1.696   9.198  22.436  0.00  0.00    +0.000 OA
BRANCH  16  19
ATOM     19  C   UNL     1      -0.068  10.773  21.314  0.00  0.00    +0.000 A 
ATOM     20  C   UNL     1       0.084  11.450  20.096  0.00  0.00    +0.000 A 
ATOM     21  C   UNL     1      -0.341  12.773  19.982  0.00  0.00    +0.000 A 
ATOM     22 BR   UNL     1      -0.114  13.692  18.344  0.00  0.00    +0.000 Br
ATOM     23  C   UNL     1      -0.911  13.433  21.067  0.00  0.00    +0.000 A 
ATOM     24  C   UNL     1      -1.064  12.752  22.276  0.00  0.00    +0.000 A 
ATOM     25 CL   UNL     1      -1.758  13.582  23.619  0.00  0.00    +0.000 Cl
ATOM     26  C   UNL     1      -0.652  11.420  22.402  0.00  0.00    +0.000 A 
BRANCH  26  27
ATOM     27  O   UNL     1      -0.849  10.755  23.583  0.00  0.00    +0.000 OA
ATOM     28  H   UNL     1      -0.159  10.068  23.655  0.00  0.00    +0.000 HD
ENDBRANCH  26  27
ENDBRANCH  16  19
ENDBRANCH  14  16
ENDBRANCH   5  14
BRANCH   6  29
ATOM     29  O   UNL     1       2.772   8.331  17.668  0.00  0.00    +0.000 OA
ATOM     30  H   UNL     1       3.659   8.745  17.765  0.00  0.00    +0.000 HD
ENDBRANCH   6  29
TORSDOF 8
ENDMDL
MODEL 9
REMARK VINA RESULT:      -7.1      3.866      5.975
REMARK  Name = 
REMARK  8 active torsions:
REMARK  status: ('A' for Active; 'I' for Inactive)
REMARK    1  A    between atoms: C_2  and  O_3
REMARK    2  A    between atoms: C_2  and  C_4
REMARK    3  A    between atoms: C_6  and  C_7
REMARK    4  A    between atoms: C_11  and  N_12
REMARK    5  A    between atoms: N_12  and  S_13
REMARK    6  A    between atoms: S_13  and  C_16
REMARK    7  A    between atoms: C_23  and  O_24
REMARK    8  A    between atoms: C_25  and  O_26
REMARK                            x       y       z     vdW  Elec       q    Type
REMARK                         _______ _______ _______ _____ _____    ______ ____
ROOT
ATOM      1  C   UNL     1       2.979   3.497  18.310  0.00  0.00    +0.000 A 
ATOM      2  C   UNL     1       4.059   3.318  17.433  0.00  0.00    +0.000 A 
ATOM      3  C   UNL     1       4.888   4.385  17.042  0.00  0.00    +0.000 A 
ATOM      4  C   UNL     1       4.575   5.664  17.534  0.00  0.00    +0.000 A 
ATOM      5  C   UNL     1       3.498   5.859  18.400  0.00  0.00    +0.000 A 
ATOM      6  C   UNL     1       2.721   4.771  18.814  0.00  0.00    +0.000 A 
ENDROOT
BRANCH   3   7
ATOM      7  C   UNL     1       6.096   4.128  16.173  0.00  0.00    +0.000 C 
ATOM      8  C   UNL     1       5.943   4.133  14.669  0.00  0.00    +0.000 C 
ATOM      9  C   UNL     1       6.711   5.229  15.344  0.00  0.00    +0.000 C 
ENDBRANCH   3   7
BRANCH   1  11
ATOM     10  O   UNL     1       0.992   2.363  18.949  0.00  0.00    +0.000 OA
ATOM     11  C   UNL     1       2.175   2.296  18.654  0.00  0.00    +0.000 C 
BRANCH  11  12
ATOM     12  O   UNL     1       2.838   1.126  18.544  0.00  0.00    +0.000 OA
ATOM     13  H   UNL     1       3.015   0.882  17.609  0.00  0.00    +0.000 HD
ENDBRANCH  11  12
ENDBRANCH   1  11
BRANCH   5  14
ATOM     14  N   UNL     1       3.178   7.155  18.918  0.00  0.00    +0.000 N 
ATOM     15  H   UNL     1       3.976   7.744  19.167  0.00  0.00    +0.000 HD
BRANCH  14  16
ATOM     16  S   UNL     1       2.080   8.113  18.035  0.00  0.00    +0.000 S 
ATOM     17  O   UNL     1       2.872   8.880  17.096  0.00  0.00    +0.000 OA
ATOM     18  O   UNL     1       1.014   7.259  17.561  0.00  0.00    +0.000 OA
BRANCH  16  19
ATOM     19  C   UNL     1       1.402   9.250  19.215  0.00  0.00    +0.000 A 
ATOM     20  C   UNL     1       1.255  10.592  18.838  0.00  0.00    +0.000 A 
ATOM     21  C   UNL     1       0.840  11.534  19.778  0.00  0.00    +0.000 A 
ATOM     22 BR   UNL     1       0.665  13.348  19.271  0.00  0.00    +0.000 Br
ATOM     23  C   UNL     1       0.574  11.158  21.092  0.00  0.00    +0.000 A 
ATOM     24  C   UNL     1       0.717   9.819  21.460  0.00  0.00    +0.000 A 
ATOM     25 CL   UNL     1       0.399   9.366  23.094  0.00  0.00    +0.000 Cl
ATOM     26  C   UNL     1       1.122   8.861  20.525  0.00  0.00    +0.000 A 
BRANCH  26  27
ATOM     27  O   UNL     1       1.216   7.545  20.894  0.00  0.00    +0.000 OA
ATOM     28  H   UNL     1       0.533   7.050  20.405  0.00  0.00    +0.000 HD
ENDBRANCH  26  27
ENDBRANCH  16  19
ENDBRANCH  14  16
ENDBRANCH   5  14
BRANCH   6  29
ATOM     29  O   UNL     1       1.749   4.967  19.763  0.00  0.00    +0.000 OA
ATOM     30  H   UNL     1       1.295   4.101  19.869  0.00  0.00    +0.000 HD
ENDBRANCH   6  29
TORSDOF 8
ENDMDL
