MODEL 1
REMARK VINA RESULT:      -6.7      0.000      0.000
REMARK  Name = 
REMARK  7 active torsions:
REMARK  status: ('A' for Active; 'I' for Inactive)
REMARK    1  A    between atoms: C_1  and  C_2
REMARK    2  A    between atoms: C_2  and  C_3
REMARK    3  A    between atoms: C_3  and  C_4
REMARK    4  A    between atoms: C_3  and  N_6
REMARK    5  A    between atoms: C_4  and  C_5
REMARK    6  A    between atoms: C_13  and  O_14
REMARK    7  A    between atoms: O_14  and  C_15
REMARK                            x       y       z     vdW  Elec       q    Type
REMARK                         _______ _______ _______ _____ _____    ______ ____
ROOT
ATOM      1  N   UNL     1       5.417   4.760  17.873  0.00  0.00    +0.000 N 
ATOM      2  C   UNL     1       6.535   5.233  18.578  0.00  0.00    +0.000 A 
ATOM      3  O   UNL     1       6.645   5.403  19.779  0.00  0.00    +0.000 OA
ATOM      4  N   UNL     1       7.543   5.493  17.632  0.00  0.00    +0.000 N 
ATOM      5  C   UNL     1       7.068   5.157  16.377  0.00  0.00    +0.000 A 
ATOM      6  N   UNL     1       7.714   5.248  15.208  0.00  0.00    +0.000 NA
ATOM      7  C   UNL     1       6.953   4.812  14.162  0.00  0.00    +0.000 A 
ATOM      8  C   UNL     1       5.647   4.318  14.306  0.00  0.00    +0.000 A 
ATOM      9  N   UNL     1       5.023   4.244  15.503  0.00  0.00    +0.000 NA
ATOM     10  C   UNL     1       5.768   4.682  16.521  0.00  0.00    +0.000 A 
ATOM     11  H   UNL     1       8.462   5.849  17.833  0.00  0.00    +0.000 HD
ENDROOT
BRANCH   8  12
ATOM     12  O   UNL     1       4.983   3.892  13.177  0.00  0.00    +0.000 OA
ATOM     13  C   UNL     1       5.867   3.306  12.217  0.00  0.00    +0.000 C 
ENDBRANCH   8  12
BRANCH   1  14
ATOM     14  C   UNL     1       4.139   4.353  18.450  0.00  0.00    +0.000 C 
BRANCH  14  16
ATOM     15  C   UNL     1       1.629   4.296  17.794  0.00  0.00    +0.000 C 
ATOM     16  C   UNL     1       2.926   5.090  17.830  0.00  0.00    +0.000 C 
ENDBRANCH  14  16
BRANCH  14  17
ATOM     17  C   UNL     1       3.997   2.818  18.522  0.00  0.00    +0.000 C 
ATOM     18  C   UNL     1       4.128   2.210  19.910  0.00  0.00    +0.000 C 
ENDBRANCH  14  17
ENDBRANCH   1  14
TORSDOF 4
ENDMDL
MODEL 2
REMARK VINA RESULT:      -6.5      0.478      1.625
REMARK  Name = 
REMARK  7 active torsions:
REMARK  status: ('A' for Active; 'I' for Inactive)
REMARK    1  A    between atoms: C_1  and  C_2
REMARK    2  A    between atoms: C_2  and  C_3
REMARK    3  A    between atoms: C_3  and  C_4
REMARK    4  A    between atoms: C_3  and  N_6
REMARK    5  A    between atoms: C_4  and  C_5
REMARK    6  A    between atoms: C_13  and  O_14
REMARK    7  A    between atoms: O_14  and  C_15
REMARK                            x       y       z     vdW  Elec       q    Type
REMARK                         _______ _______ _______ _____ _____    ______ ____
ROOT
ATOM      1  N   UNL     1       5.332   4.404  17.803  0.00  0.00    +0.000 N 
ATOM      2  C   UNL     1       6.324   5.022  18.581  0.00  0.00    +0.000 A 
ATOM      3  O   UNL     1       6.359   5.139  19.793  0.00  0.00    +0.000 OA
ATOM      4  N   UNL     1       7.304   5.507  17.696  0.00  0.00    +0.000 N 
ATOM      5  C   UNL     1       6.940   5.167  16.406  0.00  0.00    +0.000 A 
ATOM      6  N   UNL     1       7.602   5.436  15.273  0.00  0.00    +0.000 NA
ATOM      7  C   UNL     1       6.967   4.936  14.173  0.00  0.00    +0.000 A 
ATOM      8  C   UNL     1       5.764   4.215  14.232  0.00  0.00    +0.000 A 
ATOM      9  N   UNL     1       5.121   3.965  15.395  0.00  0.00    +0.000 NA
ATOM     10  C   UNL     1       5.740   4.466  16.466  0.00  0.00    +0.000 A 
ATOM     11  H   UNL     1       8.138   6.005  17.957  0.00  0.00    +0.000 HD
ENDROOT
BRANCH   8  12
ATOM     12  O   UNL     1       5.227   3.746  13.054  0.00  0.00    +0.000 OA
ATOM     13  C   UNL     1       6.224   3.209  12.180  0.00  0.00    +0.000 C 
ENDBRANCH   8  12
BRANCH   1  14
ATOM     14  C   UNL     1       4.126   3.748  18.300  0.00  0.00    +0.000 C 
BRANCH  14  16
ATOM     15  C   UNL     1       3.269   2.675  20.502  0.00  0.00    +0.000 C 
ATOM     16  C   UNL     1       4.396   2.791  19.487  0.00  0.00    +0.000 C 
ENDBRANCH  14  16
BRANCH  14  17
ATOM     17  C   UNL     1       2.972   4.748  18.525  0.00  0.00    +0.000 C 
ATOM     18  C   UNL     1       1.721   4.505  17.696  0.00  0.00    +0.000 C 
ENDBRANCH  14  17
ENDBRANCH   1  14
TORSDOF 4
ENDMDL
MODEL 3
REMARK VINA RESULT:      -6.5      1.490      2.280
REMARK  Name = 
REMARK  7 active torsions:
REMARK  status: ('A' for Active; 'I' for Inactive)
REMARK    1  A    between atoms: C_1  and  C_2
REMARK    2  A    between atoms: C_2  and  C_3
REMARK    3  A    between atoms: C_3  and  C_4
REMARK    4  A    between atoms: C_3  and  N_6
REMARK    5  A    between atoms: C_4  and  C_5
REMARK    6  A    between atoms: C_13  and  O_14
REMARK    7  A    between atoms: O_14  and  C_15
REMARK                            x       y       z     vdW  Elec       q    Type
REMARK                         _______ _______ _______ _____ _____    ______ ____
ROOT
ATOM      1  N   UNL     1       4.179   3.917  17.817  0.00  0.00    +0.000 N 
ATOM      2  C   UNL     1       4.716   3.814  19.109  0.00  0.00    +0.000 A 
ATOM      3  O   UNL     1       4.131   3.544  20.143  0.00  0.00    +0.000 OA
ATOM      4  N   UNL     1       6.092   4.087  19.011  0.00  0.00    +0.000 N 
ATOM      5  C   UNL     1       6.401   4.323  17.683  0.00  0.00    +0.000 A 
ATOM      6  N   UNL     1       7.599   4.614  17.162  0.00  0.00    +0.000 NA
ATOM      7  C   UNL     1       7.551   4.767  15.807  0.00  0.00    +0.000 A 
ATOM      8  C   UNL     1       6.376   4.624  15.052  0.00  0.00    +0.000 A 
ATOM      9  N   UNL     1       5.181   4.332  15.612  0.00  0.00    +0.000 NA
ATOM     10  C   UNL     1       5.232   4.195  16.939  0.00  0.00    +0.000 A 
ATOM     11  H   UNL     1       6.747   4.097  19.773  0.00  0.00    +0.000 HD
ENDROOT
BRANCH   8  12
ATOM     12  O   UNL     1       6.455   4.787  13.687  0.00  0.00    +0.000 OA
ATOM     13  C   UNL     1       6.112   3.592  12.978  0.00  0.00    +0.000 C 
ENDBRANCH   8  12
BRANCH   1  14
ATOM     14  C   UNL     1       2.784   3.703  17.440  0.00  0.00    +0.000 C 
BRANCH  14  16
ATOM     15  C   UNL     1       1.138   2.183  18.749  0.00  0.00    +0.000 C 
ATOM     16  C   UNL     1       2.281   2.272  17.749  0.00  0.00    +0.000 C 
ENDBRANCH  14  16
BRANCH  14  17
ATOM     17  C   UNL     1       1.866   4.836  17.946  0.00  0.00    +0.000 C 
ATOM     18  C   UNL     1       2.494   6.221  17.990  0.00  0.00    +0.000 C 
ENDBRANCH  14  17
ENDBRANCH   1  14
TORSDOF 4
ENDMDL
MODEL 4
REMARK VINA RESULT:      -6.5      2.445      4.129
REMARK  Name = 
REMARK  7 active torsions:
REMARK  status: ('A' for Active; 'I' for Inactive)
REMARK    1  A    between atoms: C_1  and  C_2
REMARK    2  A    between atoms: C_2  and  C_3
REMARK    3  A    between atoms: C_3  and  C_4
REMARK    4  A    between atoms: C_3  and  N_6
REMARK    5  A    between atoms: C_4  and  C_5
REMARK    6  A    between atoms: C_13  and  O_14
REMARK    7  A    between atoms: O_14  and  C_15
REMARK                            x       y       z     vdW  Elec       q    Type
REMARK                         _______ _______ _______ _____ _____    ______ ____
ROOT
ATOM      1  N   UNL     1       3.172   3.871  18.898  0.00  0.00    +0.000 N 
ATOM      2  C   UNL     1       2.219   3.619  17.898  0.00  0.00    +0.000 A 
ATOM      3  O   UNL     1       1.023   3.433  18.036  0.00  0.00    +0.000 OA
ATOM      4  N   UNL     1       2.899   3.612  16.667  0.00  0.00    +0.000 N 
ATOM      5  C   UNL     1       4.235   3.884  16.900  0.00  0.00    +0.000 A 
ATOM      6  N   UNL     1       5.220   3.974  15.997  0.00  0.00    +0.000 NA
ATOM      7  C   UNL     1       6.420   4.277  16.570  0.00  0.00    +0.000 A 
ATOM      8  C   UNL     1       6.593   4.480  17.949  0.00  0.00    +0.000 A 
ATOM      9  N   UNL     1       5.575   4.378  18.833  0.00  0.00    +0.000 NA
ATOM     10  C   UNL     1       4.405   4.070  18.268  0.00  0.00    +0.000 A 
ATOM     11  H   UNL     1       2.484   3.450  15.766  0.00  0.00    +0.000 HD
ENDROOT
BRANCH   8  12
ATOM     12  O   UNL     1       7.851   4.797  18.409  0.00  0.00    +0.000 OA
ATOM     13  C   UNL     1       7.854   5.986  19.205  0.00  0.00    +0.000 C 
ENDBRANCH   8  12
BRANCH   1  14
ATOM     14  C   UNL     1       2.915   3.979  20.331  0.00  0.00    +0.000 C 
BRANCH  14  16
ATOM     15  C   UNL     1       2.277   6.489  20.159  0.00  0.00    +0.000 C 
ATOM     16  C   UNL     1       1.918   5.109  20.689  0.00  0.00    +0.000 C 
ENDBRANCH  14  16
BRANCH  14  17
ATOM     17  C   UNL     1       2.598   2.610  20.968  0.00  0.00    +0.000 C 
ATOM     18  C   UNL     1       1.355   2.564  21.844  0.00  0.00    +0.000 C 
ENDBRANCH  14  17
ENDBRANCH   1  14
TORSDOF 4
ENDMDL
MODEL 5
REMARK VINA RESULT:      -6.3      2.450      5.498
REMARK  Name = 
REMARK  7 active torsions:
REMARK  status: ('A' for Active; 'I' for Inactive)
REMARK    1  A    between atoms: C_1  and  C_2
REMARK    2  A    between atoms: C_2  and  C_3
REMARK    3  A    between atoms: C_3  and  C_4
REMARK    4  A    between atoms: C_3  and  N_6
REMARK    5  A    between atoms: C_4  and  C_5
REMARK    6  A    between atoms: C_13  and  O_14
REMARK    7  A    between atoms: O_14  and  C_15
REMARK                            x       y       z     vdW  Elec       q    Type
REMARK                         _______ _______ _______ _____ _____    ______ ____
ROOT
ATOM      1  N   UNL     1       4.990   5.220  17.486  0.00  0.00    +0.000 N 
ATOM      2  C   UNL     1       4.683   6.486  16.961  0.00  0.00    +0.000 A 
ATOM      3  O   UNL     1       5.208   7.051  16.018  0.00  0.00    +0.000 OA
ATOM      4  N   UNL     1       3.635   7.014  17.736  0.00  0.00    +0.000 N 
ATOM      5  C   UNL     1       3.283   6.083  18.696  0.00  0.00    +0.000 A 
ATOM      6  N   UNL     1       2.328   6.191  19.628  0.00  0.00    +0.000 NA
ATOM      7  C   UNL     1       2.234   5.073  20.405  0.00  0.00    +0.000 A 
ATOM      8  C   UNL     1       3.043   3.938  20.232  0.00  0.00    +0.000 A 
ATOM      9  N   UNL     1       4.001   3.865  19.281  0.00  0.00    +0.000 NA
ATOM     10  C   UNL     1       4.096   4.966  18.532  0.00  0.00    +0.000 A 
ATOM     11  H   UNL     1       3.202   7.912  17.606  0.00  0.00    +0.000 HD
ENDROOT
BRANCH   8  12
ATOM     12  O   UNL     1       2.844   2.863  21.068  0.00  0.00    +0.000 OA
ATOM     13  C   UNL     1       1.497   2.787  21.543  0.00  0.00    +0.000 C 
ENDBRANCH   8  12
BRANCH   1  14
ATOM     14  C   UNL     1       6.009   4.301  16.989  0.00  0.00    +0.000 C 
BRANCH  14  16
ATOM     15  C   UNL     1       6.672   4.335  14.480  0.00  0.00    +0.000 C 
ATOM     16  C   UNL     1       5.731   3.802  15.549  0.00  0.00    +0.000 C 
ENDBRANCH  14  16
BRANCH  14  17
ATOM     17  C   UNL     1       7.438   4.836  17.224  0.00  0.00    +0.000 C 
ATOM     18  C   UNL     1       7.694   5.446  18.593  0.00  0.00    +0.000 C 
ENDBRANCH  14  17
ENDBRANCH   1  14
TORSDOF 4
ENDMDL
MODEL 6
REMARK VINA RESULT:      -6.3      2.336      4.763
REMARK  Name = 
REMARK  7 active torsions:
REMARK  status: ('A' for Active; 'I' for Inactive)
REMARK    1  A    between atoms: C_1  and  C_2
REMARK    2  A    between atoms: C_2  and  C_3
REMARK    3  A    between atoms: C_3  and  C_4
REMARK    4  A    between atoms: C_3  and  N_6
REMARK    5  A    between atoms: C_4  and  C_5
REMARK    6  A    between atoms: C_13  and  O_14
REMARK    7  A    between atoms: O_14  and  C_15
REMARK                            x       y       z     vdW  Elec       q    Type
REMARK                         _______ _______ _______ _____ _____    ______ ____
ROOT
ATOM      1  N   UNL     1       5.558   4.401  16.717  0.00  0.00    +0.000 N 
ATOM      2  C   UNL     1       6.697   4.557  17.523  0.00  0.00    +0.000 A 
ATOM      3  O   UNL     1       7.774   5.033  17.210  0.00  0.00    +0.000 OA
ATOM      4  N   UNL     1       6.379   4.050  18.795  0.00  0.00    +0.000 N 
ATOM      5  C   UNL     1       5.064   3.620  18.783  0.00  0.00    +0.000 A 
ATOM      6  N   UNL     1       4.372   3.078  19.793  0.00  0.00    +0.000 NA
ATOM      7  C   UNL     1       3.086   2.786  19.440  0.00  0.00    +0.000 A 
ATOM      8  C   UNL     1       2.555   3.037  18.165  0.00  0.00    +0.000 A 
ATOM      9  N   UNL     1       3.285   3.584  17.167  0.00  0.00    +0.000 NA
ATOM     10  C   UNL     1       4.545   3.857  17.513  0.00  0.00    +0.000 A 
ATOM     11  H   UNL     1       6.997   4.017  19.588  0.00  0.00    +0.000 HD
ENDROOT
BRANCH   8  12
ATOM     12  O   UNL     1       1.237   2.713  17.932  0.00  0.00    +0.000 OA
ATOM     13  C   UNL     1       0.496   2.556  19.145  0.00  0.00    +0.000 C 
ENDBRANCH   8  12
BRANCH   1  14
ATOM     14  C   UNL     1       5.426   4.800  15.319  0.00  0.00    +0.000 C 
BRANCH  14  16
ATOM     15  C   UNL     1       4.737   7.094  16.316  0.00  0.00    +0.000 C 
ATOM     16  C   UNL     1       5.306   6.332  15.129  0.00  0.00    +0.000 C 
ENDBRANCH  14  16
BRANCH  14  17
ATOM     17  C   UNL     1       6.477   4.117  14.418  0.00  0.00    +0.000 C 
ATOM     18  C   UNL     1       5.976   3.652  13.059  0.00  0.00    +0.000 C 
ENDBRANCH  14  17
ENDBRANCH   1  14
TORSDOF 4
ENDMDL
MODEL 7
REMARK VINA RESULT:      -6.2      3.136      3.937
REMARK  Name = 
REMARK  7 active torsions:
REMARK  status: ('A' for Active; 'I' for Inactive)
REMARK    1  A    between atoms: C_1  and  C_2
REMARK    2  A    between atoms: C_2  and  C_3
REMARK    3  A    between atoms: C_3  and  C_4
REMARK    4  A    between atoms: C_3  and  N_6
REMARK    5  A    between atoms: C_4  and  C_5
REMARK    6  A    between atoms: C_13  and  O_14
REMARK    7  A    between atoms: O_14  and  C_15
REMARK                            x       y       z     vdW  Elec       q    Type
REMARK                         _______ _______ _______ _____ _____    ______ ____
ROOT
ATOM      1  N   UNL     1       3.616   4.027  19.381  0.00  0.00    +0.000 N 
ATOM      2  C   UNL     1       4.753   3.228  19.576  0.00  0.00    +0.000 A 
ATOM      3  O   UNL     1       4.826   2.160  20.157  0.00  0.00    +0.000 OA
ATOM      4  N   UNL     1       5.836   3.892  18.972  0.00  0.00    +0.000 N 
ATOM      5  C   UNL     1       5.370   5.057  18.391  0.00  0.00    +0.000 A 
ATOM      6  N   UNL     1       6.076   5.971  17.712  0.00  0.00    +0.000 NA
ATOM      7  C   UNL     1       5.296   6.993  17.257  0.00  0.00    +0.000 A 
ATOM      8  C   UNL     1       3.910   7.067  17.471  0.00  0.00    +0.000 A 
ATOM      9  N   UNL     1       3.229   6.126  18.164  0.00  0.00    +0.000 NA
ATOM     10  C   UNL     1       3.999   5.134  18.617  0.00  0.00    +0.000 A 
ATOM     11  H   UNL     1       6.788   3.569  18.951  0.00  0.00    +0.000 HD
ENDROOT
BRANCH   8  12
ATOM     12  O   UNL     1       3.225   8.141  16.948  0.00  0.00    +0.000 OA
ATOM     13  C   UNL     1       2.186   8.597  17.819  0.00  0.00    +0.000 C 
ENDBRANCH   8  12
BRANCH   1  14
ATOM     14  C   UNL     1       2.260   3.726  19.830  0.00  0.00    +0.000 C 
BRANCH  14  16
ATOM     15  C   UNL     1       2.189   2.210  17.725  0.00  0.00    +0.000 C 
ATOM     16  C   UNL     1       1.634   2.506  19.110  0.00  0.00    +0.000 C 
ENDBRANCH  14  16
BRANCH  14  17
ATOM     17  C   UNL     1       2.151   3.694  21.369  0.00  0.00    +0.000 C 
ATOM     18  C   UNL     1       1.472   2.466  21.956  0.00  0.00    +0.000 C 
ENDBRANCH  14  17
ENDBRANCH   1  14
TORSDOF 4
ENDMDL
MODEL 8
REMARK VINA RESULT:      -6.1      3.022      5.516
REMARK  Name = 
REMARK  7 active torsions:
REMARK  status: ('A' for Active; 'I' for Inactive)
REMARK    1  A    between atoms: C_1  and  C_2
REMARK    2  A    between atoms: C_2  and  C_3
REMARK    3  A    between atoms: C_3  and  C_4
REMARK    4  A    between atoms: C_3  and  N_6
REMARK    5  A    between atoms: C_4  and  C_5
REMARK    6  A    between atoms: C_13  and  O_14
REMARK    7  A    between atoms: O_14  and  C_15
REMARK                            x       y       z     vdW  Elec       q    Type
REMARK                         _______ _______ _______ _____ _____    ______ ____
ROOT
ATOM      1  N   UNL     1       4.716   5.512  17.963  0.00  0.00    +0.000 N 
ATOM      2  C   UNL     1       4.764   4.619  19.044  0.00  0.00    +0.000 A 
ATOM      3  O   UNL     1       5.491   3.651  19.183  0.00  0.00    +0.000 OA
ATOM      4  N   UNL     1       3.795   5.037  19.973  0.00  0.00    +0.000 N 
ATOM      5  C   UNL     1       3.186   6.181  19.490  0.00  0.00    +0.000 A 
ATOM      6  N   UNL     1       2.215   6.898  20.070  0.00  0.00    +0.000 NA
ATOM      7  C   UNL     1       1.857   7.983  19.324  0.00  0.00    +0.000 A 
ATOM      8  C   UNL     1       2.450   8.309  18.094  0.00  0.00    +0.000 A 
ATOM      9  N   UNL     1       3.427   7.560  17.536  0.00  0.00    +0.000 NA
ATOM     10  C   UNL     1       3.765   6.493  18.264  0.00  0.00    +0.000 A 
ATOM     11  H   UNL     1       3.587   4.591  20.850  0.00  0.00    +0.000 HD
ENDROOT
BRANCH   8  12
ATOM     12  O   UNL     1       2.015   9.440  17.440  0.00  0.00    +0.000 OA
ATOM     13  C   UNL     1       1.007  10.138  18.178  0.00  0.00    +0.000 C 
ENDBRANCH   8  12
BRANCH   1  14
ATOM     14  C   UNL     1       5.555   5.471  16.768  0.00  0.00    +0.000 C 
BRANCH  14  16
ATOM     15  C   UNL     1       7.410   7.139  17.484  0.00  0.00    +0.000 C 
ATOM     16  C   UNL     1       7.054   5.720  17.067  0.00  0.00    +0.000 C 
ENDBRANCH  14  16
BRANCH  14  17
ATOM     17  C   UNL     1       5.265   4.231  15.897  0.00  0.00    +0.000 C 
ATOM     18  C   UNL     1       6.206   4.020  14.721  0.00  0.00    +0.000 C 
ENDBRANCH  14  17
ENDBRANCH   1  14
TORSDOF 4
ENDMDL
MODEL 9
REMARK VINA RESULT:      -6.1      3.017      3.857
REMARK  Name = 
REMARK  7 active torsions:
REMARK  status: ('A' for Active; 'I' for Inactive)
REMARK    1  A    between atoms: C_1  and  C_2
REMARK    2  A    between atoms: C_2  and  C_3
REMARK    3  A    between atoms: C_3  and  C_4
REMARK    4  A    between atoms: C_3  and  N_6
REMARK    5  A    between atoms: C_4  and  C_5
REMARK    6  A    between atoms: C_13  and  O_14
REMARK    7  A    between atoms: O_14  and  C_15
REMARK                            x       y       z     vdW  Elec       q    Type
REMARK                         _______ _______ _______ _____ _____    ______ ____
ROOT
ATOM      1  N   UNL     1       3.790   4.484  18.914  0.00  0.00    +0.000 N 
ATOM      2  C   UNL     1       4.117   3.222  19.434  0.00  0.00    +0.000 A 
ATOM      3  O   UNL     1       3.361   2.382  19.889  0.00  0.00    +0.000 OA
ATOM      4  N   UNL     1       5.514   3.085  19.346  0.00  0.00    +0.000 N 
ATOM      5  C   UNL     1       6.032   4.224  18.756  0.00  0.00    +0.000 A 
ATOM      6  N   UNL     1       7.316   4.491  18.485  0.00  0.00    +0.000 NA
ATOM      7  C   UNL     1       7.475   5.704  17.879  0.00  0.00    +0.000 A 
ATOM      8  C   UNL     1       6.408   6.562  17.570  0.00  0.00    +0.000 A 
ATOM      9  N   UNL     1       5.122   6.260  17.862  0.00  0.00    +0.000 NA
ATOM     10  C   UNL     1       4.974   5.079  18.465  0.00  0.00    +0.000 A 
ATOM     11  H   UNL     1       6.048   2.288  19.647  0.00  0.00    +0.000 HD
ENDROOT
BRANCH   8  12
ATOM     12  O   UNL     1       6.691   7.755  16.943  0.00  0.00    +0.000 OA
ATOM     13  C   UNL     1       7.754   8.465  17.585  0.00  0.00    +0.000 C 
ENDBRANCH   8  12
BRANCH   1  14
ATOM     14  C   UNL     1       2.450   5.050  18.795  0.00  0.00    +0.000 C 
BRANCH  14  16
ATOM     15  C   UNL     1       0.625   3.224  18.526  0.00  0.00    +0.000 C 
ATOM     16  C   UNL     1       1.528   4.243  17.848  0.00  0.00    +0.000 C 
ENDBRANCH  14  16
BRANCH  14  17
ATOM     17  C   UNL     1       1.834   5.380  20.171  0.00  0.00    +0.000 C 
ATOM     18  C   UNL     1       1.793   6.856  20.536  0.00  0.00    +0.000 C 
ENDBRANCH  14  17
ENDBRANCH   1  14
TORSDOF 4
ENDMDL
