MODEL 1
REMARK VINA RESULT:      -7.0      0.000      0.000
REMARK  Name = 
REMARK  8 active torsions:
REMARK  status: ('A' for Active; 'I' for Inactive)
REMARK    1  A    between atoms: C_1  and  C_2
REMARK    2  A    between atoms: C_2  and  C_3
REMARK    3  A    between atoms: C_2  and  C_4
REMARK    4  A    between atoms: C_2  and  O_5
REMARK    5  A    between atoms: O_5  and  C_6
REMARK    6  A    between atoms: C_15  and  C_16
REMARK    7  A    between atoms: C_20  and  C_21
REMARK    8  A    between atoms: C_21  and  O_23
REMARK                            x       y       z     vdW  Elec       q    Type
REMARK                         _______ _______ _______ _____ _____    ______ ____
ROOT
ATOM      1  C   UNL     1       1.027  10.250  19.581  0.00  0.00    +0.000 A 
ATOM      2  C   UNL     1       1.886  10.392  18.480  0.00  0.00    +0.000 A 
ATOM      3 CL   UNL     1       2.485  11.865  17.813  0.00  0.00    +0.000 Cl
ATOM      4  C   UNL     1       2.468   9.282  17.881  0.00  0.00    +0.000 A 
ATOM      5  C   UNL     1       2.395   8.033  18.477  0.00  0.00    +0.000 A 
ATOM      6  C   UNL     1       1.722   7.871  19.675  0.00  0.00    +0.000 A 
ATOM      7  C   UNL     1       1.001   8.969  20.209  0.00  0.00    +0.000 A 
ATOM      8 CL   UNL     1       0.086   8.737  21.669  0.00  0.00    +0.000 Cl
ATOM      9  O   UNL     1       1.768   6.686  20.364  0.00  0.00    +0.000 OA
ATOM     10  C   UNL     1       2.607   5.590  19.871  0.00  0.00    +0.000 C 
ATOM     11  C   UNL     1       3.334   5.843  18.574  0.00  0.00    +0.000 C 
ATOM     12  C   UNL     1       3.182   6.976  17.882  0.00  0.00    +0.000 C 
ENDROOT
BRANCH  10  13
ATOM     13  C   UNL     1       1.748   4.312  19.805  0.00  0.00    +0.000 C 
ATOM     14  F   UNL     1       2.432   3.183  20.080  0.00  0.00    +0.000 F 
ATOM     15  F   UNL     1       0.702   4.372  20.674  0.00  0.00    +0.000 F 
ATOM     16  F   UNL     1       1.194   4.166  18.577  0.00  0.00    +0.000 F 
ENDBRANCH  10  13
BRANCH  11  17
ATOM     17  C   UNL     1       4.405   4.961  18.052  0.00  0.00    +0.000 C 
ATOM     18  O   UNL     1       5.425   4.707  18.669  0.00  0.00    +0.000 OA
BRANCH  17  19
ATOM     19  O   UNL     1       4.114   4.372  16.883  0.00  0.00    +0.000 OA
ATOM     20  H   UNL     1       3.651   4.951  16.246  0.00  0.00    +0.000 HD
ENDBRANCH  17  19
ENDBRANCH  11  17
BRANCH   1  21
ATOM     21  O   UNL     1       0.261  11.236  20.160  0.00  0.00    +0.000 OA
BRANCH  21  23
ATOM     22  C   UNL     1      -1.742  10.756  18.700  0.00  0.00    +0.000 C 
ATOM     23  C   UNL     1      -0.937  11.769  19.539  0.00  0.00    +0.000 C 
ATOM     24  C   UNL     1      -0.595  13.099  18.846  0.00  0.00    +0.000 C 
ATOM     25  C   UNL     1      -1.911  12.184  20.673  0.00  0.00    +0.000 C 
ENDBRANCH  21  23
ENDBRANCH   1  21
TORSDOF 5
ENDMDL
MODEL 2
REMARK VINA RESULT:      -6.9      0.118      1.176
REMARK  Name = 
REMARK  8 active torsions:
REMARK  status: ('A' for Active; 'I' for Inactive)
REMARK    1  A    between atoms: C_1  and  C_2
REMARK    2  A    between atoms: C_2  and  C_3
REMARK    3  A    between atoms: C_2  and  C_4
REMARK    4  A    between atoms: C_2  and  O_5
REMARK    5  A    between atoms: O_5  and  C_6
REMARK    6  A    between atoms: C_15  and  C_16
REMARK    7  A    between atoms: C_20  and  C_21
REMARK    8  A    between atoms: C_21  and  O_23
REMARK                            x       y       z     vdW  Elec       q    Type
REMARK                         _______ _______ _______ _____ _____    ______ ____
ROOT
ATOM      1  C   UNL     1       0.993  10.274  19.596  0.00  0.00    +0.000 A 
ATOM      2  C   UNL     1       1.846  10.410  18.489  0.00  0.00    +0.000 A 
ATOM      3 CL   UNL     1       2.438  11.879  17.809  0.00  0.00    +0.000 Cl
ATOM      4  C   UNL     1       2.426   9.296  17.894  0.00  0.00    +0.000 A 
ATOM      5  C   UNL     1       2.358   8.051  18.499  0.00  0.00    +0.000 A 
ATOM      6  C   UNL     1       1.693   7.897  19.702  0.00  0.00    +0.000 A 
ATOM      7  C   UNL     1       0.973   8.998  20.232  0.00  0.00    +0.000 A 
ATOM      8 CL   UNL     1       0.067   8.774  21.699  0.00  0.00    +0.000 Cl
ATOM      9  O   UNL     1       1.744   6.716  20.399  0.00  0.00    +0.000 OA
ATOM     10  C   UNL     1       2.582   5.619  19.909  0.00  0.00    +0.000 C 
ATOM     11  C   UNL     1       3.301   5.864  18.606  0.00  0.00    +0.000 C 
ATOM     12  C   UNL     1       3.144   6.992  17.907  0.00  0.00    +0.000 C 
ENDROOT
BRANCH  10  13
ATOM     13  C   UNL     1       1.725   4.339  19.857  0.00  0.00    +0.000 C 
ATOM     14  F   UNL     1       1.200   4.085  18.641  0.00  0.00    +0.000 F 
ATOM     15  F   UNL     1       2.444   3.244  20.222  0.00  0.00    +0.000 F 
ATOM     16  F   UNL     1       0.698   4.411  20.739  0.00  0.00    +0.000 F 
ENDBRANCH  10  13
BRANCH  11  17
ATOM     17  C   UNL     1       4.371   4.980  18.083  0.00  0.00    +0.000 C 
ATOM     18  O   UNL     1       5.305   4.584  18.760  0.00  0.00    +0.000 OA
BRANCH  17  19
ATOM     19  O   UNL     1       4.172   4.557  16.827  0.00  0.00    +0.000 OA
ATOM     20  H   UNL     1       4.739   4.993  16.161  0.00  0.00    +0.000 HD
ENDBRANCH  17  19
ENDBRANCH  11  17
BRANCH   1  21
ATOM     21  O   UNL     1       0.229  11.262  20.172  0.00  0.00    +0.000 OA
BRANCH  21  23
ATOM     22  C   UNL     1      -2.037  12.269  20.644  0.00  0.00    +0.000 C 
ATOM     23  C   UNL     1      -1.036  11.706  19.616  0.00  0.00    +0.000 C 
ATOM     24  C   UNL     1      -1.576  10.622  18.669  0.00  0.00    +0.000 C 
ATOM     25  C   UNL     1      -0.742  12.904  18.675  0.00  0.00    +0.000 C 
ENDBRANCH  21  23
ENDBRANCH   1  21
TORSDOF 5
ENDMDL
MODEL 3
REMARK VINA RESULT:      -6.9      0.122      1.163
REMARK  Name = 
REMARK  8 active torsions:
REMARK  status: ('A' for Active; 'I' for Inactive)
REMARK    1  A    between atoms: C_1  and  C_2
REMARK    2  A    between atoms: C_2  and  C_3
REMARK    3  A    between atoms: C_2  and  C_4
REMARK    4  A    between atoms: C_2  and  O_5
REMARK    5  A    between atoms: O_5  and  C_6
REMARK    6  A    between atoms: C_15  and  C_16
REMARK    7  A    between atoms: C_20  and  C_21
REMARK    8  A    between atoms: C_21  and  O_23
REMARK                            x       y       z     vdW  Elec       q    Type
REMARK                         _______ _______ _______ _____ _____    ______ ____
ROOT
ATOM      1  C   UNL     1       1.006  10.291  19.572  0.00  0.00    +0.000 A 
ATOM      2  C   UNL     1       1.867  10.420  18.471  0.00  0.00    +0.000 A 
ATOM      3 CL   UNL     1       2.474  11.884  17.792  0.00  0.00    +0.000 Cl
ATOM      4  C   UNL     1       2.445   9.302  17.882  0.00  0.00    +0.000 A 
ATOM      5  C   UNL     1       2.365   8.059  18.489  0.00  0.00    +0.000 A 
ATOM      6  C   UNL     1       1.690   7.911  19.687  0.00  0.00    +0.000 A 
ATOM      7  C   UNL     1       0.973   9.017  20.210  0.00  0.00    +0.000 A 
ATOM      8 CL   UNL     1       0.055   8.802  21.671  0.00  0.00    +0.000 Cl
ATOM      9  O   UNL     1       1.729   6.731  20.387  0.00  0.00    +0.000 OA
ATOM     10  C   UNL     1       2.564   5.627  19.904  0.00  0.00    +0.000 C 
ATOM     11  C   UNL     1       3.293   5.865  18.607  0.00  0.00    +0.000 C 
ATOM     12  C   UNL     1       3.148   6.993  17.904  0.00  0.00    +0.000 C 
ENDROOT
BRANCH  10  13
ATOM     13  C   UNL     1       1.699   4.353  19.849  0.00  0.00    +0.000 C 
ATOM     14  F   UNL     1       0.648   4.373  20.693  0.00  0.00    +0.000 F 
ATOM     15  F   UNL     1       1.207   4.140  18.598  0.00  0.00    +0.000 F 
ATOM     16  F   UNL     1       2.438   3.255  20.142  0.00  0.00    +0.000 F 
ENDBRANCH  10  13
BRANCH  11  17
ATOM     17  C   UNL     1       4.361   4.973  18.094  0.00  0.00    +0.000 C 
ATOM     18  O   UNL     1       5.304   4.598  18.770  0.00  0.00    +0.000 OA
BRANCH  17  19
ATOM     19  O   UNL     1       4.151   4.521  16.850  0.00  0.00    +0.000 OA
ATOM     20  H   UNL     1       3.470   3.822  16.786  0.00  0.00    +0.000 HD
ENDBRANCH  17  19
ENDBRANCH  11  17
BRANCH   1  21
ATOM     21  O   UNL     1       0.244  11.286  20.140  0.00  0.00    +0.000 OA
BRANCH  21  23
ATOM     22  C   UNL     1      -0.717  12.910  18.465  0.00  0.00    +0.000 C 
ATOM     23  C   UNL     1      -0.957  11.811  19.519  0.00  0.00    +0.000 C 
ATOM     24  C   UNL     1      -1.988  12.137  20.612  0.00  0.00    +0.000 C 
ATOM     25  C   UNL     1      -1.618  10.656  18.721  0.00  0.00    +0.000 C 
ENDBRANCH  21  23
ENDBRANCH   1  21
TORSDOF 5
ENDMDL
MODEL 4
REMARK VINA RESULT:      -6.9      0.210      1.334
REMARK  Name = 
REMARK  8 active torsions:
REMARK  status: ('A' for Active; 'I' for Inactive)
REMARK    1  A    between atoms: C_1  and  C_2
REMARK    2  A    between atoms: C_2  and  C_3
REMARK    3  A    between atoms: C_2  and  C_4
REMARK    4  A    between atoms: C_2  and  O_5
REMARK    5  A    between atoms: O_5  and  C_6
REMARK    6  A    between atoms: C_15  and  C_16
REMARK    7  A    between atoms: C_20  and  C_21
REMARK    8  A    between atoms: C_21  and  O_23
REMARK                            x       y       z     vdW  Elec       q    Type
REMARK                         _______ _______ _______ _____ _____    ______ ____
ROOT
ATOM      1  C   UNL     1       0.997  10.346  19.635  0.00  0.00    +0.000 A 
ATOM      2  C   UNL     1       1.819  10.496  18.507  0.00  0.00    +0.000 A 
ATOM      3 CL   UNL     1       2.401  11.972  17.834  0.00  0.00    +0.000 Cl
ATOM      4  C   UNL     1       2.376   9.389  17.878  0.00  0.00    +0.000 A 
ATOM      5  C   UNL     1       2.318   8.135  18.464  0.00  0.00    +0.000 A 
ATOM      6  C   UNL     1       1.686   7.964  19.683  0.00  0.00    +0.000 A 
ATOM      7  C   UNL     1       0.988   9.060  20.251  0.00  0.00    +0.000 A 
ATOM      8 CL   UNL     1       0.123   8.817  21.740  0.00  0.00    +0.000 Cl
ATOM      9  O   UNL     1       1.750   6.772  20.359  0.00  0.00    +0.000 OA
ATOM     10  C   UNL     1       2.567   5.678  19.827  0.00  0.00    +0.000 C 
ATOM     11  C   UNL     1       3.250   5.940  18.508  0.00  0.00    +0.000 C 
ATOM     12  C   UNL     1       3.080   7.081  17.832  0.00  0.00    +0.000 C 
ENDROOT
BRANCH  10  13
ATOM     13  C   UNL     1       1.701   4.404  19.779  0.00  0.00    +0.000 C 
ATOM     14  F   UNL     1       0.678   4.410  20.657  0.00  0.00    +0.000 F 
ATOM     15  F   UNL     1       1.169   4.211  18.541  0.00  0.00    +0.000 F 
ATOM     16  F   UNL     1       2.450   3.302  20.030  0.00  0.00    +0.000 F 
ENDBRANCH  10  13
BRANCH  11  17
ATOM     17  C   UNL     1       4.299   5.059  17.941  0.00  0.00    +0.000 C 
ATOM     18  O   UNL     1       4.078   4.217  17.087  0.00  0.00    +0.000 OA
BRANCH  17  19
ATOM     19  O   UNL     1       5.540   5.336  18.364  0.00  0.00    +0.000 OA
ATOM     20  H   UNL     1       5.631   5.387  19.336  0.00  0.00    +0.000 HD
ENDBRANCH  17  19
ENDBRANCH  11  17
BRANCH   1  21
ATOM     21  O   UNL     1       0.256  11.329  20.249  0.00  0.00    +0.000 OA
BRANCH  21  23
ATOM     22  C   UNL     1      -2.032  12.198  20.867  0.00  0.00    +0.000 C 
ATOM     23  C   UNL     1      -1.047  11.749  19.769  0.00  0.00    +0.000 C 
ATOM     24  C   UNL     1      -1.577  10.705  18.773  0.00  0.00    +0.000 C 
ATOM     25  C   UNL     1      -0.842  13.018  18.899  0.00  0.00    +0.000 C 
ENDBRANCH  21  23
ENDBRANCH   1  21
TORSDOF 5
ENDMDL
MODEL 5
REMARK VINA RESULT:      -6.8      1.950      3.120
REMARK  Name = 
REMARK  8 active torsions:
REMARK  status: ('A' for Active; 'I' for Inactive)
REMARK    1  A    between atoms: C_1  and  C_2
REMARK    2  A    between atoms: C_2  and  C_3
REMARK    3  A    between atoms: C_2  and  C_4
REMARK    4  A    between atoms: C_2  and  O_5
REMARK    5  A    between atoms: O_5  and  C_6
REMARK    6  A    between atoms: C_15  and  C_16
REMARK    7  A    between atoms: C_20  and  C_21
REMARK    8  A    between atoms: C_21  and  O_23
REMARK                            x       y       z     vdW  Elec       q    Type
REMARK                         _______ _______ _______ _____ _____    ______ ____
ROOT
ATOM      1  C   UNL     1       1.081   9.689  20.234  0.00  0.00    +0.000 A 
ATOM      2  C   UNL     1       0.676   8.943  21.353  0.00  0.00    +0.000 A 
ATOM      3 CL   UNL     1      -0.407   9.444  22.597  0.00  0.00    +0.000 Cl
ATOM      4  C   UNL     1       1.034   7.608  21.488  0.00  0.00    +0.000 A 
ATOM      5  C   UNL     1       1.609   6.916  20.434  0.00  0.00    +0.000 A 
ATOM      6  C   UNL     1       1.852   7.555  19.232  0.00  0.00    +0.000 A 
ATOM      7  C   UNL     1       1.628   8.952  19.142  0.00  0.00    +0.000 A 
ATOM      8 CL   UNL     1       2.016   9.767  17.656  0.00  0.00    +0.000 Cl
ATOM      9  O   UNL     1       2.271   6.859  18.126  0.00  0.00    +0.000 OA
ATOM     10  C   UNL     1       2.391   5.400  18.188  0.00  0.00    +0.000 C 
ATOM     11  C   UNL     1       2.085   4.765  19.521  0.00  0.00    +0.000 C 
ATOM     12  C   UNL     1       1.777   5.490  20.601  0.00  0.00    +0.000 C 
ENDROOT
BRANCH  10  13
ATOM     13  C   UNL     1       3.789   5.005  17.673  0.00  0.00    +0.000 C 
ATOM     14  F   UNL     1       3.810   3.837  17.000  0.00  0.00    +0.000 F 
ATOM     15  F   UNL     1       4.300   5.956  16.846  0.00  0.00    +0.000 F 
ATOM     16  F   UNL     1       4.668   4.902  18.698  0.00  0.00    +0.000 F 
ENDBRANCH  10  13
BRANCH  11  17
ATOM     17  C   UNL     1       1.915   3.304  19.711  0.00  0.00    +0.000 C 
ATOM     18  O   UNL     1       2.848   2.519  19.739  0.00  0.00    +0.000 OA
BRANCH  17  19
ATOM     19  O   UNL     1       0.655   2.924  19.961  0.00  0.00    +0.000 OA
ATOM     20  H   UNL     1      -0.005   3.284  19.336  0.00  0.00    +0.000 HD
ENDBRANCH  17  19
ENDBRANCH  11  17
BRANCH   1  21
ATOM     21  O   UNL     1       0.941  11.045  20.055  0.00  0.00    +0.000 OA
BRANCH  21  23
ATOM     22  C   UNL     1      -1.307  10.654  18.975  0.00  0.00    +0.000 C 
ATOM     23  C   UNL     1      -0.272  11.650  19.535  0.00  0.00    +0.000 C 
ATOM     24  C   UNL     1       0.105  12.822  18.614  0.00  0.00    +0.000 C 
ATOM     25  C   UNL     1      -1.004  12.332  20.721  0.00  0.00    +0.000 C 
ENDBRANCH  21  23
ENDBRANCH   1  21
TORSDOF 5
ENDMDL
MODEL 6
REMARK VINA RESULT:      -6.7      1.999      3.266
REMARK  Name = 
REMARK  8 active torsions:
REMARK  status: ('A' for Active; 'I' for Inactive)
REMARK    1  A    between atoms: C_1  and  C_2
REMARK    2  A    between atoms: C_2  and  C_3
REMARK    3  A    between atoms: C_2  and  C_4
REMARK    4  A    between atoms: C_2  and  O_5
REMARK    5  A    between atoms: O_5  and  C_6
REMARK    6  A    between atoms: C_15  and  C_16
REMARK    7  A    between atoms: C_20  and  C_21
REMARK    8  A    between atoms: C_21  and  O_23
REMARK                            x       y       z     vdW  Elec       q    Type
REMARK                         _______ _______ _______ _____ _____    ______ ____
ROOT
ATOM      1  C   UNL     1       1.064   9.498  20.169  0.00  0.00    +0.000 A 
ATOM      2  C   UNL     1       0.686   8.697  21.259  0.00  0.00    +0.000 A 
ATOM      3 CL   UNL     1      -0.453   9.091  22.491  0.00  0.00    +0.000 Cl
ATOM      4  C   UNL     1       1.128   7.384  21.367  0.00  0.00    +0.000 A 
ATOM      5  C   UNL     1       1.768   6.761  20.308  0.00  0.00    +0.000 A 
ATOM      6  C   UNL     1       1.994   7.448  19.129  0.00  0.00    +0.000 A 
ATOM      7  C   UNL     1       1.680   8.829  19.070  0.00  0.00    +0.000 A 
ATOM      8 CL   UNL     1       2.045   9.708  17.615  0.00  0.00    +0.000 Cl
ATOM      9  O   UNL     1       2.480   6.811  18.015  0.00  0.00    +0.000 OA
ATOM     10  C   UNL     1       2.694   5.361  18.041  0.00  0.00    +0.000 C 
ATOM     11  C   UNL     1       2.403   4.672  19.350  0.00  0.00    +0.000 C 
ATOM     12  C   UNL     1       2.026   5.345  20.442  0.00  0.00    +0.000 C 
ENDROOT
BRANCH  10  13
ATOM     13  C   UNL     1       4.125   5.072  17.547  0.00  0.00    +0.000 C 
ATOM     14  F   UNL     1       5.029   4.958  18.540  0.00  0.00    +0.000 F 
ATOM     15  F   UNL     1       4.177   3.924  16.820  0.00  0.00    +0.000 F 
ATOM     16  F   UNL     1       4.554   6.051  16.714  0.00  0.00    +0.000 F 
ENDBRANCH  10  13
BRANCH  11  17
ATOM     17  C   UNL     1       2.325   3.198  19.498  0.00  0.00    +0.000 C 
ATOM     18  O   UNL     1       1.413   2.526  19.048  0.00  0.00    +0.000 OA
BRANCH  17  19
ATOM     19  O   UNL     1       3.400   2.644  20.076  0.00  0.00    +0.000 OA
ATOM     20  H   UNL     1       4.072   2.317  19.446  0.00  0.00    +0.000 HD
ENDBRANCH  17  19
ENDBRANCH  11  17
BRANCH   1  21
ATOM     21  O   UNL     1       0.839  10.847  20.022  0.00  0.00    +0.000 OA
BRANCH  21  23
ATOM     22  C   UNL     1      -1.218  12.050  20.854  0.00  0.00    +0.000 C 
ATOM     23  C   UNL     1      -0.461  11.396  19.682  0.00  0.00    +0.000 C 
ATOM     24  C   UNL     1      -1.247  10.358  18.865  0.00  0.00    +0.000 C 
ATOM     25  C   UNL     1      -0.233  12.558  18.679  0.00  0.00    +0.000 C 
ENDBRANCH  21  23
ENDBRANCH   1  21
TORSDOF 5
ENDMDL
MODEL 7
REMARK VINA RESULT:      -6.7      1.929      3.214
REMARK  Name = 
REMARK  8 active torsions:
REMARK  status: ('A' for Active; 'I' for Inactive)
REMARK    1  A    between atoms: C_1  and  C_2
REMARK    2  A    between atoms: C_2  and  C_3
REMARK    3  A    between atoms: C_2  and  C_4
REMARK    4  A    between atoms: C_2  and  O_5
REMARK    5  A    between atoms: O_5  and  C_6
REMARK    6  A    between atoms: C_15  and  C_16
REMARK    7  A    between atoms: C_20  and  C_21
REMARK    8  A    between atoms: C_21  and  O_23
REMARK                            x       y       z     vdW  Elec       q    Type
REMARK                         _______ _______ _______ _____ _____    ______ ____
ROOT
ATOM      1  C   UNL     1       1.039   9.772  20.220  0.00  0.00    +0.000 A 
ATOM      2  C   UNL     1       0.640   9.041  21.351  0.00  0.00    +0.000 A 
ATOM      3 CL   UNL     1      -0.444   9.554  22.589  0.00  0.00    +0.000 Cl
ATOM      4  C   UNL     1       1.007   7.710  21.507  0.00  0.00    +0.000 A 
ATOM      5  C   UNL     1       1.584   7.006  20.463  0.00  0.00    +0.000 A 
ATOM      6  C   UNL     1       1.822   7.628  19.250  0.00  0.00    +0.000 A 
ATOM      7  C   UNL     1       1.589   9.022  19.139  0.00  0.00    +0.000 A 
ATOM      8 CL   UNL     1       1.970   9.815  17.639  0.00  0.00    +0.000 Cl
ATOM      9  O   UNL     1       2.244   6.917  18.155  0.00  0.00    +0.000 OA
ATOM     10  C   UNL     1       2.372   5.459  18.240  0.00  0.00    +0.000 C 
ATOM     11  C   UNL     1       2.073   4.844  19.583  0.00  0.00    +0.000 C 
ATOM     12  C   UNL     1       1.762   5.584  20.652  0.00  0.00    +0.000 C 
ENDROOT
BRANCH  10  13
ATOM     13  C   UNL     1       3.772   5.065  17.729  0.00  0.00    +0.000 C 
ATOM     14  F   UNL     1       4.311   5.960  16.876  0.00  0.00    +0.000 F 
ATOM     15  F   UNL     1       4.650   4.908  18.756  0.00  0.00    +0.000 F 
ATOM     16  F   UNL     1       3.734   3.868  17.095  0.00  0.00    +0.000 F 
ENDBRANCH  10  13
BRANCH  11  17
ATOM     17  C   UNL     1       1.912   3.385  19.797  0.00  0.00    +0.000 C 
ATOM     18  O   UNL     1       2.851   2.610  19.866  0.00  0.00    +0.000 OA
BRANCH  17  19
ATOM     19  O   UNL     1       0.649   2.996  20.017  0.00  0.00    +0.000 OA
ATOM     20  H   UNL     1       0.312   2.341  19.374  0.00  0.00    +0.000 HD
ENDBRANCH  17  19
ENDBRANCH  11  17
BRANCH   1  21
ATOM     21  O   UNL     1       0.890  11.124  20.020  0.00  0.00    +0.000 OA
BRANCH  21  23
ATOM     22  C   UNL     1      -1.052  12.513  20.839  0.00  0.00    +0.000 C 
ATOM     23  C   UNL     1      -0.384  11.735  19.688  0.00  0.00    +0.000 C 
ATOM     24  C   UNL     1      -1.266  10.701  18.969  0.00  0.00    +0.000 C 
ATOM     25  C   UNL     1      -0.120  12.813  18.603  0.00  0.00    +0.000 C 
ENDBRANCH  21  23
ENDBRANCH   1  21
TORSDOF 5
ENDMDL
MODEL 8
REMARK VINA RESULT:      -6.6      1.958      3.201
REMARK  Name = 
REMARK  8 active torsions:
REMARK  status: ('A' for Active; 'I' for Inactive)
REMARK    1  A    between atoms: C_1  and  C_2
REMARK    2  A    between atoms: C_2  and  C_3
REMARK    3  A    between atoms: C_2  and  C_4
REMARK    4  A    between atoms: C_2  and  O_5
REMARK    5  A    between atoms: O_5  and  C_6
REMARK    6  A    between atoms: C_15  and  C_16
REMARK    7  A    between atoms: C_20  and  C_21
REMARK    8  A    between atoms: C_21  and  O_23
REMARK                            x       y       z     vdW  Elec       q    Type
REMARK                         _______ _______ _______ _____ _____    ______ ____
ROOT
ATOM      1  C   UNL     1       1.079   9.670  20.321  0.00  0.00    +0.000 A 
ATOM      2  C   UNL     1       0.664   8.896  21.417  0.00  0.00    +0.000 A 
ATOM      3 CL   UNL     1      -0.423   9.367  22.668  0.00  0.00    +0.000 Cl
ATOM      4  C   UNL     1       1.014   7.555  21.517  0.00  0.00    +0.000 A 
ATOM      5  C   UNL     1       1.591   6.890  20.447  0.00  0.00    +0.000 A 
ATOM      6  C   UNL     1       1.844   7.561  19.264  0.00  0.00    +0.000 A 
ATOM      7  C   UNL     1       1.627   8.961  19.211  0.00  0.00    +0.000 A 
ATOM      8 CL   UNL     1       2.028   9.814  17.750  0.00  0.00    +0.000 Cl
ATOM      9  O   UNL     1       2.266   6.894  18.141  0.00  0.00    +0.000 OA
ATOM     10  C   UNL     1       2.377   5.433  18.164  0.00  0.00    +0.000 C 
ATOM     11  C   UNL     1       2.062   4.763  19.477  0.00  0.00    +0.000 C 
ATOM     12  C   UNL     1       1.752   5.459  20.576  0.00  0.00    +0.000 C 
ENDROOT
BRANCH  10  13
ATOM     13  C   UNL     1       3.776   5.045  17.645  0.00  0.00    +0.000 C 
ATOM     14  F   UNL     1       4.680   4.838  18.624  0.00  0.00    +0.000 F 
ATOM     15  F   UNL     1       3.731   3.913  16.892  0.00  0.00    +0.000 F 
ATOM     16  F   UNL     1       4.271   6.007  16.828  0.00  0.00    +0.000 F 
ENDBRANCH  10  13
BRANCH  11  17
ATOM     17  C   UNL     1       1.884   3.298  19.626  0.00  0.00    +0.000 C 
ATOM     18  O   UNL     1       2.806   2.502  19.581  0.00  0.00    +0.000 OA
BRANCH  17  19
ATOM     19  O   UNL     1       0.632   2.923  19.925  0.00  0.00    +0.000 OA
ATOM     20  H   UNL     1       0.314   3.241  20.793  0.00  0.00    +0.000 HD
ENDBRANCH  17  19
ENDBRANCH  11  17
BRANCH   1  21
ATOM     21  O   UNL     1       0.946  11.032  20.178  0.00  0.00    +0.000 OA
BRANCH  21  23
ATOM     22  C   UNL     1      -0.103  12.667  18.566  0.00  0.00    +0.000 C 
ATOM     23  C   UNL     1      -0.280  11.660  19.721  0.00  0.00    +0.000 C 
ATOM     24  C   UNL     1      -1.073  12.161  20.938  0.00  0.00    +0.000 C 
ATOM     25  C   UNL     1      -1.183  10.549  19.123  0.00  0.00    +0.000 C 
ENDBRANCH  21  23
ENDBRANCH   1  21
TORSDOF 5
ENDMDL
MODEL 9
REMARK VINA RESULT:      -6.5      1.977      3.239
REMARK  Name = 
REMARK  8 active torsions:
REMARK  status: ('A' for Active; 'I' for Inactive)
REMARK    1  A    between atoms: C_1  and  C_2
REMARK    2  A    between atoms: C_2  and  C_3
REMARK    3  A    between atoms: C_2  and  C_4
REMARK    4  A    between atoms: C_2  and  O_5
REMARK    5  A    between atoms: O_5  and  C_6
REMARK    6  A    between atoms: C_15  and  C_16
REMARK    7  A    between atoms: C_20  and  C_21
REMARK    8  A    between atoms: C_21  and  O_23
REMARK                            x       y       z     vdW  Elec       q    Type
REMARK                         _______ _______ _______ _____ _____    ______ ____
ROOT
ATOM      1  C   UNL     1       1.036   9.653  20.307  0.00  0.00    +0.000 A 
ATOM      2  C   UNL     1       0.639   8.819  21.364  0.00  0.00    +0.000 A 
ATOM      3 CL   UNL     1      -0.505   9.183  22.601  0.00  0.00    +0.000 Cl
ATOM      4  C   UNL     1       1.064   7.498  21.428  0.00  0.00    +0.000 A 
ATOM      5  C   UNL     1       1.705   6.905  20.352  0.00  0.00    +0.000 A 
ATOM      6  C   UNL     1       1.948   7.630  19.200  0.00  0.00    +0.000 A 
ATOM      7  C   UNL     1       1.652   9.017  19.189  0.00  0.00    +0.000 A 
ATOM      8 CL   UNL     1       2.039   9.943  17.769  0.00  0.00    +0.000 Cl
ATOM      9  O   UNL     1       2.436   7.029  18.067  0.00  0.00    +0.000 OA
ATOM     10  C   UNL     1       2.632   5.576  18.043  0.00  0.00    +0.000 C 
ATOM     11  C   UNL     1       2.323   4.844  19.324  0.00  0.00    +0.000 C 
ATOM     12  C   UNL     1       1.945   5.482  20.437  0.00  0.00    +0.000 C 
ENDROOT
BRANCH  10  13
ATOM     13  C   UNL     1       4.063   5.288  17.550  0.00  0.00    +0.000 C 
ATOM     14  F   UNL     1       4.569   6.253  16.756  0.00  0.00    +0.000 F 
ATOM     15  F   UNL     1       4.925   5.129  18.591  0.00  0.00    +0.000 F 
ATOM     16  F   UNL     1       4.109   4.123  16.858  0.00  0.00    +0.000 F 
ENDBRANCH  10  13
BRANCH  11  17
ATOM     17  C   UNL     1       2.226   3.367  19.419  0.00  0.00    +0.000 C 
ATOM     18  O   UNL     1       1.307   2.723  18.941  0.00  0.00    +0.000 OA
BRANCH  17  19
ATOM     19  O   UNL     1       3.291   2.779  19.981  0.00  0.00    +0.000 OA
ATOM     20  H   UNL     1       3.321   1.809  19.868  0.00  0.00    +0.000 HD
ENDBRANCH  17  19
ENDBRANCH  11  17
BRANCH   1  21
ATOM     21  O   UNL     1       0.827  11.009  20.207  0.00  0.00    +0.000 OA
BRANCH  21  23
ATOM     22  C   UNL     1      -0.243  12.628  18.592  0.00  0.00    +0.000 C 
ATOM     23  C   UNL     1      -0.411  11.582  19.713  0.00  0.00    +0.000 C 
ATOM     24  C   UNL     1      -1.281  12.006  20.907  0.00  0.00    +0.000 C 
ATOM     25  C   UNL     1      -1.226  10.440  19.049  0.00  0.00    +0.000 C 
ENDBRANCH  21  23
ENDBRANCH   1  21
TORSDOF 5
ENDMDL
