MODEL 1
REMARK VINA RESULT:      -7.5      0.000      0.000
REMARK  Name = 
REMARK  9 active torsions:
REMARK  status: ('A' for Active; 'I' for Inactive)
REMARK    1  A    between atoms: C_2  and  O_3
REMARK    2  A    between atoms: C_2  and  C_4
REMARK    3  A    between atoms: C_4  and  C_5
REMARK    4  A    between atoms: C_5  and  N_6
REMARK    5  A    between atoms: C_7  and  C_9
REMARK    6  A    between atoms: C_12  and  N_13
REMARK    7  A    between atoms: N_14  and  C_15
REMARK    8  A    between atoms: C_19  and  C_20
REMARK    9  A    between atoms: C_20  and  O_22
REMARK                            x       y       z     vdW  Elec       q    Type
REMARK                         _______ _______ _______ _____ _____    ______ ____
ROOT
ATOM      1  C   UNL     1       5.948   5.634  17.853  0.00  0.00    +0.000 A 
ATOM      2  C   UNL     1       6.982   5.413  18.769  0.00  0.00    +0.000 A 
ATOM      3  C   UNL     1       7.957   6.398  18.977  0.00  0.00    +0.000 A 
ATOM      4  C   UNL     1       7.929   7.611  18.275  0.00  0.00    +0.000 A 
ATOM      5  C   UNL     1       6.888   7.820  17.357  0.00  0.00    +0.000 A 
ATOM      6  C   UNL     1       5.912   6.836  17.138  0.00  0.00    +0.000 A 
ENDROOT
BRANCH   1   8
ATOM      7  N   UNL     1       3.897   4.518  18.549  0.00  0.00    +0.000 N 
ATOM      8  C   UNL     1       4.894   4.612  17.601  0.00  0.00    +0.000 C 
ATOM      9  O   UNL     1       4.931   3.919  16.591  0.00  0.00    +0.000 OA
ATOM     10  H   UNL     1       3.875   5.163  19.330  0.00  0.00    +0.000 HD
BRANCH   7  11
ATOM     11  C   UNL     1       2.788   3.586  18.432  0.00  0.00    +0.000 C 
BRANCH  11  12
ATOM     12  C   UNL     1       1.914   3.549  19.680  0.00  0.00    +0.000 C 
BRANCH  12  14
ATOM     13  O   UNL     1       2.293   3.085  22.028  0.00  0.00    +0.000 OA
ATOM     14  C   UNL     1       2.676   3.021  20.869  0.00  0.00    +0.000 C 
BRANCH  14  15
ATOM     15  O   UNL     1       3.838   2.421  20.528  0.00  0.00    +0.000 OA
ATOM     16  H   UNL     1       4.537   3.040  20.240  0.00  0.00    +0.000 HD
ENDBRANCH  14  15
ENDBRANCH  12  14
ENDBRANCH  11  12
ENDBRANCH   7  11
ENDBRANCH   1   8
BRANCH   4  17
ATOM     17  N   UNL     1       8.933   8.566  18.559  0.00  0.00    +0.000 NA
ATOM     18  N   UNL     1       8.486   9.732  18.567  0.00  0.00    +0.000 NA
BRANCH  18  19
ATOM     19  C   UNL     1       9.499  10.697  18.748  0.00  0.00    +0.000 A 
ATOM     20  C   UNL     1       9.996  10.907  20.041  0.00  0.00    +0.000 A 
ATOM     21  C   UNL     1      10.925  11.916  20.303  0.00  0.00    +0.000 A 
ATOM     22  C   UNL     1      11.372  12.733  19.265  0.00  0.00    +0.000 A 
ATOM     23  C   UNL     1      10.898  12.534  17.963  0.00  0.00    +0.000 A 
ATOM     24  C   UNL     1       9.955  11.528  17.709  0.00  0.00    +0.000 A 
BRANCH  23  25
ATOM     25  C   UNL     1      11.362  13.468  16.906  0.00  0.00    +0.000 C 
ATOM     26  O   UNL     1      11.037  14.644  16.876  0.00  0.00    +0.000 OA
BRANCH  25  27
ATOM     27  O   UNL     1      12.205  12.915  16.009  0.00  0.00    +0.000 OA
ATOM     28  H   UNL     1      13.092  13.316  15.964  0.00  0.00    +0.000 HD
ENDBRANCH  25  27
ENDBRANCH  23  25
ENDBRANCH  18  19
ENDBRANCH   4  17
TORSDOF 9
ENDMDL
MODEL 2
REMARK VINA RESULT:      -7.3      1.624      1.999
REMARK  Name = 
REMARK  9 active torsions:
REMARK  status: ('A' for Active; 'I' for Inactive)
REMARK    1  A    between atoms: C_2  and  O_3
REMARK    2  A    between atoms: C_2  and  C_4
REMARK    3  A    between atoms: C_4  and  C_5
REMARK    4  A    between atoms: C_5  and  N_6
REMARK    5  A    between atoms: C_7  and  C_9
REMARK    6  A    between atoms: C_12  and  N_13
REMARK    7  A    between atoms: N_14  and  C_15
REMARK    8  A    between atoms: C_19  and  C_20
REMARK    9  A    between atoms: C_20  and  O_22
REMARK                            x       y       z     vdW  Elec       q    Type
REMARK                         _______ _______ _______ _____ _____    ______ ____
ROOT
ATOM      1  C   UNL     1       6.056   5.328  18.273  0.00  0.00    +0.000 A 
ATOM      2  C   UNL     1       7.301   5.608  18.845  0.00  0.00    +0.000 A 
ATOM      3  C   UNL     1       7.970   6.796  18.522  0.00  0.00    +0.000 A 
ATOM      4  C   UNL     1       7.422   7.719  17.620  0.00  0.00    +0.000 A 
ATOM      5  C   UNL     1       6.173   7.426  17.051  0.00  0.00    +0.000 A 
ATOM      6  C   UNL     1       5.500   6.235  17.364  0.00  0.00    +0.000 A 
ENDROOT
BRANCH   1   8
ATOM      7  N   UNL     1       4.440   3.624  17.622  0.00  0.00    +0.000 N 
ATOM      8  C   UNL     1       5.313   4.075  18.589  0.00  0.00    +0.000 C 
ATOM      9  O   UNL     1       5.502   3.494  19.651  0.00  0.00    +0.000 OA
ATOM     10  H   UNL     1       4.374   4.104  16.732  0.00  0.00    +0.000 HD
BRANCH   7  11
ATOM     11  C   UNL     1       3.662   2.406  17.774  0.00  0.00    +0.000 C 
BRANCH  11  12
ATOM     12  C   UNL     1       2.167   2.673  17.903  0.00  0.00    +0.000 C 
BRANCH  12  14
ATOM     13  O   UNL     1       0.587   2.859  19.731  0.00  0.00    +0.000 OA
ATOM     14  C   UNL     1       1.737   2.703  19.347  0.00  0.00    +0.000 C 
BRANCH  14  15
ATOM     15  O   UNL     1       2.760   2.500  20.208  0.00  0.00    +0.000 OA
ATOM     16  H   UNL     1       3.073   3.311  20.654  0.00  0.00    +0.000 HD
ENDBRANCH  14  15
ENDBRANCH  12  14
ENDBRANCH  11  12
ENDBRANCH   7  11
ENDBRANCH   1   8
BRANCH   4  17
ATOM     17  N   UNL     1       8.145   8.907  17.365  0.00  0.00    +0.000 NA
ATOM     18  N   UNL     1       8.492   9.484  18.417  0.00  0.00    +0.000 NA
BRANCH  18  19
ATOM     19  C   UNL     1       9.123  10.722  18.171  0.00  0.00    +0.000 A 
ATOM     20  C   UNL     1      10.521  10.782  18.244  0.00  0.00    +0.000 A 
ATOM     21  C   UNL     1      11.199  11.996  18.112  0.00  0.00    +0.000 A 
ATOM     22  C   UNL     1      10.480  13.172  17.902  0.00  0.00    +0.000 A 
ATOM     23  C   UNL     1       9.084  13.134  17.814  0.00  0.00    +0.000 A 
ATOM     24  C   UNL     1       8.408  11.914  17.961  0.00  0.00    +0.000 A 
BRANCH  23  25
ATOM     25  C   UNL     1       8.364  14.422  17.646  0.00  0.00    +0.000 C 
ATOM     26  O   UNL     1       7.151  14.516  17.739  0.00  0.00    +0.000 OA
BRANCH  25  27
ATOM     27  O   UNL     1       9.169  15.482  17.424  0.00  0.00    +0.000 OA
ATOM     28  H   UNL     1       9.942  15.551  18.012  0.00  0.00    +0.000 HD
ENDBRANCH  25  27
ENDBRANCH  23  25
ENDBRANCH  18  19
ENDBRANCH   4  17
TORSDOF 9
ENDMDL
MODEL 3
REMARK VINA RESULT:      -7.2      1.436      1.562
REMARK  Name = 
REMARK  9 active torsions:
REMARK  status: ('A' for Active; 'I' for Inactive)
REMARK    1  A    between atoms: C_2  and  O_3
REMARK    2  A    between atoms: C_2  and  C_4
REMARK    3  A    between atoms: C_4  and  C_5
REMARK    4  A    between atoms: C_5  and  N_6
REMARK    5  A    between atoms: C_7  and  C_9
REMARK    6  A    between atoms: C_12  and  N_13
REMARK    7  A    between atoms: N_14  and  C_15
REMARK    8  A    between atoms: C_19  and  C_20
REMARK    9  A    between atoms: C_20  and  O_22
REMARK                            x       y       z     vdW  Elec       q    Type
REMARK                         _______ _______ _______ _____ _____    ______ ____
ROOT
ATOM      1  C   UNL     1       6.351   5.578  18.005  0.00  0.00    +0.000 A 
ATOM      2  C   UNL     1       7.300   5.494  19.029  0.00  0.00    +0.000 A 
ATOM      3  C   UNL     1       8.195   6.550  19.243  0.00  0.00    +0.000 A 
ATOM      4  C   UNL     1       8.171   7.700  18.442  0.00  0.00    +0.000 A 
ATOM      5  C   UNL     1       7.216   7.772  17.416  0.00  0.00    +0.000 A 
ATOM      6  C   UNL     1       6.320   6.715  17.190  0.00  0.00    +0.000 A 
ENDROOT
BRANCH   1   8
ATOM      7  N   UNL     1       4.868   3.839  18.853  0.00  0.00    +0.000 N 
ATOM      8  C   UNL     1       5.383   4.476  17.743  0.00  0.00    +0.000 C 
ATOM      9  O   UNL     1       5.071   4.185  16.594  0.00  0.00    +0.000 OA
ATOM     10  H   UNL     1       5.106   4.165  19.782  0.00  0.00    +0.000 HD
BRANCH   7  11
ATOM     11  C   UNL     1       3.898   2.762  18.760  0.00  0.00    +0.000 C 
BRANCH  11  12
ATOM     12  C   UNL     1       2.462   3.245  18.925  0.00  0.00    +0.000 C 
BRANCH  12  14
ATOM     13  O   UNL     1       0.961   4.451  17.452  0.00  0.00    +0.000 OA
ATOM     14  C   UNL     1       1.856   3.631  17.599  0.00  0.00    +0.000 C 
BRANCH  14  15
ATOM     15  O   UNL     1       2.432   3.000  16.551  0.00  0.00    +0.000 OA
ATOM     16  H   UNL     1       3.322   3.332  16.325  0.00  0.00    +0.000 HD
ENDBRANCH  14  15
ENDBRANCH  12  14
ENDBRANCH  11  12
ENDBRANCH   7  11
ENDBRANCH   1   8
BRANCH   4  17
ATOM     17  N   UNL     1       9.089   8.735  18.737  0.00  0.00    +0.000 NA
ATOM     18  N   UNL     1       8.588   9.869  18.581  0.00  0.00    +0.000 NA
BRANCH  18  19
ATOM     19  C   UNL     1       9.527  10.904  18.774  0.00  0.00    +0.000 A 
ATOM     20  C   UNL     1       9.910  11.221  20.085  0.00  0.00    +0.000 A 
ATOM     21  C   UNL     1      10.755  12.300  20.349  0.00  0.00    +0.000 A 
ATOM     22  C   UNL     1      11.233  13.080  19.297  0.00  0.00    +0.000 A 
ATOM     23  C   UNL     1      10.874  12.775  17.979  0.00  0.00    +0.000 A 
ATOM     24  C   UNL     1      10.013  11.699  17.721  0.00  0.00    +0.000 A 
BRANCH  23  25
ATOM     25  C   UNL     1      11.364  13.672  16.901  0.00  0.00    +0.000 C 
ATOM     26  O   UNL     1      11.094  14.862  16.860  0.00  0.00    +0.000 OA
BRANCH  25  27
ATOM     27  O   UNL     1      12.164  13.068  15.998  0.00  0.00    +0.000 OA
ATOM     28  H   UNL     1      12.950  12.625  16.365  0.00  0.00    +0.000 HD
ENDBRANCH  25  27
ENDBRANCH  23  25
ENDBRANCH  18  19
ENDBRANCH   4  17
TORSDOF 9
ENDMDL
MODEL 4
REMARK VINA RESULT:      -7.2      0.944      1.079
REMARK  Name = 
REMARK  9 active torsions:
REMARK  status: ('A' for Active; 'I' for Inactive)
REMARK    1  A    between atoms: C_2  and  O_3
REMARK    2  A    between atoms: C_2  and  C_4
REMARK    3  A    between atoms: C_4  and  C_5
REMARK    4  A    between atoms: C_5  and  N_6
REMARK    5  A    between atoms: C_7  and  C_9
REMARK    6  A    between atoms: C_12  and  N_13
REMARK    7  A    between atoms: N_14  and  C_15
REMARK    8  A    between atoms: C_19  and  C_20
REMARK    9  A    between atoms: C_20  and  O_22
REMARK                            x       y       z     vdW  Elec       q    Type
REMARK                         _______ _______ _______ _____ _____    ______ ____
ROOT
ATOM      1  C   UNL     1       6.340   5.710  18.018  0.00  0.00    +0.000 A 
ATOM      2  C   UNL     1       7.511   5.822  18.775  0.00  0.00    +0.000 A 
ATOM      3  C   UNL     1       8.243   7.016  18.761  0.00  0.00    +0.000 A 
ATOM      4  C   UNL     1       7.834   8.113  17.990  0.00  0.00    +0.000 A 
ATOM      5  C   UNL     1       6.660   7.988  17.233  0.00  0.00    +0.000 A 
ATOM      6  C   UNL     1       5.923   6.794  17.235  0.00  0.00    +0.000 A 
ENDROOT
BRANCH   1   8
ATOM      7  N   UNL     1       5.039   4.036  19.219  0.00  0.00    +0.000 N 
ATOM      8  C   UNL     1       5.534   4.457  18.003  0.00  0.00    +0.000 C 
ATOM      9  O   UNL     1       5.326   3.866  16.950  0.00  0.00    +0.000 OA
ATOM     10  H   UNL     1       5.181   4.599  20.049  0.00  0.00    +0.000 HD
BRANCH   7  11
ATOM     11  C   UNL     1       4.218   2.846  19.363  0.00  0.00    +0.000 C 
BRANCH  11  12
ATOM     12  C   UNL     1       2.743   3.109  19.084  0.00  0.00    +0.000 C 
BRANCH  12  14
ATOM     13  O   UNL     1       2.532   4.419  21.113  0.00  0.00    +0.000 OA
ATOM     14  C   UNL     1       2.040   3.644  20.305  0.00  0.00    +0.000 C 
BRANCH  14  15
ATOM     15  O   UNL     1       0.765   3.207  20.415  0.00  0.00    +0.000 OA
ATOM     16  H   UNL     1       0.152   3.597  19.762  0.00  0.00    +0.000 HD
ENDBRANCH  14  15
ENDBRANCH  12  14
ENDBRANCH  11  12
ENDBRANCH   7  11
ENDBRANCH   1   8
BRANCH   4  17
ATOM     17  N   UNL     1       8.612   9.293  18.050  0.00  0.00    +0.000 NA
ATOM     18  N   UNL     1       9.009   9.539  19.208  0.00  0.00    +0.000 NA
BRANCH  18  19
ATOM     19  C   UNL     1       9.698  10.768  19.293  0.00  0.00    +0.000 A 
ATOM     20  C   UNL     1       9.868  11.350  20.556  0.00  0.00    +0.000 A 
ATOM     21  C   UNL     1      10.449  12.612  20.697  0.00  0.00    +0.000 A 
ATOM     22  C   UNL     1      10.873  13.310  19.567  0.00  0.00    +0.000 A 
ATOM     23  C   UNL     1      10.723  12.743  18.296  0.00  0.00    +0.000 A 
ATOM     24  C   UNL     1      10.126  11.482  18.160  0.00  0.00    +0.000 A 
BRANCH  23  25
ATOM     25  C   UNL     1      11.138  13.553  17.122  0.00  0.00    +0.000 C 
ATOM     26  O   UNL     1      11.520  14.707  17.221  0.00  0.00    +0.000 OA
BRANCH  25  27
ATOM     27  O   UNL     1      11.095  12.889  15.948  0.00  0.00    +0.000 OA
ATOM     28  H   UNL     1      11.351  11.950  15.988  0.00  0.00    +0.000 HD
ENDBRANCH  25  27
ENDBRANCH  23  25
ENDBRANCH  18  19
ENDBRANCH   4  17
TORSDOF 9
ENDMDL
MODEL 5
REMARK VINA RESULT:      -7.2      5.998      8.481
REMARK  Name = 
REMARK  9 active torsions:
REMARK  status: ('A' for Active; 'I' for Inactive)
REMARK    1  A    between atoms: C_2  and  O_3
REMARK    2  A    between atoms: C_2  and  C_4
REMARK    3  A    between atoms: C_4  and  C_5
REMARK    4  A    between atoms: C_5  and  N_6
REMARK    5  A    between atoms: C_7  and  C_9
REMARK    6  A    between atoms: C_12  and  N_13
REMARK    7  A    between atoms: N_14  and  C_15
REMARK    8  A    between atoms: C_19  and  C_20
REMARK    9  A    between atoms: C_20  and  O_22
REMARK                            x       y       z     vdW  Elec       q    Type
REMARK                         _______ _______ _______ _____ _____    ______ ____
ROOT
ATOM      1  C   UNL     1       0.639   9.373  19.608  0.00  0.00    +0.000 A 
ATOM      2  C   UNL     1       1.170   9.367  18.313  0.00  0.00    +0.000 A 
ATOM      3  C   UNL     1       2.130   8.413  17.954  0.00  0.00    +0.000 A 
ATOM      4  C   UNL     1       2.588   7.458  18.873  0.00  0.00    +0.000 A 
ATOM      5  C   UNL     1       2.051   7.476  20.169  0.00  0.00    +0.000 A 
ATOM      6  C   UNL     1       1.093   8.432  20.539  0.00  0.00    +0.000 A 
ENDROOT
BRANCH   1   8
ATOM      7  N   UNL     1      -1.098  10.978  19.019  0.00  0.00    +0.000 N 
ATOM      8  C   UNL     1      -0.382  10.373  20.030  0.00  0.00    +0.000 C 
ATOM      9  O   UNL     1      -0.562  10.610  21.219  0.00  0.00    +0.000 OA
ATOM     10  H   UNL     1      -0.958  10.695  18.057  0.00  0.00    +0.000 HD
BRANCH   7  11
ATOM     11  C   UNL     1      -2.142  11.956  19.273  0.00  0.00    +0.000 C 
BRANCH  11  12
ATOM     12  C   UNL     1      -3.297  11.857  18.284  0.00  0.00    +0.000 C 
BRANCH  12  14
ATOM     13  O   UNL     1      -3.231   9.724  17.134  0.00  0.00    +0.000 OA
ATOM     14  C   UNL     1      -2.970  10.918  17.150  0.00  0.00    +0.000 C 
BRANCH  14  15
ATOM     15  O   UNL     1      -2.378  11.538  16.105  0.00  0.00    +0.000 OA
ATOM     16  H   UNL     1      -1.837  10.948  15.546  0.00  0.00    +0.000 HD
ENDBRANCH  14  15
ENDBRANCH  12  14
ENDBRANCH  11  12
ENDBRANCH   7  11
ENDBRANCH   1   8
BRANCH   4  17
ATOM     17  N   UNL     1       3.540   6.511  18.427  0.00  0.00    +0.000 NA
ATOM     18  N   UNL     1       4.498   7.048  17.833  0.00  0.00    +0.000 NA
BRANCH  18  19
ATOM     19  C   UNL     1       5.398   6.103  17.296  0.00  0.00    +0.000 A 
ATOM     20  C   UNL     1       6.262   5.434  18.174  0.00  0.00    +0.000 A 
ATOM     21  C   UNL     1       7.245   4.565  17.696  0.00  0.00    +0.000 A 
ATOM     22  C   UNL     1       7.374   4.351  16.324  0.00  0.00    +0.000 A 
ATOM     23  C   UNL     1       6.514   4.999  15.430  0.00  0.00    +0.000 A 
ATOM     24  C   UNL     1       5.539   5.882  15.915  0.00  0.00    +0.000 A 
BRANCH  23  25
ATOM     25  C   UNL     1       6.731   4.781  13.977  0.00  0.00    +0.000 C 
ATOM     26  O   UNL     1       7.623   5.333  13.354  0.00  0.00    +0.000 OA
BRANCH  25  27
ATOM     27  O   UNL     1       5.885   3.891  13.418  0.00  0.00    +0.000 OA
ATOM     28  H   UNL     1       6.294   3.247  12.812  0.00  0.00    +0.000 HD
ENDBRANCH  25  27
ENDBRANCH  23  25
ENDBRANCH  18  19
ENDBRANCH   4  17
TORSDOF 9
ENDMDL
MODEL 6
REMARK VINA RESULT:      -7.2      1.683      2.194
REMARK  Name = 
REMARK  9 active torsions:
REMARK  status: ('A' for Active; 'I' for Inactive)
REMARK    1  A    between atoms: C_2  and  O_3
REMARK    2  A    between atoms: C_2  and  C_4
REMARK    3  A    between atoms: C_4  and  C_5
REMARK    4  A    between atoms: C_5  and  N_6
REMARK    5  A    between atoms: C_7  and  C_9
REMARK    6  A    between atoms: C_12  and  N_13
REMARK    7  A    between atoms: N_14  and  C_15
REMARK    8  A    between atoms: C_19  and  C_20
REMARK    9  A    between atoms: C_20  and  O_22
REMARK                            x       y       z     vdW  Elec       q    Type
REMARK                         _______ _______ _______ _____ _____    ______ ____
ROOT
ATOM      1  C   UNL     1       5.957   5.368  18.060  0.00  0.00    +0.000 A 
ATOM      2  C   UNL     1       5.651   6.373  17.137  0.00  0.00    +0.000 A 
ATOM      3  C   UNL     1       6.498   7.480  16.998  0.00  0.00    +0.000 A 
ATOM      4  C   UNL     1       7.655   7.614  17.779  0.00  0.00    +0.000 A 
ATOM      5  C   UNL     1       7.950   6.601  18.704  0.00  0.00    +0.000 A 
ATOM      6  C   UNL     1       7.103   5.493  18.854  0.00  0.00    +0.000 A 
ENDROOT
BRANCH   1   8
ATOM      7  N   UNL     1       5.230   3.481  19.421  0.00  0.00    +0.000 N 
ATOM      8  C   UNL     1       5.080   4.177  18.240  0.00  0.00    +0.000 C 
ATOM      9  O   UNL     1       4.270   3.867  17.374  0.00  0.00    +0.000 OA
ATOM     10  H   UNL     1       5.865   3.821  20.134  0.00  0.00    +0.000 HD
BRANCH   7  11
ATOM     11  C   UNL     1       4.433   2.312  19.751  0.00  0.00    +0.000 C 
BRANCH  11  12
ATOM     12  C   UNL     1       3.099   2.670  20.394  0.00  0.00    +0.000 C 
BRANCH  12  14
ATOM     13  O   UNL     1       0.795   2.736  19.645  0.00  0.00    +0.000 OA
ATOM     14  C   UNL     1       1.944   2.357  19.477  0.00  0.00    +0.000 C 
BRANCH  14  15
ATOM     15  O   UNL     1       2.309   1.628  18.398  0.00  0.00    +0.000 OA
ATOM     16  H   UNL     1       1.640   0.977  18.112  0.00  0.00    +0.000 HD
ENDBRANCH  14  15
ENDBRANCH  12  14
ENDBRANCH  11  12
ENDBRANCH   7  11
ENDBRANCH   1   8
BRANCH   4  17
ATOM     17  N   UNL     1       8.474   8.747  17.563  0.00  0.00    +0.000 NA
ATOM     18  N   UNL     1       8.268   9.646  18.405  0.00  0.00    +0.000 NA
BRANCH  18  19
ATOM     19  C   UNL     1       9.007  10.817  18.135  0.00  0.00    +0.000 A 
ATOM     20  C   UNL     1      10.404  10.725  18.078  0.00  0.00    +0.000 A 
ATOM     21  C   UNL     1      11.197  11.864  17.916  0.00  0.00    +0.000 A 
ATOM     22  C   UNL     1      10.596  13.117  17.807  0.00  0.00    +0.000 A 
ATOM     23  C   UNL     1       9.201  13.232  17.850  0.00  0.00    +0.000 A 
ATOM     24  C   UNL     1       8.412  12.087  18.026  0.00  0.00    +0.000 A 
BRANCH  23  25
ATOM     25  C   UNL     1       8.615  14.595  17.787  0.00  0.00    +0.000 C 
ATOM     26  O   UNL     1       9.237  15.595  18.108  0.00  0.00    +0.000 OA
BRANCH  25  27
ATOM     27  O   UNL     1       7.354  14.634  17.308  0.00  0.00    +0.000 OA
ATOM     28  H   UNL     1       6.920  13.769  17.201  0.00  0.00    +0.000 HD
ENDBRANCH  25  27
ENDBRANCH  23  25
ENDBRANCH  18  19
ENDBRANCH   4  17
TORSDOF 9
ENDMDL
MODEL 7
REMARK VINA RESULT:      -7.1      6.313      9.114
REMARK  Name = 
REMARK  9 active torsions:
REMARK  status: ('A' for Active; 'I' for Inactive)
REMARK    1  A    between atoms: C_2  and  O_3
REMARK    2  A    between atoms: C_2  and  C_4
REMARK    3  A    between atoms: C_4  and  C_5
REMARK    4  A    between atoms: C_5  and  N_6
REMARK    5  A    between atoms: C_7  and  C_9
REMARK    6  A    between atoms: C_12  and  N_13
REMARK    7  A    between atoms: N_14  and  C_15
REMARK    8  A    between atoms: C_19  and  C_20
REMARK    9  A    between atoms: C_20  and  O_22
REMARK                            x       y       z     vdW  Elec       q    Type
REMARK                         _______ _______ _______ _____ _____    ______ ____
ROOT
ATOM      1  C   UNL     1       0.857   9.849  20.235  0.00  0.00    +0.000 A 
ATOM      2  C   UNL     1       1.183   9.819  18.876  0.00  0.00    +0.000 A 
ATOM      3  C   UNL     1       1.817   8.695  18.332  0.00  0.00    +0.000 A 
ATOM      4  C   UNL     1       2.148   7.588  19.126  0.00  0.00    +0.000 A 
ATOM      5  C   UNL     1       1.818   7.631  20.489  0.00  0.00    +0.000 A 
ATOM      6  C   UNL     1       1.189   8.756  21.044  0.00  0.00    +0.000 A 
ENDROOT
BRANCH   1   8
ATOM      7  N   UNL     1      -0.815  11.618  20.109  0.00  0.00    +0.000 N 
ATOM      8  C   UNL     1       0.184  11.026  20.853  0.00  0.00    +0.000 C 
ATOM      9  O   UNL     1       0.513  11.414  21.968  0.00  0.00    +0.000 OA
ATOM     10  H   UNL     1      -1.095  11.216  19.223  0.00  0.00    +0.000 HD
BRANCH   7  11
ATOM     11  C   UNL     1      -1.577  12.760  20.586  0.00  0.00    +0.000 C 
BRANCH  11  12
ATOM     12  C   UNL     1      -1.294  14.030  19.793  0.00  0.00    +0.000 C 
BRANCH  12  14
ATOM     13  O   UNL     1       0.891  14.038  18.746  0.00  0.00    +0.000 OA
ATOM     14  C   UNL     1      -0.302  13.779  18.687  0.00  0.00    +0.000 C 
BRANCH  14  15
ATOM     15  O   UNL     1      -0.857  13.190  17.603  0.00  0.00    +0.000 OA
ATOM     16  H   UNL     1      -0.339  13.298  16.782  0.00  0.00    +0.000 HD
ENDBRANCH  14  15
ENDBRANCH  12  14
ENDBRANCH  11  12
ENDBRANCH   7  11
ENDBRANCH   1   8
BRANCH   4  17
ATOM     17  N   UNL     1       2.764   6.480  18.499  0.00  0.00    +0.000 NA
ATOM     18  N   UNL     1       3.750   6.816  17.810  0.00  0.00    +0.000 NA
BRANCH  18  19
ATOM     19  C   UNL     1       4.307   5.731  17.100  0.00  0.00    +0.000 A 
ATOM     20  C   UNL     1       3.995   4.430  17.519  0.00  0.00    +0.000 A 
ATOM     21  C   UNL     1       4.592   3.317  16.925  0.00  0.00    +0.000 A 
ATOM     22  C   UNL     1       5.514   3.494  15.894  0.00  0.00    +0.000 A 
ATOM     23  C   UNL     1       5.832   4.783  15.451  0.00  0.00    +0.000 A 
ATOM     24  C   UNL     1       5.240   5.897  16.061  0.00  0.00    +0.000 A 
BRANCH  23  25
ATOM     25  C   UNL     1       6.863   4.917  14.390  0.00  0.00    +0.000 C 
ATOM     26  O   UNL     1       7.858   5.609  14.522  0.00  0.00    +0.000 OA
BRANCH  25  27
ATOM     27  O   UNL     1       6.622   4.177  13.287  0.00  0.00    +0.000 OA
ATOM     28  H   UNL     1       6.148   4.635  12.570  0.00  0.00    +0.000 HD
ENDBRANCH  25  27
ENDBRANCH  23  25
ENDBRANCH  18  19
ENDBRANCH   4  17
TORSDOF 9
ENDMDL
MODEL 8
REMARK VINA RESULT:      -7.1      6.174      8.661
REMARK  Name = 
REMARK  9 active torsions:
REMARK  status: ('A' for Active; 'I' for Inactive)
REMARK    1  A    between atoms: C_2  and  O_3
REMARK    2  A    between atoms: C_2  and  C_4
REMARK    3  A    between atoms: C_4  and  C_5
REMARK    4  A    between atoms: C_5  and  N_6
REMARK    5  A    between atoms: C_7  and  C_9
REMARK    6  A    between atoms: C_12  and  N_13
REMARK    7  A    between atoms: N_14  and  C_15
REMARK    8  A    between atoms: C_19  and  C_20
REMARK    9  A    between atoms: C_20  and  O_22
REMARK                            x       y       z     vdW  Elec       q    Type
REMARK                         _______ _______ _______ _____ _____    ______ ____
ROOT
ATOM      1  C   UNL     1       5.308   5.234  15.968  0.00  0.00    +0.000 A 
ATOM      2  C   UNL     1       4.389   4.443  16.666  0.00  0.00    +0.000 A 
ATOM      3  C   UNL     1       3.525   5.031  17.599  0.00  0.00    +0.000 A 
ATOM      4  C   UNL     1       3.564   6.407  17.863  0.00  0.00    +0.000 A 
ATOM      5  C   UNL     1       4.492   7.189  17.159  0.00  0.00    +0.000 A 
ATOM      6  C   UNL     1       5.366   6.608  16.228  0.00  0.00    +0.000 A 
ENDROOT
BRANCH   1   8
ATOM      7  N   UNL     1       5.677   4.164  13.810  0.00  0.00    +0.000 N 
ATOM      8  C   UNL     1       6.245   4.648  14.970  0.00  0.00    +0.000 C 
ATOM      9  O   UNL     1       7.451   4.625  15.189  0.00  0.00    +0.000 OA
ATOM     10  H   UNL     1       4.683   4.270  13.648  0.00  0.00    +0.000 HD
BRANCH   7  11
ATOM     11  C   UNL     1       6.462   3.584  12.734  0.00  0.00    +0.000 C 
BRANCH  11  12
ATOM     12  C   UNL     1       5.666   2.598  11.887  0.00  0.00    +0.000 C 
BRANCH  12  14
ATOM     13  O   UNL     1       7.672   1.734  10.837  0.00  0.00    +0.000 OA
ATOM     14  C   UNL     1       6.557   1.535  11.297  0.00  0.00    +0.000 C 
BRANCH  14  15
ATOM     15  O   UNL     1       6.014   0.298  11.354  0.00  0.00    +0.000 OA
ATOM     16  H   UNL     1       5.845  -0.021  12.261  0.00  0.00    +0.000 HD
ENDBRANCH  14  15
ENDBRANCH  12  14
ENDBRANCH  11  12
ENDBRANCH   7  11
ENDBRANCH   1   8
BRANCH   4  17
ATOM     17  N   UNL     1       2.642   6.930  18.800  0.00  0.00    +0.000 NA
ATOM     18  N   UNL     1       2.348   8.119  18.558  0.00  0.00    +0.000 NA
BRANCH  18  19
ATOM     19  C   UNL     1       1.509   8.679  19.545  0.00  0.00    +0.000 A 
ATOM     20  C   UNL     1       1.437   8.046  20.794  0.00  0.00    +0.000 A 
ATOM     21  C   UNL     1       0.550   8.490  21.777  0.00  0.00    +0.000 A 
ATOM     22  C   UNL     1      -0.279   9.581  21.522  0.00  0.00    +0.000 A 
ATOM     23  C   UNL     1      -0.215  10.236  20.286  0.00  0.00    +0.000 A 
ATOM     24  C   UNL     1       0.667   9.777  19.298  0.00  0.00    +0.000 A 
BRANCH  23  25
ATOM     25  C   UNL     1      -1.160  11.356  20.046  0.00  0.00    +0.000 C 
ATOM     26  O   UNL     1      -1.188  12.356  20.744  0.00  0.00    +0.000 OA
BRANCH  25  27
ATOM     27  O   UNL     1      -1.954  11.189  18.967  0.00  0.00    +0.000 OA
ATOM     28  H   UNL     1      -2.300  12.009  18.571  0.00  0.00    +0.000 HD
ENDBRANCH  25  27
ENDBRANCH  23  25
ENDBRANCH  18  19
ENDBRANCH   4  17
TORSDOF 9
ENDMDL
MODEL 9
REMARK VINA RESULT:      -7.1      1.724      2.231
REMARK  Name = 
REMARK  9 active torsions:
REMARK  status: ('A' for Active; 'I' for Inactive)
REMARK    1  A    between atoms: C_2  and  O_3
REMARK    2  A    between atoms: C_2  and  C_4
REMARK    3  A    between atoms: C_4  and  C_5
REMARK    4  A    between atoms: C_5  and  N_6
REMARK    5  A    between atoms: C_7  and  C_9
REMARK    6  A    between atoms: C_12  and  N_13
REMARK    7  A    between atoms: N_14  and  C_15
REMARK    8  A    between atoms: C_19  and  C_20
REMARK    9  A    between atoms: C_20  and  O_22
REMARK                            x       y       z     vdW  Elec       q    Type
REMARK                         _______ _______ _______ _____ _____    ______ ____
ROOT
ATOM      1  C   UNL     1       6.057   5.576  18.244  0.00  0.00    +0.000 A 
ATOM      2  C   UNL     1       5.593   6.591  17.401  0.00  0.00    +0.000 A 
ATOM      3  C   UNL     1       6.381   7.725  17.170  0.00  0.00    +0.000 A 
ATOM      4  C   UNL     1       7.635   7.878  17.778  0.00  0.00    +0.000 A 
ATOM      5  C   UNL     1       8.088   6.855  18.624  0.00  0.00    +0.000 A 
ATOM      6  C   UNL     1       7.302   5.717  18.866  0.00  0.00    +0.000 A 
ENDROOT
BRANCH   1   8
ATOM      7  N   UNL     1       4.198   4.113  17.656  0.00  0.00    +0.000 N 
ATOM      8  C   UNL     1       5.248   4.354  18.517  0.00  0.00    +0.000 C 
ATOM      9  O   UNL     1       5.536   3.617  19.452  0.00  0.00    +0.000 OA
ATOM     10  H   UNL     1       4.046   4.717  16.857  0.00  0.00    +0.000 HD
BRANCH   7  11
ATOM     11  C   UNL     1       3.333   2.952  17.779  0.00  0.00    +0.000 C 
BRANCH  11  12
ATOM     12  C   UNL     1       1.920   3.313  18.222  0.00  0.00    +0.000 C 
BRANCH  12  14
ATOM     13  O   UNL     1       2.539   2.504  20.421  0.00  0.00    +0.000 OA
ATOM     14  C   UNL     1       1.687   2.949  19.666  0.00  0.00    +0.000 C 
BRANCH  14  15
ATOM     15  O   UNL     1       0.423   3.199  20.076  0.00  0.00    +0.000 OA
ATOM     16  H   UNL     1       0.229   4.146  20.217  0.00  0.00    +0.000 HD
ENDBRANCH  14  15
ENDBRANCH  12  14
ENDBRANCH  11  12
ENDBRANCH   7  11
ENDBRANCH   1   8
BRANCH   4  17
ATOM     17  N   UNL     1       8.383   9.040  17.476  0.00  0.00    +0.000 NA
ATOM     18  N   UNL     1       8.549   9.768  18.476  0.00  0.00    +0.000 NA
BRANCH  18  19
ATOM     19  C   UNL     1       9.205  10.977  18.161  0.00  0.00    +0.000 A 
ATOM     20  C   UNL     1      10.578  10.936  17.879  0.00  0.00    +0.000 A 
ATOM     21  C   UNL     1      11.305  12.108  17.661  0.00  0.00    +0.000 A 
ATOM     22  C   UNL     1      10.662  13.344  17.719  0.00  0.00    +0.000 A 
ATOM     23  C   UNL     1       9.289  13.408  17.988  0.00  0.00    +0.000 A 
ATOM     24  C   UNL     1       8.568  12.229  18.220  0.00  0.00    +0.000 A 
BRANCH  23  25
ATOM     25  C   UNL     1       8.666  14.751  18.096  0.00  0.00    +0.000 C 
ATOM     26  O   UNL     1       9.013  15.574  18.928  0.00  0.00    +0.000 OA
BRANCH  25  27
ATOM     27  O   UNL     1       7.715  14.997  17.170  0.00  0.00    +0.000 OA
ATOM     28  H   UNL     1       6.854  15.287  17.521  0.00  0.00    +0.000 HD
ENDBRANCH  25  27
ENDBRANCH  23  25
ENDBRANCH  18  19
ENDBRANCH   4  17
TORSDOF 9
ENDMDL
