MODEL 1
REMARK VINA RESULT:      -7.6      0.000      0.000
REMARK  Name = 
REMARK  7 active torsions:
REMARK  status: ('A' for Active; 'I' for Inactive)
REMARK    1  A    between atoms: C_6  and  N_7
REMARK    2  A    between atoms: N_7  and  C_8
REMARK    3  A    between atoms: C_13  and  O_14
REMARK    4  A    between atoms: O_14  and  C_15
REMARK    5  A    between atoms: C_15  and  C_16
REMARK    6  A    between atoms: C_16  and  C_17
REMARK    7  A    between atoms: C_17  and  C_18
REMARK                            x       y       z     vdW  Elec       q    Type
REMARK                         _______ _______ _______ _____ _____    ______ ____
ROOT
ATOM      1  C   UNL     1       2.372   4.849  19.775  0.00  0.00    +0.000 A 
ATOM      2  N   UNL     1       1.613   4.422  20.814  0.00  0.00    +0.000 NA
ATOM      3  C   UNL     1       0.982   3.239  20.699  0.00  0.00    +0.000 A 
ATOM      4  C   UNL     1       1.053   2.444  19.572  0.00  0.00    +0.000 A 
ATOM      5  C   UNL     1       1.818   2.887  18.495  0.00  0.00    +0.000 A 
ATOM      6  C   UNL     1       2.487   4.109  18.582  0.00  0.00    +0.000 A 
ENDROOT
BRANCH   1   7
ATOM      7  N   UNL     1       2.984   6.132  19.845  0.00  0.00    +0.000 N 
ATOM      8  H   UNL     1       3.403   6.221  20.769  0.00  0.00    +0.000 HD
BRANCH   7  14
ATOM      9 BR   UNL     1      -0.058  10.242  21.277  0.00  0.00    +0.000 Br
ATOM     10  C   UNL     1       0.994   9.284  20.031  0.00  0.00    +0.000 A 
ATOM     11  C   UNL     1       1.172   9.786  18.744  0.00  0.00    +0.000 A 
ATOM     12  C   UNL     1       1.961   9.083  17.835  0.00  0.00    +0.000 A 
ATOM     13  C   UNL     1       2.556   7.875  18.213  0.00  0.00    +0.000 A 
ATOM     14  C   UNL     1       2.338   7.340  19.488  0.00  0.00    +0.000 A 
ATOM     15  C   UNL     1       1.584   8.079  20.408  0.00  0.00    +0.000 A 
ENDBRANCH   7  14
ENDBRANCH   1   7
BRANCH   6  16
ATOM     16  O   UNL     1       3.326   4.613  17.620  0.00  0.00    +0.000 OA
BRANCH  16  17
ATOM     17  C   UNL     1       3.932   3.669  16.735  0.00  0.00    +0.000 C 
BRANCH  17  18
ATOM     18  C   UNL     1       5.110   4.362  16.050  0.00  0.00    +0.000 C 
BRANCH  18  19
ATOM     19  C   UNL     1       5.104   5.868  16.314  0.00  0.00    +0.000 C 
BRANCH  19  20
ATOM     20  C   UNL     1       6.249   6.303  17.192  0.00  0.00    +0.000 A 
ATOM     21  C   UNL     1       6.829   7.564  17.044  0.00  0.00    +0.000 A 
ATOM     22  C   UNL     1       7.874   7.923  17.883  0.00  0.00    +0.000 A 
ATOM     23  N   UNL     1       8.375   7.120  18.844  0.00  0.00    +0.000 NA
ATOM     24  C   UNL     1       7.808   5.903  18.967  0.00  0.00    +0.000 A 
ATOM     25  C   UNL     1       6.761   5.452  18.174  0.00  0.00    +0.000 A 
ENDBRANCH  19  20
ENDBRANCH  18  19
ENDBRANCH  17  18
ENDBRANCH  16  17
ENDBRANCH   6  16
TORSDOF 7
ENDMDL
MODEL 2
REMARK VINA RESULT:      -7.5      0.662      1.183
REMARK  Name = 
REMARK  7 active torsions:
REMARK  status: ('A' for Active; 'I' for Inactive)
REMARK    1  A    between atoms: C_6  and  N_7
REMARK    2  A    between atoms: N_7  and  C_8
REMARK    3  A    between atoms: C_13  and  O_14
REMARK    4  A    between atoms: O_14  and  C_15
REMARK    5  A    between atoms: C_15  and  C_16
REMARK    6  A    between atoms: C_16  and  C_17
REMARK    7  A    between atoms: C_17  and  C_18
REMARK                            x       y       z     vdW  Elec       q    Type
REMARK                         _______ _______ _______ _____ _____    ______ ____
ROOT
ATOM      1  C   UNL     1       2.315   4.867  19.852  0.00  0.00    +0.000 A 
ATOM      2  N   UNL     1       1.192   4.453  20.489  0.00  0.00    +0.000 NA
ATOM      3  C   UNL     1       0.688   3.245  20.173  0.00  0.00    +0.000 A 
ATOM      4  C   UNL     1       1.243   2.413  19.221  0.00  0.00    +0.000 A 
ATOM      5  C   UNL     1       2.387   2.842  18.552  0.00  0.00    +0.000 A 
ATOM      6  C   UNL     1       2.937   4.088  18.856  0.00  0.00    +0.000 A 
ENDROOT
BRANCH   1   7
ATOM      7  N   UNL     1       2.820   6.172  20.113  0.00  0.00    +0.000 N 
ATOM      8  H   UNL     1       2.997   6.235  21.114  0.00  0.00    +0.000 HD
BRANCH   7  14
ATOM      9 BR   UNL     1      -0.055  10.505  21.188  0.00  0.00    +0.000 Br
ATOM     10  C   UNL     1       0.946   9.399  20.026  0.00  0.00    +0.000 A 
ATOM     11  C   UNL     1       1.127   9.773  18.697  0.00  0.00    +0.000 A 
ATOM     12  C   UNL     1       1.879   8.962  17.850  0.00  0.00    +0.000 A 
ATOM     13  C   UNL     1       2.435   7.772  18.332  0.00  0.00    +0.000 A 
ATOM     14  C   UNL     1       2.213   7.365  19.653  0.00  0.00    +0.000 A 
ATOM     15  C   UNL     1       1.498   8.212  20.508  0.00  0.00    +0.000 A 
ENDBRANCH   7  14
ENDBRANCH   1   7
BRANCH   6  16
ATOM     16  O   UNL     1       4.098   4.585  18.319  0.00  0.00    +0.000 OA
BRANCH  16  17
ATOM     17  C   UNL     1       4.141   4.727  16.897  0.00  0.00    +0.000 C 
BRANCH  17  18
ATOM     18  C   UNL     1       5.174   3.736  16.362  0.00  0.00    +0.000 C 
BRANCH  18  19
ATOM     19  C   UNL     1       6.422   4.452  15.847  0.00  0.00    +0.000 C 
BRANCH  19  20
ATOM     20  C   UNL     1       7.030   5.365  16.880  0.00  0.00    +0.000 A 
ATOM     21  C   UNL     1       7.542   4.856  18.075  0.00  0.00    +0.000 A 
ATOM     22  C   UNL     1       8.101   5.736  18.992  0.00  0.00    +0.000 A 
ATOM     23  N   UNL     1       8.180   7.069  18.802  0.00  0.00    +0.000 NA
ATOM     24  C   UNL     1       7.673   7.543  17.646  0.00  0.00    +0.000 A 
ATOM     25  C   UNL     1       7.092   6.744  16.669  0.00  0.00    +0.000 A 
ENDBRANCH  19  20
ENDBRANCH  18  19
ENDBRANCH  17  18
ENDBRANCH  16  17
ENDBRANCH   6  16
TORSDOF 7
ENDMDL
MODEL 3
REMARK VINA RESULT:      -7.3      3.263      5.607
REMARK  Name = 
REMARK  7 active torsions:
REMARK  status: ('A' for Active; 'I' for Inactive)
REMARK    1  A    between atoms: C_6  and  N_7
REMARK    2  A    between atoms: N_7  and  C_8
REMARK    3  A    between atoms: C_13  and  O_14
REMARK    4  A    between atoms: O_14  and  C_15
REMARK    5  A    between atoms: C_15  and  C_16
REMARK    6  A    between atoms: C_16  and  C_17
REMARK    7  A    between atoms: C_17  and  C_18
REMARK                            x       y       z     vdW  Elec       q    Type
REMARK                         _______ _______ _______ _____ _____    ______ ____
ROOT
ATOM      1  C   UNL     1       6.334   4.338  17.061  0.00  0.00    +0.000 A 
ATOM      2  N   UNL     1       5.669   3.454  16.277  0.00  0.00    +0.000 NA
ATOM      3  C   UNL     1       5.747   3.602  14.941  0.00  0.00    +0.000 A 
ATOM      4  C   UNL     1       6.454   4.617  14.327  0.00  0.00    +0.000 A 
ATOM      5  C   UNL     1       7.125   5.537  15.129  0.00  0.00    +0.000 A 
ATOM      6  C   UNL     1       7.066   5.412  16.518  0.00  0.00    +0.000 A 
ENDROOT
BRANCH   1   7
ATOM      7  N   UNL     1       6.201   4.247  18.475  0.00  0.00    +0.000 N 
ATOM      8  H   UNL     1       6.762   3.455  18.784  0.00  0.00    +0.000 HD
BRANCH   7  14
ATOM      9 BR   UNL     1       1.987   6.993  20.177  0.00  0.00    +0.000 Br
ATOM     10  C   UNL     1       2.970   5.394  19.951  0.00  0.00    +0.000 A 
ATOM     11  C   UNL     1       2.457   4.191  20.431  0.00  0.00    +0.000 A 
ATOM     12  C   UNL     1       3.180   3.013  20.247  0.00  0.00    +0.000 A 
ATOM     13  C   UNL     1       4.417   3.046  19.597  0.00  0.00    +0.000 A 
ATOM     14  C   UNL     1       4.962   4.259  19.159  0.00  0.00    +0.000 A 
ATOM     15  C   UNL     1       4.205   5.428  19.305  0.00  0.00    +0.000 A 
ENDBRANCH   7  14
ENDBRANCH   1   7
BRANCH   6  16
ATOM     16  O   UNL     1       7.743   6.210  17.407  0.00  0.00    +0.000 OA
BRANCH  16  17
ATOM     17  C   UNL     1       7.287   7.558  17.538  0.00  0.00    +0.000 C 
BRANCH  17  18
ATOM     18  C   UNL     1       8.391   8.358  18.228  0.00  0.00    +0.000 C 
BRANCH  18  19
ATOM     19  C   UNL     1       8.252   9.856  17.955  0.00  0.00    +0.000 C 
BRANCH  19  20
ATOM     20  C   UNL     1       9.333  10.665  18.624  0.00  0.00    +0.000 A 
ATOM     21  C   UNL     1      10.336  11.283  17.873  0.00  0.00    +0.000 A 
ATOM     22  C   UNL     1      11.304  12.027  18.534  0.00  0.00    +0.000 A 
ATOM     23  N   UNL     1      11.340  12.191  19.872  0.00  0.00    +0.000 NA
ATOM     24  C   UNL     1      10.369  11.581  20.581  0.00  0.00    +0.000 A 
ATOM     25  C   UNL     1       9.360  10.814  20.012  0.00  0.00    +0.000 A 
ENDBRANCH  19  20
ENDBRANCH  18  19
ENDBRANCH  17  18
ENDBRANCH  16  17
ENDBRANCH   6  16
TORSDOF 7
ENDMDL
MODEL 4
REMARK VINA RESULT:      -7.2      2.389      6.080
REMARK  Name = 
REMARK  7 active torsions:
REMARK  status: ('A' for Active; 'I' for Inactive)
REMARK    1  A    between atoms: C_6  and  N_7
REMARK    2  A    between atoms: N_7  and  C_8
REMARK    3  A    between atoms: C_13  and  O_14
REMARK    4  A    between atoms: O_14  and  C_15
REMARK    5  A    between atoms: C_15  and  C_16
REMARK    6  A    between atoms: C_16  and  C_17
REMARK    7  A    between atoms: C_17  and  C_18
REMARK                            x       y       z     vdW  Elec       q    Type
REMARK                         _______ _______ _______ _____ _____    ______ ____
ROOT
ATOM      1  C   UNL     1       5.951   4.719  17.782  0.00  0.00    +0.000 A 
ATOM      2  N   UNL     1       7.111   4.371  18.391  0.00  0.00    +0.000 NA
ATOM      3  C   UNL     1       7.987   5.347  18.697  0.00  0.00    +0.000 A 
ATOM      4  C   UNL     1       7.775   6.680  18.409  0.00  0.00    +0.000 A 
ATOM      5  C   UNL     1       6.591   7.039  17.768  0.00  0.00    +0.000 A 
ATOM      6  C   UNL     1       5.660   6.053  17.438  0.00  0.00    +0.000 A 
ENDROOT
BRANCH   1   7
ATOM      7  N   UNL     1       5.046   3.696  17.379  0.00  0.00    +0.000 N 
ATOM      8  H   UNL     1       4.922   3.779  16.372  0.00  0.00    +0.000 HD
BRANCH   7  14
ATOM      9 BR   UNL     1       2.246   3.127  21.855  0.00  0.00    +0.000 Br
ATOM     10  C   UNL     1       2.406   3.210  19.973  0.00  0.00    +0.000 A 
ATOM     11  C   UNL     1       1.275   3.061  19.174  0.00  0.00    +0.000 A 
ATOM     12  C   UNL     1       1.397   3.139  17.787  0.00  0.00    +0.000 A 
ATOM     13  C   UNL     1       2.652   3.351  17.207  0.00  0.00    +0.000 A 
ATOM     14  C   UNL     1       3.799   3.449  18.002  0.00  0.00    +0.000 A 
ATOM     15  C   UNL     1       3.657   3.419  19.395  0.00  0.00    +0.000 A 
ENDBRANCH   7  14
ENDBRANCH   1   7
BRANCH   6  16
ATOM     16  O   UNL     1       4.431   6.292  16.874  0.00  0.00    +0.000 OA
BRANCH  16  17
ATOM     17  C   UNL     1       3.666   7.365  17.428  0.00  0.00    +0.000 C 
BRANCH  17  18
ATOM     18  C   UNL     1       2.402   6.767  18.043  0.00  0.00    +0.000 C 
BRANCH  18  19
ATOM     19  C   UNL     1       2.398   6.907  19.565  0.00  0.00    +0.000 C 
BRANCH  19  20
ATOM     20  C   UNL     1       1.712   8.167  20.024  0.00  0.00    +0.000 A 
ATOM     21  C   UNL     1       1.392   8.361  21.370  0.00  0.00    +0.000 A 
ATOM     22  C   UNL     1       0.769   9.543  21.747  0.00  0.00    +0.000 A 
ATOM     23  N   UNL     1       0.446  10.529  20.885  0.00  0.00    +0.000 NA
ATOM     24  C   UNL     1       0.755  10.321  19.589  0.00  0.00    +0.000 A 
ATOM     25  C   UNL     1       1.375   9.172  19.115  0.00  0.00    +0.000 A 
ENDBRANCH  19  20
ENDBRANCH  18  19
ENDBRANCH  17  18
ENDBRANCH  16  17
ENDBRANCH   6  16
TORSDOF 7
ENDMDL
MODEL 5
REMARK VINA RESULT:      -7.2      3.193      6.458
REMARK  Name = 
REMARK  7 active torsions:
REMARK  status: ('A' for Active; 'I' for Inactive)
REMARK    1  A    between atoms: C_6  and  N_7
REMARK    2  A    between atoms: N_7  and  C_8
REMARK    3  A    between atoms: C_13  and  O_14
REMARK    4  A    between atoms: O_14  and  C_15
REMARK    5  A    between atoms: C_15  and  C_16
REMARK    6  A    between atoms: C_16  and  C_17
REMARK    7  A    between atoms: C_17  and  C_18
REMARK                            x       y       z     vdW  Elec       q    Type
REMARK                         _______ _______ _______ _____ _____    ______ ____
ROOT
ATOM      1  C   UNL     1       3.679   3.351  19.220  0.00  0.00    +0.000 A 
ATOM      2  N   UNL     1       3.273   2.090  18.933  0.00  0.00    +0.000 NA
ATOM      3  C   UNL     1       1.951   1.842  18.877  0.00  0.00    +0.000 A 
ATOM      4  C   UNL     1       0.985   2.800  19.114  0.00  0.00    +0.000 A 
ATOM      5  C   UNL     1       1.398   4.094  19.425  0.00  0.00    +0.000 A 
ATOM      6  C   UNL     1       2.761   4.385  19.491  0.00  0.00    +0.000 A 
ENDROOT
BRANCH   1   7
ATOM      7  N   UNL     1       5.070   3.618  19.361  0.00  0.00    +0.000 N 
ATOM      8  H   UNL     1       5.222   3.947  20.313  0.00  0.00    +0.000 HD
BRANCH   7  14
ATOM      9 BR   UNL     1       6.396   4.711  14.338  0.00  0.00    +0.000 Br
ATOM     10  C   UNL     1       6.479   5.019  16.201  0.00  0.00    +0.000 A 
ATOM     11  C   UNL     1       7.267   6.053  16.699  0.00  0.00    +0.000 A 
ATOM     12  C   UNL     1       7.311   6.284  18.073  0.00  0.00    +0.000 A 
ATOM     13  C   UNL     1       6.578   5.470  18.943  0.00  0.00    +0.000 A 
ATOM     14  C   UNL     1       5.825   4.397  18.453  0.00  0.00    +0.000 A 
ATOM     15  C   UNL     1       5.749   4.206  17.068  0.00  0.00    +0.000 A 
ENDBRANCH   7  14
ENDBRANCH   1   7
BRANCH   6  16
ATOM     16  O   UNL     1       3.286   5.634  19.715  0.00  0.00    +0.000 OA
BRANCH  16  17
ATOM     17  C   UNL     1       2.557   6.744  19.186  0.00  0.00    +0.000 C 
BRANCH  17  18
ATOM     18  C   UNL     1       2.009   7.546  20.365  0.00  0.00    +0.000 C 
BRANCH  18  19
ATOM     19  C   UNL     1       1.290   8.811  19.897  0.00  0.00    +0.000 C 
BRANCH  19  20
ATOM     20  C   UNL     1       0.629   9.551  21.031  0.00  0.00    +0.000 A 
ATOM     21  C   UNL     1       0.268  10.893  20.899  0.00  0.00    +0.000 A 
ATOM     22  C   UNL     1      -0.347  11.529  21.968  0.00  0.00    +0.000 A 
ATOM     23  N   UNL     1      -0.619  10.927  23.144  0.00  0.00    +0.000 NA
ATOM     24  C   UNL     1      -0.256   9.634  23.256  0.00  0.00    +0.000 A 
ATOM     25  C   UNL     1       0.366   8.912  22.245  0.00  0.00    +0.000 A 
ENDBRANCH  19  20
ENDBRANCH  18  19
ENDBRANCH  17  18
ENDBRANCH  16  17
ENDBRANCH   6  16
TORSDOF 7
ENDMDL
MODEL 6
REMARK VINA RESULT:      -7.1      2.747      5.350
REMARK  Name = 
REMARK  7 active torsions:
REMARK  status: ('A' for Active; 'I' for Inactive)
REMARK    1  A    between atoms: C_6  and  N_7
REMARK    2  A    between atoms: N_7  and  C_8
REMARK    3  A    between atoms: C_13  and  O_14
REMARK    4  A    between atoms: O_14  and  C_15
REMARK    5  A    between atoms: C_15  and  C_16
REMARK    6  A    between atoms: C_16  and  C_17
REMARK    7  A    between atoms: C_17  and  C_18
REMARK                            x       y       z     vdW  Elec       q    Type
REMARK                         _______ _______ _______ _____ _____    ______ ____
ROOT
ATOM      1  C   UNL     1       3.227   2.716  19.270  0.00  0.00    +0.000 A 
ATOM      2  N   UNL     1       3.691   2.254  20.458  0.00  0.00    +0.000 NA
ATOM      3  C   UNL     1       2.919   2.413  21.549  0.00  0.00    +0.000 A 
ATOM      4  C   UNL     1       1.687   3.038  21.527  0.00  0.00    +0.000 A 
ATOM      5  C   UNL     1       1.215   3.529  20.312  0.00  0.00    +0.000 A 
ATOM      6  C   UNL     1       1.989   3.379  19.160  0.00  0.00    +0.000 A 
ENDROOT
BRANCH   1   7
ATOM      7  N   UNL     1       4.060   2.628  18.119  0.00  0.00    +0.000 N 
ATOM      8  H   UNL     1       4.642   1.799  18.226  0.00  0.00    +0.000 HD
BRANCH   7  14
ATOM      9 BR   UNL     1       7.873   6.236  18.919  0.00  0.00    +0.000 Br
ATOM     10  C   UNL     1       6.585   5.364  17.844  0.00  0.00    +0.000 A 
ATOM     11  C   UNL     1       6.410   5.753  16.519  0.00  0.00    +0.000 A 
ATOM     12  C   UNL     1       5.469   5.095  15.727  0.00  0.00    +0.000 A 
ATOM     13  C   UNL     1       4.699   4.062  16.270  0.00  0.00    +0.000 A 
ATOM     14  C   UNL     1       4.834   3.701  17.616  0.00  0.00    +0.000 A 
ATOM     15  C   UNL     1       5.815   4.335  18.387  0.00  0.00    +0.000 A 
ENDBRANCH   7  14
ENDBRANCH   1   7
BRANCH   6  16
ATOM     16  O   UNL     1       1.599   3.755  17.899  0.00  0.00    +0.000 OA
BRANCH  16  17
ATOM     17  C   UNL     1       1.420   5.154  17.669  0.00  0.00    +0.000 C 
BRANCH  17  18
ATOM     18  C   UNL     1       2.448   5.901  18.519  0.00  0.00    +0.000 C 
BRANCH  18  19
ATOM     19  C   UNL     1       2.756   7.281  17.940  0.00  0.00    +0.000 C 
BRANCH  19  20
ATOM     20  C   UNL     1       1.992   8.379  18.632  0.00  0.00    +0.000 A 
ATOM     21  C   UNL     1       1.630   8.265  19.976  0.00  0.00    +0.000 A 
ATOM     22  C   UNL     1       0.936   9.308  20.573  0.00  0.00    +0.000 A 
ATOM     23  N   UNL     1       0.580  10.439  19.929  0.00  0.00    +0.000 NA
ATOM     24  C   UNL     1       0.930  10.528  18.630  0.00  0.00    +0.000 A 
ATOM     25  C   UNL     1       1.623   9.538  17.945  0.00  0.00    +0.000 A 
ENDBRANCH  19  20
ENDBRANCH  18  19
ENDBRANCH  17  18
ENDBRANCH  16  17
ENDBRANCH   6  16
TORSDOF 7
ENDMDL
MODEL 7
REMARK VINA RESULT:      -7.1      1.671      2.663
REMARK  Name = 
REMARK  7 active torsions:
REMARK  status: ('A' for Active; 'I' for Inactive)
REMARK    1  A    between atoms: C_6  and  N_7
REMARK    2  A    between atoms: N_7  and  C_8
REMARK    3  A    between atoms: C_13  and  O_14
REMARK    4  A    between atoms: O_14  and  C_15
REMARK    5  A    between atoms: C_15  and  C_16
REMARK    6  A    between atoms: C_16  and  C_17
REMARK    7  A    between atoms: C_17  and  C_18
REMARK                            x       y       z     vdW  Elec       q    Type
REMARK                         _______ _______ _______ _____ _____    ______ ____
ROOT
ATOM      1  C   UNL     1       2.772   5.085  19.458  0.00  0.00    +0.000 A 
ATOM      2  N   UNL     1       1.654   4.366  19.189  0.00  0.00    +0.000 NA
ATOM      3  C   UNL     1       1.766   3.284  18.396  0.00  0.00    +0.000 A 
ATOM      4  C   UNL     1       2.957   2.877  17.826  0.00  0.00    +0.000 A 
ATOM      5  C   UNL     1       4.105   3.622  18.086  0.00  0.00    +0.000 A 
ATOM      6  C   UNL     1       4.024   4.749  18.905  0.00  0.00    +0.000 A 
ENDROOT
BRANCH   1   7
ATOM      7  N   UNL     1       2.663   6.276  20.229  0.00  0.00    +0.000 N 
ATOM      8  H   UNL     1       2.231   6.025  21.117  0.00  0.00    +0.000 HD
BRANCH   7  14
ATOM      9 BR   UNL     1      -0.155  10.674  21.183  0.00  0.00    +0.000 Br
ATOM     10  C   UNL     1       0.877   9.550  20.067  0.00  0.00    +0.000 A 
ATOM     11  C   UNL     1       1.136   9.927  18.752  0.00  0.00    +0.000 A 
ATOM     12  C   UNL     1       1.911   9.101  17.939  0.00  0.00    +0.000 A 
ATOM     13  C   UNL     1       2.411   7.896  18.442  0.00  0.00    +0.000 A 
ATOM     14  C   UNL     1       2.111   7.486  19.746  0.00  0.00    +0.000 A 
ATOM     15  C   UNL     1       1.373   8.347  20.568  0.00  0.00    +0.000 A 
ENDBRANCH   7  14
ENDBRANCH   1   7
BRANCH   6  16
ATOM     16  O   UNL     1       5.095   5.516  19.291  0.00  0.00    +0.000 OA
BRANCH  16  17
ATOM     17  C   UNL     1       6.369   4.870  19.333  0.00  0.00    +0.000 C 
BRANCH  17  18
ATOM     18  C   UNL     1       7.430   5.907  18.966  0.00  0.00    +0.000 C 
BRANCH  18  19
ATOM     19  C   UNL     1       7.008   6.735  17.753  0.00  0.00    +0.000 C 
BRANCH  19  20
ATOM     20  C   UNL     1       6.583   5.877  16.590  0.00  0.00    +0.000 A 
ATOM     21  C   UNL     1       7.290   4.720  16.255  0.00  0.00    +0.000 A 
ATOM     22  C   UNL     1       6.855   3.956  15.182  0.00  0.00    +0.000 A 
ATOM     23  N   UNL     1       5.779   4.265  14.428  0.00  0.00    +0.000 NA
ATOM     24  C   UNL     1       5.114   5.390  14.760  0.00  0.00    +0.000 A 
ATOM     25  C   UNL     1       5.473   6.220  15.815  0.00  0.00    +0.000 A 
ENDBRANCH  19  20
ENDBRANCH  18  19
ENDBRANCH  17  18
ENDBRANCH  16  17
ENDBRANCH   6  16
TORSDOF 7
ENDMDL
MODEL 8
REMARK VINA RESULT:      -7.1      3.101      6.259
REMARK  Name = 
REMARK  7 active torsions:
REMARK  status: ('A' for Active; 'I' for Inactive)
REMARK    1  A    between atoms: C_6  and  N_7
REMARK    2  A    between atoms: N_7  and  C_8
REMARK    3  A    between atoms: C_13  and  O_14
REMARK    4  A    between atoms: O_14  and  C_15
REMARK    5  A    between atoms: C_15  and  C_16
REMARK    6  A    between atoms: C_16  and  C_17
REMARK    7  A    between atoms: C_17  and  C_18
REMARK                            x       y       z     vdW  Elec       q    Type
REMARK                         _______ _______ _______ _____ _____    ______ ____
ROOT
ATOM      1  C   UNL     1       3.678   3.353  19.160  0.00  0.00    +0.000 A 
ATOM      2  N   UNL     1       3.295   2.063  18.987  0.00  0.00    +0.000 NA
ATOM      3  C   UNL     1       1.978   1.795  18.900  0.00  0.00    +0.000 A 
ATOM      4  C   UNL     1       0.996   2.761  18.995  0.00  0.00    +0.000 A 
ATOM      5  C   UNL     1       1.384   4.085  19.189  0.00  0.00    +0.000 A 
ATOM      6  C   UNL     1       2.741   4.398  19.283  0.00  0.00    +0.000 A 
ENDROOT
BRANCH   1   7
ATOM      7  N   UNL     1       5.059   3.649  19.333  0.00  0.00    +0.000 N 
ATOM      8  H   UNL     1       5.178   4.002  20.281  0.00  0.00    +0.000 HD
BRANCH   7  14
ATOM      9 BR   UNL     1       6.487   4.670  14.322  0.00  0.00    +0.000 Br
ATOM     10  C   UNL     1       6.522   5.012  16.181  0.00  0.00    +0.000 A 
ATOM     11  C   UNL     1       7.284   6.066  16.678  0.00  0.00    +0.000 A 
ATOM     12  C   UNL     1       7.293   6.323  18.048  0.00  0.00    +0.000 A 
ATOM     13  C   UNL     1       6.551   5.515  18.915  0.00  0.00    +0.000 A 
ATOM     14  C   UNL     1       5.824   4.422  18.428  0.00  0.00    +0.000 A 
ATOM     15  C   UNL     1       5.783   4.205  17.045  0.00  0.00    +0.000 A 
ENDBRANCH   7  14
ENDBRANCH   1   7
BRANCH   6  16
ATOM     16  O   UNL     1       3.246   5.669  19.400  0.00  0.00    +0.000 OA
BRANCH  16  17
ATOM     17  C   UNL     1       2.884   6.602  18.379  0.00  0.00    +0.000 C 
BRANCH  17  18
ATOM     18  C   UNL     1       2.231   7.805  19.059  0.00  0.00    +0.000 C 
BRANCH  18  19
ATOM     19  C   UNL     1       1.702   8.809  18.034  0.00  0.00    +0.000 C 
BRANCH  19  20
ATOM     20  C   UNL     1       0.643   9.714  18.609  0.00  0.00    +0.000 A 
ATOM     21  C   UNL     1      -0.486  10.059  17.864  0.00  0.00    +0.000 A 
ATOM     22  C   UNL     1      -1.440  10.887  18.440  0.00  0.00    +0.000 A 
ATOM     23  N   UNL     1      -1.343  11.389  19.689  0.00  0.00    +0.000 NA
ATOM     24  C   UNL     1      -0.241  11.052  20.389  0.00  0.00    +0.000 A 
ATOM     25  C   UNL     1       0.768  10.232  19.899  0.00  0.00    +0.000 A 
ENDBRANCH  19  20
ENDBRANCH  18  19
ENDBRANCH  17  18
ENDBRANCH  16  17
ENDBRANCH   6  16
TORSDOF 7
ENDMDL
MODEL 9
REMARK VINA RESULT:      -7.0      3.012      5.854
REMARK  Name = 
REMARK  7 active torsions:
REMARK  status: ('A' for Active; 'I' for Inactive)
REMARK    1  A    between atoms: C_6  and  N_7
REMARK    2  A    between atoms: N_7  and  C_8
REMARK    3  A    between atoms: C_13  and  O_14
REMARK    4  A    between atoms: O_14  and  C_15
REMARK    5  A    between atoms: C_15  and  C_16
REMARK    6  A    between atoms: C_16  and  C_17
REMARK    7  A    between atoms: C_17  and  C_18
REMARK                            x       y       z     vdW  Elec       q    Type
REMARK                         _______ _______ _______ _____ _____    ______ ____
ROOT
ATOM      1  C   UNL     1       3.601   3.522  19.309  0.00  0.00    +0.000 A 
ATOM      2  N   UNL     1       3.246   2.298  18.845  0.00  0.00    +0.000 NA
ATOM      3  C   UNL     1       1.935   2.006  18.755  0.00  0.00    +0.000 A 
ATOM      4  C   UNL     1       0.932   2.880  19.126  0.00  0.00    +0.000 A 
ATOM      5  C   UNL     1       1.292   4.132  19.619  0.00  0.00    +0.000 A 
ATOM      6  C   UNL     1       2.643   4.468  19.724  0.00  0.00    +0.000 A 
ENDROOT
BRANCH   1   7
ATOM      7  N   UNL     1       4.980   3.823  19.486  0.00  0.00    +0.000 N 
ATOM      8  H   UNL     1       5.082   4.255  20.403  0.00  0.00    +0.000 HD
BRANCH   7  14
ATOM      9 BR   UNL     1       6.394   4.523  14.416  0.00  0.00    +0.000 Br
ATOM     10  C   UNL     1       6.468   4.955  16.255  0.00  0.00    +0.000 A 
ATOM     11  C   UNL     1       7.286   5.995  16.691  0.00  0.00    +0.000 A 
ATOM     12  C   UNL     1       7.324   6.319  18.046  0.00  0.00    +0.000 A 
ATOM     13  C   UNL     1       6.554   5.592  18.960  0.00  0.00    +0.000 A 
ATOM     14  C   UNL     1       5.770   4.513  18.535  0.00  0.00    +0.000 A 
ATOM     15  C   UNL     1       5.702   4.229  17.166  0.00  0.00    +0.000 A 
ENDBRANCH   7  14
ENDBRANCH   1   7
BRANCH   6  16
ATOM     16  O   UNL     1       3.117   5.693  20.124  0.00  0.00    +0.000 OA
BRANCH  16  17
ATOM     17  C   UNL     1       2.329   6.833  19.777  0.00  0.00    +0.000 C 
BRANCH  17  18
ATOM     18  C   UNL     1       2.923   7.442  18.508  0.00  0.00    +0.000 C 
BRANCH  18  19
ATOM     19  C   UNL     1       1.835   8.009  17.596  0.00  0.00    +0.000 C 
BRANCH  19  20
ATOM     20  C   UNL     1       1.403   9.392  18.007  0.00  0.00    +0.000 A 
ATOM     21  C   UNL     1       0.075   9.657  18.347  0.00  0.00    +0.000 A 
ATOM     22  C   UNL     1      -0.273  10.945  18.730  0.00  0.00    +0.000 A 
ATOM     23  N   UNL     1       0.600  11.972  18.793  0.00  0.00    +0.000 NA
ATOM     24  C   UNL     1       1.875  11.699  18.453  0.00  0.00    +0.000 A 
ATOM     25  C   UNL     1       2.320  10.444  18.055  0.00  0.00    +0.000 A 
ENDBRANCH  19  20
ENDBRANCH  18  19
ENDBRANCH  17  18
ENDBRANCH  16  17
ENDBRANCH   6  16
TORSDOF 7
ENDMDL
