MODEL 1
REMARK VINA RESULT:      -8.6      0.000      0.000
REMARK  Name = 
REMARK  6 active torsions:
REMARK  status: ('A' for Active; 'I' for Inactive)
REMARK    1  A    between atoms: C_2  and  C_3
REMARK    2  A    between atoms: C_3  and  N_4
REMARK    3  A    between atoms: N_10  and  C_11
REMARK    4  A    between atoms: C_14  and  N_15
REMARK    5  A    between atoms: N_15  and  C_16
REMARK    6  A    between atoms: C_24  and  N_25
REMARK                            x       y       z     vdW  Elec       q    Type
REMARK                         _______ _______ _______ _____ _____    ______ ____
ROOT
ATOM      1  C   UNL     1       0.277   9.899  20.295  0.00  0.00    +0.000 A 
ATOM      2  C   UNL     1       0.436  10.232  18.936  0.00  0.00    +0.000 A 
ATOM      3  C   UNL     1       1.319   9.525  18.054  0.00  0.00    +0.000 A 
ATOM      4  C   UNL     1       2.072   8.458  18.505  0.00  0.00    +0.000 A 
ATOM      5  C   UNL     1       1.926   8.144  19.891  0.00  0.00    +0.000 A 
ATOM      6  C   UNL     1       1.051   8.841  20.764  0.00  0.00    +0.000 A 
ENDROOT
BRANCH   1   9
ATOM      7  O   UNL     1       0.676  12.441  21.744  0.00  0.00    +0.000 OA
ATOM      8  C   UNL     1      -0.325  11.753  21.914  0.00  0.00    +0.000 C 
ATOM      9  N   UNL     1      -0.589  10.578  21.216  0.00  0.00    +0.000 N 
ATOM     10  H   UNL     1      -1.523  10.176  21.334  0.00  0.00    +0.000 HD
BRANCH   8  11
ATOM     11  C   UNL     1      -1.356  12.157  23.018  0.00  0.00    +0.000 C 
BRANCH  11  12
ATOM     12  N   UNL     1      -1.962  13.502  22.834  0.00  0.00    +0.000 NA
ATOM     13  C   UNL     1      -2.884  13.896  23.932  0.00  0.00    +0.000 C 
ATOM     14  C   UNL     1      -4.233  13.153  23.948  0.00  0.00    +0.000 C 
ATOM     15  O   UNL     1      -4.928  13.312  22.704  0.00  0.00    +0.000 OA
ATOM     16  C   UNL     1      -4.125  12.851  21.614  0.00  0.00    +0.000 C 
ATOM     17  C   UNL     1      -2.759  13.573  21.573  0.00  0.00    +0.000 C 
ENDBRANCH  11  12
ENDBRANCH   8  11
ENDBRANCH   1   9
BRANCH   4  18
ATOM     18  N   UNL     1       2.939   7.613  17.753  0.00  0.00    +0.000 N 
ATOM     19  H   UNL     1       3.613   8.312  17.416  0.00  0.00    +0.000 HD
BRANCH  18  20
ATOM     20  C   UNL     1       3.648   6.390  17.818  0.00  0.00    +0.000 A 
ATOM     21  C   UNL     1       4.735   6.334  17.013  0.00  0.00    +0.000 A 
ATOM     22  C   UNL     1       5.443   5.065  16.886  0.00  0.00    +0.000 A 
ATOM     23  O   UNL     1       6.626   4.910  17.095  0.00  0.00    +0.000 OA
ATOM     24  O   UNL     1       4.575   4.121  16.420  0.00  0.00    +0.000 OA
ATOM     25  C   UNL     1       3.753   3.894  17.525  0.00  0.00    +0.000 A 
ATOM     26  C   UNL     1       3.623   2.529  17.817  0.00  0.00    +0.000 A 
ATOM     27  C   UNL     1       3.060   2.158  19.011  0.00  0.00    +0.000 A 
ATOM     28  C   UNL     1       2.617   3.174  19.877  0.00  0.00    +0.000 A 
ATOM     29  C   UNL     1       2.682   4.582  19.535  0.00  0.00    +0.000 A 
ATOM     30  C   UNL     1       3.268   4.990  18.330  0.00  0.00    +0.000 A 
BRANCH  28  31
ATOM     31  N   UNL     1       2.144   2.730  21.199  0.00  0.00    +0.000 N 
ATOM     32  O   UNL     1       2.978   2.291  22.005  0.00  0.00    +0.000 OA
ATOM     33  O   UNL     1       0.942   2.840  21.439  0.00  0.00    +0.000 OA
ENDBRANCH  28  31
ENDBRANCH  18  20
ENDBRANCH   4  18
TORSDOF 6
ENDMDL
MODEL 2
REMARK VINA RESULT:      -8.5      0.653      1.458
REMARK  Name = 
REMARK  6 active torsions:
REMARK  status: ('A' for Active; 'I' for Inactive)
REMARK    1  A    between atoms: C_2  and  C_3
REMARK    2  A    between atoms: C_3  and  N_4
REMARK    3  A    between atoms: N_10  and  C_11
REMARK    4  A    between atoms: C_14  and  N_15
REMARK    5  A    between atoms: N_15  and  C_16
REMARK    6  A    between atoms: C_24  and  N_25
REMARK                            x       y       z     vdW  Elec       q    Type
REMARK                         _______ _______ _______ _____ _____    ______ ____
ROOT
ATOM      1  C   UNL     1       0.343  10.261  19.925  0.00  0.00    +0.000 A 
ATOM      2  C   UNL     1       0.869   9.128  20.574  0.00  0.00    +0.000 A 
ATOM      3  C   UNL     1       1.734   8.184  19.925  0.00  0.00    +0.000 A 
ATOM      4  C   UNL     1       2.101   8.347  18.603  0.00  0.00    +0.000 A 
ATOM      5  C   UNL     1       1.541   9.484  17.945  0.00  0.00    +0.000 A 
ATOM      6  C   UNL     1       0.688  10.419  18.586  0.00  0.00    +0.000 A 
ENDROOT
BRANCH   1   9
ATOM      7  O   UNL     1       0.996  12.677  21.494  0.00  0.00    +0.000 OA
ATOM      8  C   UNL     1      -0.164  12.324  21.307  0.00  0.00    +0.000 C 
ATOM      9  N   UNL     1      -0.528  11.229  20.529  0.00  0.00    +0.000 N 
ATOM     10  H   UNL     1      -1.526  11.124  20.324  0.00  0.00    +0.000 HD
BRANCH   8  11
ATOM     11  C   UNL     1      -1.324  13.090  22.023  0.00  0.00    +0.000 C 
BRANCH  11  12
ATOM     12  N   UNL     1      -2.604  12.337  22.100  0.00  0.00    +0.000 NA
ATOM     13  C   UNL     1      -3.706  12.955  21.316  0.00  0.00    +0.000 C 
ATOM     14  C   UNL     1      -4.286  14.249  21.916  0.00  0.00    +0.000 C 
ATOM     15  O   UNL     1      -4.756  14.037  23.253  0.00  0.00    +0.000 OA
ATOM     16  C   UNL     1      -3.704  13.538  24.084  0.00  0.00    +0.000 C 
ATOM     17  C   UNL     1      -3.095  12.240  23.506  0.00  0.00    +0.000 C 
ENDBRANCH  11  12
ENDBRANCH   8  11
ENDBRANCH   1   9
BRANCH   4  18
ATOM     18  N   UNL     1       2.997   7.548  17.835  0.00  0.00    +0.000 N 
ATOM     19  H   UNL     1       3.719   8.250  17.626  0.00  0.00    +0.000 HD
BRANCH  18  20
ATOM     20  C   UNL     1       3.659   6.297  17.828  0.00  0.00    +0.000 A 
ATOM     21  C   UNL     1       4.681   6.215  16.943  0.00  0.00    +0.000 A 
ATOM     22  C   UNL     1       5.325   4.921  16.742  0.00  0.00    +0.000 A 
ATOM     23  O   UNL     1       6.512   4.715  16.860  0.00  0.00    +0.000 OA
ATOM     24  O   UNL     1       4.387   4.021  16.326  0.00  0.00    +0.000 OA
ATOM     25  C   UNL     1       3.640   3.805  17.486  0.00  0.00    +0.000 A 
ATOM     26  C   UNL     1       3.477   2.441  17.764  0.00  0.00    +0.000 A 
ATOM     27  C   UNL     1       2.989   2.068  18.989  0.00  0.00    +0.000 A 
ATOM     28  C   UNL     1       2.653   3.085  19.903  0.00  0.00    +0.000 A 
ATOM     29  C   UNL     1       2.749   4.495  19.581  0.00  0.00    +0.000 A 
ATOM     30  C   UNL     1       3.261   4.903  18.343  0.00  0.00    +0.000 A 
BRANCH  28  31
ATOM     31  N   UNL     1       2.260   2.633  21.249  0.00  0.00    +0.000 N 
ATOM     32  O   UNL     1       1.060   2.682  21.559  0.00  0.00    +0.000 OA
ATOM     33  O   UNL     1       3.149   2.210  21.989  0.00  0.00    +0.000 OA
ENDBRANCH  28  31
ENDBRANCH  18  20
ENDBRANCH   4  18
TORSDOF 6
ENDMDL
MODEL 3
REMARK VINA RESULT:      -8.4      1.934      3.982
REMARK  Name = 
REMARK  6 active torsions:
REMARK  status: ('A' for Active; 'I' for Inactive)
REMARK    1  A    between atoms: C_2  and  C_3
REMARK    2  A    between atoms: C_3  and  N_4
REMARK    3  A    between atoms: N_10  and  C_11
REMARK    4  A    between atoms: C_14  and  N_15
REMARK    5  A    between atoms: N_15  and  C_16
REMARK    6  A    between atoms: C_24  and  N_25
REMARK                            x       y       z     vdW  Elec       q    Type
REMARK                         _______ _______ _______ _____ _____    ______ ____
ROOT
ATOM      1  C   UNL     1       0.266  10.343  19.829  0.00  0.00    +0.000 A 
ATOM      2  C   UNL     1       0.748   9.228  20.541  0.00  0.00    +0.000 A 
ATOM      3  C   UNL     1       1.617   8.244  19.961  0.00  0.00    +0.000 A 
ATOM      4  C   UNL     1       2.032   8.347  18.648  0.00  0.00    +0.000 A 
ATOM      5  C   UNL     1       1.517   9.466  17.925  0.00  0.00    +0.000 A 
ATOM      6  C   UNL     1       0.660  10.441  18.498  0.00  0.00    +0.000 A 
ENDROOT
BRANCH   1   9
ATOM      7  O   UNL     1       0.839  12.534  21.725  0.00  0.00    +0.000 OA
ATOM      8  C   UNL     1      -0.293  12.329  21.301  0.00  0.00    +0.000 C 
ATOM      9  N   UNL     1      -0.607  11.349  20.364  0.00  0.00    +0.000 N 
ATOM     10  H   UNL     1      -1.554  11.374  19.974  0.00  0.00    +0.000 HD
BRANCH   8  11
ATOM     11  C   UNL     1      -1.489  13.159  21.872  0.00  0.00    +0.000 C 
BRANCH  11  12
ATOM     12  N   UNL     1      -2.740  12.380  22.071  0.00  0.00    +0.000 NA
ATOM     13  C   UNL     1      -3.943  13.027  21.484  0.00  0.00    +0.000 C 
ATOM     14  C   UNL     1      -4.449  14.270  22.239  0.00  0.00    +0.000 C 
ATOM     15  O   UNL     1      -4.731  13.964  23.610  0.00  0.00    +0.000 OA
ATOM     16  C   UNL     1      -3.573  13.432  24.259  0.00  0.00    +0.000 C 
ATOM     17  C   UNL     1      -3.036  12.185  23.521  0.00  0.00    +0.000 C 
ENDBRANCH  11  12
ENDBRANCH   8  11
ENDBRANCH   1   9
BRANCH   4  18
ATOM     18  N   UNL     1       2.940   7.502  17.944  0.00  0.00    +0.000 N 
ATOM     19  H   UNL     1       3.543   8.216  17.514  0.00  0.00    +0.000 HD
BRANCH  18  20
ATOM     20  C   UNL     1       3.749   6.352  18.097  0.00  0.00    +0.000 A 
ATOM     21  C   UNL     1       3.542   5.676  19.252  0.00  0.00    +0.000 A 
ATOM     22  C   UNL     1       4.433   4.568  19.580  0.00  0.00    +0.000 A 
ATOM     23  O   UNL     1       4.069   3.440  19.829  0.00  0.00    +0.000 OA
ATOM     24  O   UNL     1       5.714   5.035  19.636  0.00  0.00    +0.000 OA
ATOM     25  C   UNL     1       6.010   5.267  18.292  0.00  0.00    +0.000 A 
ATOM     26  C   UNL     1       7.227   4.685  17.910  0.00  0.00    +0.000 A 
ATOM     27  C   UNL     1       7.535   4.609  16.576  0.00  0.00    +0.000 A 
ATOM     28  C   UNL     1       6.616   5.144  15.654  0.00  0.00    +0.000 A 
ATOM     29  C   UNL     1       5.396   5.816  16.060  0.00  0.00    +0.000 A 
ATOM     30  C   UNL     1       5.049   5.892  17.415  0.00  0.00    +0.000 A 
BRANCH  28  31
ATOM     31  N   UNL     1       6.928   4.919  14.233  0.00  0.00    +0.000 N 
ATOM     32  O   UNL     1       7.875   5.545  13.732  0.00  0.00    +0.000 OA
ATOM     33  O   UNL     1       6.240   4.100  13.622  0.00  0.00    +0.000 OA
ENDBRANCH  28  31
ENDBRANCH  18  20
ENDBRANCH   4  18
TORSDOF 6
ENDMDL
MODEL 4
REMARK VINA RESULT:      -8.4      1.875      3.918
REMARK  Name = 
REMARK  6 active torsions:
REMARK  status: ('A' for Active; 'I' for Inactive)
REMARK    1  A    between atoms: C_2  and  C_3
REMARK    2  A    between atoms: C_3  and  N_4
REMARK    3  A    between atoms: N_10  and  C_11
REMARK    4  A    between atoms: C_14  and  N_15
REMARK    5  A    between atoms: N_15  and  C_16
REMARK    6  A    between atoms: C_24  and  N_25
REMARK                            x       y       z     vdW  Elec       q    Type
REMARK                         _______ _______ _______ _____ _____    ______ ____
ROOT
ATOM      1  C   UNL     1       0.290   9.810  20.369  0.00  0.00    +0.000 A 
ATOM      2  C   UNL     1       0.474  10.103  19.004  0.00  0.00    +0.000 A 
ATOM      3  C   UNL     1       1.324   9.329  18.144  0.00  0.00    +0.000 A 
ATOM      4  C   UNL     1       2.015   8.235  18.625  0.00  0.00    +0.000 A 
ATOM      5  C   UNL     1       1.845   7.961  20.016  0.00  0.00    +0.000 A 
ATOM      6  C   UNL     1       1.003   8.724  20.867  0.00  0.00    +0.000 A 
ENDROOT
BRANCH   1   9
ATOM      7  O   UNL     1       0.723  12.465  21.589  0.00  0.00    +0.000 OA
ATOM      8  C   UNL     1      -0.262  11.786  21.857  0.00  0.00    +0.000 C 
ATOM      9  N   UNL     1      -0.543  10.556  21.268  0.00  0.00    +0.000 N 
ATOM     10  H   UNL     1      -1.467  10.158  21.458  0.00  0.00    +0.000 HD
BRANCH   8  11
ATOM     11  C   UNL     1      -1.250  12.271  22.968  0.00  0.00    +0.000 C 
BRANCH  11  12
ATOM     12  N   UNL     1      -2.686  12.210  22.586  0.00  0.00    +0.000 NA
ATOM     13  C   UNL     1      -3.069  13.205  21.549  0.00  0.00    +0.000 C 
ATOM     14  C   UNL     1      -3.132  14.664  22.039  0.00  0.00    +0.000 C 
ATOM     15  O   UNL     1      -4.033  14.802  23.144  0.00  0.00    +0.000 OA
ATOM     16  C   UNL     1      -3.651  13.939  24.219  0.00  0.00    +0.000 C 
ATOM     17  C   UNL     1      -3.573  12.466  23.759  0.00  0.00    +0.000 C 
ENDBRANCH  11  12
ENDBRANCH   8  11
ENDBRANCH   1   9
BRANCH   4  18
ATOM     18  N   UNL     1       2.839   7.327  17.897  0.00  0.00    +0.000 N 
ATOM     19  H   UNL     1       3.358   7.994  17.312  0.00  0.00    +0.000 HD
BRANCH  18  20
ATOM     20  C   UNL     1       3.693   6.210  18.060  0.00  0.00    +0.000 A 
ATOM     21  C   UNL     1       3.494   5.521  19.209  0.00  0.00    +0.000 A 
ATOM     22  C   UNL     1       4.425   4.451  19.549  0.00  0.00    +0.000 A 
ATOM     23  O   UNL     1       4.105   3.308  19.788  0.00  0.00    +0.000 OA
ATOM     24  O   UNL     1       5.684   4.970  19.629  0.00  0.00    +0.000 OA
ATOM     25  C   UNL     1       5.994   5.220  18.290  0.00  0.00    +0.000 A 
ATOM     26  C   UNL     1       7.240   4.690  17.927  0.00  0.00    +0.000 A 
ATOM     27  C   UNL     1       7.573   4.632  16.598  0.00  0.00    +0.000 A 
ATOM     28  C   UNL     1       6.648   5.132  15.662  0.00  0.00    +0.000 A 
ATOM     29  C   UNL     1       5.395   5.751  16.050  0.00  0.00    +0.000 A 
ATOM     30  C   UNL     1       5.022   5.808  17.399  0.00  0.00    +0.000 A 
BRANCH  28  31
ATOM     31  N   UNL     1       6.993   4.926  14.246  0.00  0.00    +0.000 N 
ATOM     32  O   UNL     1       6.316   4.123  13.587  0.00  0.00    +0.000 OA
ATOM     33  O   UNL     1       7.928   5.583  13.787  0.00  0.00    +0.000 OA
ENDBRANCH  28  31
ENDBRANCH  18  20
ENDBRANCH   4  18
TORSDOF 6
ENDMDL
MODEL 5
REMARK VINA RESULT:      -8.4      2.015      3.975
REMARK  Name = 
REMARK  6 active torsions:
REMARK  status: ('A' for Active; 'I' for Inactive)
REMARK    1  A    between atoms: C_2  and  C_3
REMARK    2  A    between atoms: C_3  and  N_4
REMARK    3  A    between atoms: N_10  and  C_11
REMARK    4  A    between atoms: C_14  and  N_15
REMARK    5  A    between atoms: N_15  and  C_16
REMARK    6  A    between atoms: C_24  and  N_25
REMARK                            x       y       z     vdW  Elec       q    Type
REMARK                         _______ _______ _______ _____ _____    ______ ____
ROOT
ATOM      1  C   UNL     1       0.893  10.071  19.506  0.00  0.00    +0.000 A 
ATOM      2  C   UNL     1       1.365   9.916  18.188  0.00  0.00    +0.000 A 
ATOM      3  C   UNL     1       1.926   8.690  17.695  0.00  0.00    +0.000 A 
ATOM      4  C   UNL     1       2.030   7.578  18.508  0.00  0.00    +0.000 A 
ATOM      5  C   UNL     1       1.575   7.752  19.850  0.00  0.00    +0.000 A 
ATOM      6  C   UNL     1       1.018   8.963  20.338  0.00  0.00    +0.000 A 
ENDROOT
BRANCH   1   9
ATOM      7  O   UNL     1       2.142  12.163  21.175  0.00  0.00    +0.000 OA
ATOM      8  C   UNL     1       0.954  12.203  20.874  0.00  0.00    +0.000 C 
ATOM      9  N   UNL     1       0.330  11.276  20.044  0.00  0.00    +0.000 N 
ATOM     10  H   UNL     1      -0.623  11.499  19.744  0.00  0.00    +0.000 HD
BRANCH   8  11
ATOM     11  C   UNL     1       0.042  13.313  21.492  0.00  0.00    +0.000 C 
BRANCH  11  12
ATOM     12  N   UNL     1      -0.361  13.065  22.902  0.00  0.00    +0.000 NA
ATOM     13  C   UNL     1      -1.360  11.975  23.053  0.00  0.00    +0.000 C 
ATOM     14  C   UNL     1      -2.782  12.325  22.576  0.00  0.00    +0.000 C 
ATOM     15  O   UNL     1      -3.284  13.486  23.250  0.00  0.00    +0.000 OA
ATOM     16  C   UNL     1      -2.411  14.602  23.052  0.00  0.00    +0.000 C 
ATOM     17  C   UNL     1      -0.972  14.281  23.515  0.00  0.00    +0.000 C 
ENDBRANCH  11  12
ENDBRANCH   8  11
ENDBRANCH   1   9
BRANCH   4  18
ATOM     18  N   UNL     1       2.495   6.276  18.161  0.00  0.00    +0.000 N 
ATOM     19  H   UNL     1       2.237   6.260  17.166  0.00  0.00    +0.000 HD
BRANCH  18  20
ATOM     20  C   UNL     1       3.609   5.412  18.287  0.00  0.00    +0.000 A 
ATOM     21  C   UNL     1       3.657   4.735  19.458  0.00  0.00    +0.000 A 
ATOM     22  C   UNL     1       4.845   3.941  19.755  0.00  0.00    +0.000 A 
ATOM     23  O   UNL     1       4.835   2.763  20.035  0.00  0.00    +0.000 OA
ATOM     24  O   UNL     1       5.937   4.759  19.742  0.00  0.00    +0.000 OA
ATOM     25  C   UNL     1       6.093   5.033  18.382  0.00  0.00    +0.000 A 
ATOM     26  C   UNL     1       7.409   4.817  17.947  0.00  0.00    +0.000 A 
ATOM     27  C   UNL     1       7.666   4.799  16.600  0.00  0.00    +0.000 A 
ATOM     28  C   UNL     1       6.592   5.022  15.719  0.00  0.00    +0.000 A 
ATOM     29  C   UNL     1       5.249   5.323  16.177  0.00  0.00    +0.000 A 
ATOM     30  C   UNL     1       4.955   5.331  17.546  0.00  0.00    +0.000 A 
BRANCH  28  31
ATOM     31  N   UNL     1       6.892   4.860  14.287  0.00  0.00    +0.000 N 
ATOM     32  O   UNL     1       7.815   5.532  13.800  0.00  0.00    +0.000 OA
ATOM     33  O   UNL     1       6.221   4.046  13.653  0.00  0.00    +0.000 OA
ENDBRANCH  28  31
ENDBRANCH  18  20
ENDBRANCH   4  18
TORSDOF 6
ENDMDL
MODEL 6
REMARK VINA RESULT:      -8.3      0.857      1.452
REMARK  Name = 
REMARK  6 active torsions:
REMARK  status: ('A' for Active; 'I' for Inactive)
REMARK    1  A    between atoms: C_2  and  C_3
REMARK    2  A    between atoms: C_3  and  N_4
REMARK    3  A    between atoms: N_10  and  C_11
REMARK    4  A    between atoms: C_14  and  N_15
REMARK    5  A    between atoms: N_15  and  C_16
REMARK    6  A    between atoms: C_24  and  N_25
REMARK                            x       y       z     vdW  Elec       q    Type
REMARK                         _______ _______ _______ _____ _____    ______ ____
ROOT
ATOM      1  C   UNL     1       0.241  10.224  19.845  0.00  0.00    +0.000 A 
ATOM      2  C   UNL     1       0.784   9.123  20.535  0.00  0.00    +0.000 A 
ATOM      3  C   UNL     1       1.717   8.208  19.942  0.00  0.00    +0.000 A 
ATOM      4  C   UNL     1       2.138   8.369  18.636  0.00  0.00    +0.000 A 
ATOM      5  C   UNL     1       1.562   9.471  17.934  0.00  0.00    +0.000 A 
ATOM      6  C   UNL     1       0.641  10.378  18.520  0.00  0.00    +0.000 A 
ENDROOT
BRANCH   1   9
ATOM      7  O   UNL     1      -0.095  11.158  22.626  0.00  0.00    +0.000 OA
ATOM      8  C   UNL     1      -0.845  11.525  21.729  0.00  0.00    +0.000 C 
ATOM      9  N   UNL     1      -0.697  11.161  20.393  0.00  0.00    +0.000 N 
ATOM     10  H   UNL     1      -1.290  11.650  19.717  0.00  0.00    +0.000 HD
BRANCH   8  11
ATOM     11  C   UNL     1      -2.090  12.403  22.079  0.00  0.00    +0.000 C 
BRANCH  11  12
ATOM     12  N   UNL     1      -2.191  12.787  23.512  0.00  0.00    +0.000 NA
ATOM     13  C   UNL     1      -3.579  12.753  24.042  0.00  0.00    +0.000 C 
ATOM     14  C   UNL     1      -4.493  13.889  23.545  0.00  0.00    +0.000 C 
ATOM     15  O   UNL     1      -3.934  15.174  23.843  0.00  0.00    +0.000 OA
ATOM     16  C   UNL     1      -2.631  15.304  23.267  0.00  0.00    +0.000 C 
ATOM     17  C   UNL     1      -1.689  14.174  23.741  0.00  0.00    +0.000 C 
ENDBRANCH  11  12
ENDBRANCH   8  11
ENDBRANCH   1   9
BRANCH   4  18
ATOM     18  N   UNL     1       3.102   7.598  17.922  0.00  0.00    +0.000 N 
ATOM     19  H   UNL     1       3.862   8.288  17.859  0.00  0.00    +0.000 HD
BRANCH  18  20
ATOM     20  C   UNL     1       3.727   6.329  17.897  0.00  0.00    +0.000 A 
ATOM     21  C   UNL     1       4.749   6.230  17.013  0.00  0.00    +0.000 A 
ATOM     22  C   UNL     1       5.355   4.921  16.794  0.00  0.00    +0.000 A 
ATOM     23  O   UNL     1       6.536   4.679  16.912  0.00  0.00    +0.000 OA
ATOM     24  O   UNL     1       4.393   4.056  16.362  0.00  0.00    +0.000 OA
ATOM     25  C   UNL     1       3.636   3.844  17.516  0.00  0.00    +0.000 A 
ATOM     26  C   UNL     1       3.432   2.481  17.772  0.00  0.00    +0.000 A 
ATOM     27  C   UNL     1       2.930   2.104  18.991  0.00  0.00    +0.000 A 
ATOM     28  C   UNL     1       2.621   3.116  19.920  0.00  0.00    +0.000 A 
ATOM     29  C   UNL     1       2.760   4.527  19.619  0.00  0.00    +0.000 A 
ATOM     30  C   UNL     1       3.287   4.940  18.389  0.00  0.00    +0.000 A 
BRANCH  28  31
ATOM     31  N   UNL     1       2.212   2.655  21.257  0.00  0.00    +0.000 N 
ATOM     32  O   UNL     1       1.010   2.721  21.559  0.00  0.00    +0.000 OA
ATOM     33  O   UNL     1       3.087   2.208  21.998  0.00  0.00    +0.000 OA
ENDBRANCH  28  31
ENDBRANCH  18  20
ENDBRANCH   4  18
TORSDOF 6
ENDMDL
MODEL 7
REMARK VINA RESULT:      -8.3      0.861      1.373
REMARK  Name = 
REMARK  6 active torsions:
REMARK  status: ('A' for Active; 'I' for Inactive)
REMARK    1  A    between atoms: C_2  and  C_3
REMARK    2  A    between atoms: C_3  and  N_4
REMARK    3  A    between atoms: N_10  and  C_11
REMARK    4  A    between atoms: C_14  and  N_15
REMARK    5  A    between atoms: N_15  and  C_16
REMARK    6  A    between atoms: C_24  and  N_25
REMARK                            x       y       z     vdW  Elec       q    Type
REMARK                         _______ _______ _______ _____ _____    ______ ____
ROOT
ATOM      1  C   UNL     1       0.079  10.087  19.832  0.00  0.00    +0.000 A 
ATOM      2  C   UNL     1       0.771   9.106  20.567  0.00  0.00    +0.000 A 
ATOM      3  C   UNL     1       1.747   8.232  19.982  0.00  0.00    +0.000 A 
ATOM      4  C   UNL     1       2.062   8.314  18.639  0.00  0.00    +0.000 A 
ATOM      5  C   UNL     1       1.336   9.292  17.895  0.00  0.00    +0.000 A 
ATOM      6  C   UNL     1       0.372  10.159  18.473  0.00  0.00    +0.000 A 
ENDROOT
BRANCH   1   9
ATOM      7  O   UNL     1       0.375  12.269  21.800  0.00  0.00    +0.000 OA
ATOM      8  C   UNL     1      -0.719  11.960  21.341  0.00  0.00    +0.000 C 
ATOM      9  N   UNL     1      -0.907  10.980  20.371  0.00  0.00    +0.000 N 
ATOM     10  H   UNL     1      -1.842  10.917  19.958  0.00  0.00    +0.000 HD
BRANCH   8  11
ATOM     11  C   UNL     1      -2.009  12.642  21.904  0.00  0.00    +0.000 C 
BRANCH  11  12
ATOM     12  N   UNL     1      -2.733  13.495  20.925  0.00  0.00    +0.000 NA
ATOM     13  C   UNL     1      -3.167  14.804  21.482  0.00  0.00    +0.000 C 
ATOM     14  C   UNL     1      -4.341  14.730  22.476  0.00  0.00    +0.000 C 
ATOM     15  O   UNL     1      -5.483  14.097  21.885  0.00  0.00    +0.000 OA
ATOM     16  C   UNL     1      -5.149  12.786  21.422  0.00  0.00    +0.000 C 
ATOM     17  C   UNL     1      -3.968  12.822  20.425  0.00  0.00    +0.000 C 
ENDBRANCH  11  12
ENDBRANCH   8  11
ENDBRANCH   1   9
BRANCH   4  18
ATOM     18  N   UNL     1       3.047   7.575  17.921  0.00  0.00    +0.000 N 
ATOM     19  H   UNL     1       3.789   8.283  17.865  0.00  0.00    +0.000 HD
BRANCH  18  20
ATOM     20  C   UNL     1       3.704   6.322  17.885  0.00  0.00    +0.000 A 
ATOM     21  C   UNL     1       4.716   6.250  16.988  0.00  0.00    +0.000 A 
ATOM     22  C   UNL     1       5.353   4.958  16.758  0.00  0.00    +0.000 A 
ATOM     23  O   UNL     1       6.540   4.746  16.860  0.00  0.00    +0.000 OA
ATOM     24  O   UNL     1       4.407   4.069  16.338  0.00  0.00    +0.000 OA
ATOM     25  C   UNL     1       3.672   3.836  17.502  0.00  0.00    +0.000 A 
ATOM     26  C   UNL     1       3.506   2.468  17.759  0.00  0.00    +0.000 A 
ATOM     27  C   UNL     1       3.030   2.077  18.983  0.00  0.00    +0.000 A 
ATOM     28  C   UNL     1       2.708   3.078  19.918  0.00  0.00    +0.000 A 
ATOM     29  C   UNL     1       2.806   4.494  19.618  0.00  0.00    +0.000 A 
ATOM     30  C   UNL     1       3.306   4.921  18.381  0.00  0.00    +0.000 A 
BRANCH  28  31
ATOM     31  N   UNL     1       2.328   2.606  21.260  0.00  0.00    +0.000 N 
ATOM     32  O   UNL     1       1.132   2.660  21.586  0.00  0.00    +0.000 OA
ATOM     33  O   UNL     1       3.222   2.161  21.980  0.00  0.00    +0.000 OA
ENDBRANCH  28  31
ENDBRANCH  18  20
ENDBRANCH   4  18
TORSDOF 6
ENDMDL
MODEL 8
REMARK VINA RESULT:      -8.3      2.130      4.097
REMARK  Name = 
REMARK  6 active torsions:
REMARK  status: ('A' for Active; 'I' for Inactive)
REMARK    1  A    between atoms: C_2  and  C_3
REMARK    2  A    between atoms: C_3  and  N_4
REMARK    3  A    between atoms: N_10  and  C_11
REMARK    4  A    between atoms: C_14  and  N_15
REMARK    5  A    between atoms: N_15  and  C_16
REMARK    6  A    between atoms: C_24  and  N_25
REMARK                            x       y       z     vdW  Elec       q    Type
REMARK                         _______ _______ _______ _____ _____    ______ ____
ROOT
ATOM      1  C   UNL     1       1.055  10.035  19.922  0.00  0.00    +0.000 A 
ATOM      2  C   UNL     1       1.278   8.858  20.662  0.00  0.00    +0.000 A 
ATOM      3  C   UNL     1       1.804   7.655  20.083  0.00  0.00    +0.000 A 
ATOM      4  C   UNL     1       2.124   7.593  18.740  0.00  0.00    +0.000 A 
ATOM      5  C   UNL     1       1.868   8.781  17.991  0.00  0.00    +0.000 A 
ATOM      6  C   UNL     1       1.351   9.972  18.563  0.00  0.00    +0.000 A 
ENDROOT
BRANCH   1   9
ATOM      7  O   UNL     1      -1.668  11.163  19.734  0.00  0.00    +0.000 OA
ATOM      8  C   UNL     1      -0.757  11.768  20.289  0.00  0.00    +0.000 C 
ATOM      9  N   UNL     1       0.527  11.258  20.455  0.00  0.00    +0.000 N 
ATOM     10  H   UNL     1       1.156  11.789  21.065  0.00  0.00    +0.000 HD
BRANCH   8  11
ATOM     11  C   UNL     1      -1.000  13.227  20.795  0.00  0.00    +0.000 C 
BRANCH  11  12
ATOM     12  N   UNL     1      -0.853  13.403  22.264  0.00  0.00    +0.000 NA
ATOM     13  C   UNL     1      -1.574  12.377  23.063  0.00  0.00    +0.000 C 
ATOM     14  C   UNL     1      -3.108  12.521  23.073  0.00  0.00    +0.000 C 
ATOM     15  O   UNL     1      -3.505  13.814  23.547  0.00  0.00    +0.000 OA
ATOM     16  C   UNL     1      -2.920  14.846  22.747  0.00  0.00    +0.000 C 
ATOM     17  C   UNL     1      -1.380  14.727  22.710  0.00  0.00    +0.000 C 
ENDBRANCH  11  12
ENDBRANCH   8  11
ENDBRANCH   1   9
BRANCH   4  18
ATOM     18  N   UNL     1       2.713   6.509  18.026  0.00  0.00    +0.000 N 
ATOM     19  H   UNL     1       2.808   6.943  17.099  0.00  0.00    +0.000 HD
BRANCH  18  20
ATOM     20  C   UNL     1       3.741   5.540  18.107  0.00  0.00    +0.000 A 
ATOM     21  C   UNL     1       3.727   4.808  19.246  0.00  0.00    +0.000 A 
ATOM     22  C   UNL     1       4.835   3.893  19.500  0.00  0.00    +0.000 A 
ATOM     23  O   UNL     1       4.715   2.710  19.726  0.00  0.00    +0.000 OA
ATOM     24  O   UNL     1       5.999   4.605  19.520  0.00  0.00    +0.000 OA
ATOM     25  C   UNL     1       6.180   4.926  18.172  0.00  0.00    +0.000 A 
ATOM     26  C   UNL     1       7.469   4.608  17.721  0.00  0.00    +0.000 A 
ATOM     27  C   UNL     1       7.722   4.628  16.374  0.00  0.00    +0.000 A 
ATOM     28  C   UNL     1       6.673   4.991  15.509  0.00  0.00    +0.000 A 
ATOM     29  C   UNL     1       5.365   5.395  15.987  0.00  0.00    +0.000 A 
ATOM     30  C   UNL     1       5.073   5.367  17.357  0.00  0.00    +0.000 A 
BRANCH  28  31
ATOM     31  N   UNL     1       6.956   4.868  14.070  0.00  0.00    +0.000 N 
ATOM     32  O   UNL     1       7.851   5.576  13.584  0.00  0.00    +0.000 OA
ATOM     33  O   UNL     1       6.299   4.048  13.428  0.00  0.00    +0.000 OA
ENDBRANCH  28  31
ENDBRANCH  18  20
ENDBRANCH   4  18
TORSDOF 6
ENDMDL
MODEL 9
REMARK VINA RESULT:      -8.3      2.771      4.737
REMARK  Name = 
REMARK  6 active torsions:
REMARK  status: ('A' for Active; 'I' for Inactive)
REMARK    1  A    between atoms: C_2  and  C_3
REMARK    2  A    between atoms: C_3  and  N_4
REMARK    3  A    between atoms: N_10  and  C_11
REMARK    4  A    between atoms: C_14  and  N_15
REMARK    5  A    between atoms: N_15  and  C_16
REMARK    6  A    between atoms: C_24  and  N_25
REMARK                            x       y       z     vdW  Elec       q    Type
REMARK                         _______ _______ _______ _____ _____    ______ ____
ROOT
ATOM      1  C   UNL     1       1.777   8.571  19.232  0.00  0.00    +0.000 A 
ATOM      2  C   UNL     1       2.057   7.416  19.987  0.00  0.00    +0.000 A 
ATOM      3  C   UNL     1       2.699   6.256  19.437  0.00  0.00    +0.000 A 
ATOM      4  C   UNL     1       3.084   6.218  18.111  0.00  0.00    +0.000 A 
ATOM      5  C   UNL     1       2.772   7.382  17.345  0.00  0.00    +0.000 A 
ATOM      6  C   UNL     1       2.139   8.531  17.888  0.00  0.00    +0.000 A 
ENDROOT
BRANCH   1   9
ATOM      7  O   UNL     1      -0.348   8.847  21.264  0.00  0.00    +0.000 OA
ATOM      8  C   UNL     1       0.095   9.818  20.660  0.00  0.00    +0.000 C 
ATOM      9  N   UNL     1       1.134   9.751  19.735  0.00  0.00    +0.000 N 
ATOM     10  H   UNL     1       1.517  10.643  19.411  0.00  0.00    +0.000 HD
BRANCH   8  11
ATOM     11  C   UNL     1      -0.566  11.219  20.867  0.00  0.00    +0.000 C 
BRANCH  11  12
ATOM     12  N   UNL     1      -0.387  11.790  22.229  0.00  0.00    +0.000 NA
ATOM     13  C   UNL     1      -1.517  11.498  23.150  0.00  0.00    +0.000 C 
ATOM     14  C   UNL     1      -2.813  12.277  22.858  0.00  0.00    +0.000 C 
ATOM     15  O   UNL     1      -2.583  13.691  22.869  0.00  0.00    +0.000 OA
ATOM     16  C   UNL     1      -1.572  14.046  21.922  0.00  0.00    +0.000 C 
ATOM     17  C   UNL     1      -0.258  13.277  22.183  0.00  0.00    +0.000 C 
ENDBRANCH  11  12
ENDBRANCH   8  11
ENDBRANCH   1   9
BRANCH   4  18
ATOM     18  N   UNL     1       3.787   5.181  17.429  0.00  0.00    +0.000 N 
ATOM     19  H   UNL     1       3.091   4.945  16.710  0.00  0.00    +0.000 HD
BRANCH  18  20
ATOM     20  C   UNL     1       5.046   4.860  16.871  0.00  0.00    +0.000 A 
ATOM     21  C   UNL     1       6.087   5.008  17.725  0.00  0.00    +0.000 A 
ATOM     22  C   UNL     1       7.442   4.856  17.205  0.00  0.00    +0.000 A 
ATOM     23  O   UNL     1       8.269   4.091  17.647  0.00  0.00    +0.000 OA
ATOM     24  O   UNL     1       7.635   5.768  16.208  0.00  0.00    +0.000 OA
ATOM     25  C   UNL     1       6.858   5.249  15.170  0.00  0.00    +0.000 A 
ATOM     26  C   UNL     1       7.570   5.168  13.965  0.00  0.00    +0.000 A 
ATOM     27  C   UNL     1       7.033   4.455  12.925  0.00  0.00    +0.000 A 
ATOM     28  C   UNL     1       5.774   3.856  13.115  0.00  0.00    +0.000 A 
ATOM     29  C   UNL     1       5.007   4.010  14.336  0.00  0.00    +0.000 A 
ATOM     30  C   UNL     1       5.539   4.719  15.421  0.00  0.00    +0.000 A 
BRANCH  28  31
ATOM     31  N   UNL     1       5.302   2.993  12.020  0.00  0.00    +0.000 N 
ATOM     32  O   UNL     1       6.066   2.114  11.592  0.00  0.00    +0.000 OA
ATOM     33  O   UNL     1       4.159   3.179  11.601  0.00  0.00    +0.000 OA
ENDBRANCH  28  31
ENDBRANCH  18  20
ENDBRANCH   4  18
TORSDOF 6
ENDMDL
