MODEL 1
REMARK VINA RESULT:      -8.3      0.000      0.000
REMARK  Name = 
REMARK  6 active torsions:
REMARK  status: ('A' for Active; 'I' for Inactive)
REMARK    1  A    between atoms: C_1  and  C_2
REMARK    2  A    between atoms: C_2  and  O_3
REMARK    3  A    between atoms: C_7  and  C_8
REMARK    4  A    between atoms: C_14  and  C_15
REMARK    5  A    between atoms: C_18  and  S_19
REMARK    6  A    between atoms: S_19  and  C_20
REMARK                            x       y       z     vdW  Elec       q    Type
REMARK                         _______ _______ _______ _____ _____    ______ ____
ROOT
ATOM      1  C   UNL     1       1.387   3.364  19.216  0.00  0.00    +0.000 C 
ATOM      2  C   UNL     1       1.886   4.030  17.932  0.00  0.00    +0.000 C 
ATOM      3  O   UNL     1       2.676   3.066  17.244  0.00  0.00    +0.000 OA
ATOM      4  C   UNL     1       3.985   3.437  17.314  0.00  0.00    +0.000 C 
ATOM      5  O   UNL     1       4.917   2.742  16.965  0.00  0.00    +0.000 OA
ATOM      6  C   UNL     1       4.073   4.804  17.859  0.00  0.00    +0.000 C 
ATOM      7  C   UNL     1       2.818   5.169  18.159  0.00  0.00    +0.000 C 
ENDROOT
BRANCH   6   8
ATOM      8  C   UNL     1       5.306   5.561  18.016  0.00  0.00    +0.000 A 
ATOM      9  C   UNL     1       5.620   6.581  17.107  0.00  0.00    +0.000 A 
ATOM     10  C   UNL     1       6.823   7.282  17.220  0.00  0.00    +0.000 A 
ATOM     11  C   UNL     1       7.718   6.971  18.241  0.00  0.00    +0.000 A 
ATOM     12  C   UNL     1       7.408   5.965  19.156  0.00  0.00    +0.000 A 
ATOM     13  C   UNL     1       6.207   5.260  19.044  0.00  0.00    +0.000 A 
ENDBRANCH   6   8
BRANCH   7  14
ATOM     14  C   UNL     1       2.416   6.497  18.633  0.00  0.00    +0.000 A 
ATOM     15  C   UNL     1       2.135   6.710  19.995  0.00  0.00    +0.000 A 
ATOM     16  C   UNL     1       1.683   7.955  20.453  0.00  0.00    +0.000 A 
ATOM     17  C   UNL     1       1.529   9.005  19.545  0.00  0.00    +0.000 A 
ATOM     18  C   UNL     1       1.778   8.805  18.186  0.00  0.00    +0.000 A 
ATOM     19  C   UNL     1       2.220   7.554  17.735  0.00  0.00    +0.000 A 
BRANCH  17  20
ATOM     20  S   UNL     1       0.982  10.601  20.114  0.00  0.00    +0.000 S 
ATOM     21  C   UNL     1      -0.767  10.574  19.816  0.00  0.00    +0.000 C 
ATOM     22  O   UNL     1       1.188  10.648  21.552  0.00  0.00    +0.000 OA
ATOM     23  O   UNL     1       1.565  11.607  19.248  0.00  0.00    +0.000 OA
ENDBRANCH  17  20
ENDBRANCH   7  14
BRANCH   2  24
ATOM     24  O   UNL     1       0.800   4.421  17.115  0.00  0.00    +0.000 OA
ATOM     25  H   UNL     1       0.677   5.373  17.264  0.00  0.00    +0.000 HD
ENDBRANCH   2  24
TORSDOF 4
ENDMDL
MODEL 2
REMARK VINA RESULT:      -8.0      1.016      1.107
REMARK  Name = 
REMARK  6 active torsions:
REMARK  status: ('A' for Active; 'I' for Inactive)
REMARK    1  A    between atoms: C_1  and  C_2
REMARK    2  A    between atoms: C_2  and  O_3
REMARK    3  A    between atoms: C_7  and  C_8
REMARK    4  A    between atoms: C_14  and  C_15
REMARK    5  A    between atoms: C_18  and  S_19
REMARK    6  A    between atoms: S_19  and  C_20
REMARK                            x       y       z     vdW  Elec       q    Type
REMARK                         _______ _______ _______ _____ _____    ______ ____
ROOT
ATOM      1  C   UNL     1       1.930   2.720  18.799  0.00  0.00    +0.000 C 
ATOM      2  C   UNL     1       2.216   3.740  17.695  0.00  0.00    +0.000 C 
ATOM      3  O   UNL     1       3.005   3.078  16.712  0.00  0.00    +0.000 OA
ATOM      4  C   UNL     1       4.274   3.569  16.761  0.00  0.00    +0.000 C 
ATOM      5  O   UNL     1       5.219   3.097  16.162  0.00  0.00    +0.000 OA
ATOM      6  C   UNL     1       4.302   4.756  17.636  0.00  0.00    +0.000 C 
ATOM      7  C   UNL     1       3.063   4.886  18.130  0.00  0.00    +0.000 C 
ENDROOT
BRANCH   6   8
ATOM      8  C   UNL     1       5.473   5.587  17.876  0.00  0.00    +0.000 A 
ATOM      9  C   UNL     1       5.726   6.693  17.052  0.00  0.00    +0.000 A 
ATOM     10  C   UNL     1       6.871   7.469  17.243  0.00  0.00    +0.000 A 
ATOM     11  C   UNL     1       7.767   7.149  18.260  0.00  0.00    +0.000 A 
ATOM     12  C   UNL     1       7.517   6.058  19.091  0.00  0.00    +0.000 A 
ATOM     13  C   UNL     1       6.374   5.278  18.900  0.00  0.00    +0.000 A 
ENDBRANCH   6   8
BRANCH   7  14
ATOM     14  C   UNL     1       2.600   5.996  18.969  0.00  0.00    +0.000 A 
ATOM     15  C   UNL     1       2.151   5.756  20.280  0.00  0.00    +0.000 A 
ATOM     16  C   UNL     1       1.642   6.796  21.071  0.00  0.00    +0.000 A 
ATOM     17  C   UNL     1       1.599   8.092  20.553  0.00  0.00    +0.000 A 
ATOM     18  C   UNL     1       2.015   8.344  19.245  0.00  0.00    +0.000 A 
ATOM     19  C   UNL     1       2.514   7.297  18.458  0.00  0.00    +0.000 A 
BRANCH  17  20
ATOM     20  S   UNL     1       0.980   9.429  21.554  0.00  0.00    +0.000 S 
ATOM     21  C   UNL     1      -0.560   8.807  22.176  0.00  0.00    +0.000 C 
ATOM     22  O   UNL     1       1.885   9.588  22.680  0.00  0.00    +0.000 OA
ATOM     23  O   UNL     1       0.687  10.544  20.675  0.00  0.00    +0.000 OA
ENDBRANCH  17  20
ENDBRANCH   7  14
BRANCH   2  24
ATOM     24  O   UNL     1       1.013   4.194  17.108  0.00  0.00    +0.000 OA
ATOM     25  H   UNL     1       1.183   5.105  16.812  0.00  0.00    +0.000 HD
ENDBRANCH   2  24
TORSDOF 4
ENDMDL
MODEL 3
REMARK VINA RESULT:      -8.0      1.644      1.938
REMARK  Name = 
REMARK  6 active torsions:
REMARK  status: ('A' for Active; 'I' for Inactive)
REMARK    1  A    between atoms: C_1  and  C_2
REMARK    2  A    between atoms: C_2  and  O_3
REMARK    3  A    between atoms: C_7  and  C_8
REMARK    4  A    between atoms: C_14  and  C_15
REMARK    5  A    between atoms: C_18  and  S_19
REMARK    6  A    between atoms: S_19  and  C_20
REMARK                            x       y       z     vdW  Elec       q    Type
REMARK                         _______ _______ _______ _____ _____    ______ ____
ROOT
ATOM      1  C   UNL     1       1.891   3.279  21.636  0.00  0.00    +0.000 C 
ATOM      2  C   UNL     1       1.709   3.210  20.118  0.00  0.00    +0.000 C 
ATOM      3  O   UNL     1       2.176   1.931  19.701  0.00  0.00    +0.000 OA
ATOM      4  C   UNL     1       3.345   2.090  19.020  0.00  0.00    +0.000 C 
ATOM      5  O   UNL     1       4.071   1.180  18.677  0.00  0.00    +0.000 OA
ATOM      6  C   UNL     1       3.565   3.525  18.761  0.00  0.00    +0.000 C 
ATOM      7  C   UNL     1       2.555   4.172  19.358  0.00  0.00    +0.000 C 
ENDROOT
BRANCH   6   8
ATOM      8  C   UNL     1       4.677   4.073  17.998  0.00  0.00    +0.000 A 
ATOM      9  C   UNL     1       4.667   3.999  16.598  0.00  0.00    +0.000 A 
ATOM     10  C   UNL     1       5.750   4.479  15.857  0.00  0.00    +0.000 A 
ATOM     11  C   UNL     1       6.847   5.038  16.509  0.00  0.00    +0.000 A 
ATOM     12  C   UNL     1       6.859   5.126  17.901  0.00  0.00    +0.000 A 
ATOM     13  C   UNL     1       5.779   4.644  18.644  0.00  0.00    +0.000 A 
ENDBRANCH   6   8
BRANCH   7  14
ATOM     14  C   UNL     1       2.310   5.615  19.274  0.00  0.00    +0.000 A 
ATOM     15  C   UNL     1       1.988   6.351  20.429  0.00  0.00    +0.000 A 
ATOM     16  C   UNL     1       1.684   7.717  20.354  0.00  0.00    +0.000 A 
ATOM     17  C   UNL     1       1.720   8.360  19.115  0.00  0.00    +0.000 A 
ATOM     18  C   UNL     1       2.010   7.641  17.955  0.00  0.00    +0.000 A 
ATOM     19  C   UNL     1       2.304   6.273  18.037  0.00  0.00    +0.000 A 
BRANCH  17  20
ATOM     20  S   UNL     1       1.362  10.102  19.006  0.00  0.00    +0.000 S 
ATOM     21  C   UNL     1      -0.266  10.150  18.301  0.00  0.00    +0.000 C 
ATOM     22  O   UNL     1       1.276  10.616  20.362  0.00  0.00    +0.000 OA
ATOM     23  O   UNL     1       2.279  10.686  18.047  0.00  0.00    +0.000 OA
ENDBRANCH  17  20
ENDBRANCH   7  14
BRANCH   2  24
ATOM     24  O   UNL     1       0.346   3.351  19.769  0.00  0.00    +0.000 OA
ATOM     25  H   UNL     1       0.332   3.805  18.910  0.00  0.00    +0.000 HD
ENDBRANCH   2  24
TORSDOF 4
ENDMDL
MODEL 4
REMARK VINA RESULT:      -7.9      0.765      1.353
REMARK  Name = 
REMARK  6 active torsions:
REMARK  status: ('A' for Active; 'I' for Inactive)
REMARK    1  A    between atoms: C_1  and  C_2
REMARK    2  A    between atoms: C_2  and  O_3
REMARK    3  A    between atoms: C_7  and  C_8
REMARK    4  A    between atoms: C_14  and  C_15
REMARK    5  A    between atoms: C_18  and  S_19
REMARK    6  A    between atoms: S_19  and  C_20
REMARK                            x       y       z     vdW  Elec       q    Type
REMARK                         _______ _______ _______ _____ _____    ______ ____
ROOT
ATOM      1  C   UNL     1       1.420   3.437  19.229  0.00  0.00    +0.000 C 
ATOM      2  C   UNL     1       1.897   4.058  17.915  0.00  0.00    +0.000 C 
ATOM      3  O   UNL     1       2.684   3.075  17.252  0.00  0.00    +0.000 OA
ATOM      4  C   UNL     1       3.992   3.457  17.291  0.00  0.00    +0.000 C 
ATOM      5  O   UNL     1       4.924   2.757  16.956  0.00  0.00    +0.000 OA
ATOM      6  C   UNL     1       4.077   4.844  17.785  0.00  0.00    +0.000 C 
ATOM      7  C   UNL     1       2.824   5.212  18.088  0.00  0.00    +0.000 C 
ENDROOT
BRANCH   6   8
ATOM      8  C   UNL     1       5.307   5.615  17.898  0.00  0.00    +0.000 A 
ATOM      9  C   UNL     1       6.229   5.314  18.910  0.00  0.00    +0.000 A 
ATOM     10  C   UNL     1       7.389   6.078  19.058  0.00  0.00    +0.000 A 
ATOM     11  C   UNL     1       7.638   7.142  18.194  0.00  0.00    +0.000 A 
ATOM     12  C   UNL     1       6.731   7.440  17.177  0.00  0.00    +0.000 A 
ATOM     13  C   UNL     1       5.568   6.680  17.030  0.00  0.00    +0.000 A 
ENDBRANCH   6   8
BRANCH   7  14
ATOM     14  C   UNL     1       2.418   6.553  18.519  0.00  0.00    +0.000 A 
ATOM     15  C   UNL     1       2.192   6.824  19.881  0.00  0.00    +0.000 A 
ATOM     16  C   UNL     1       1.738   8.081  20.301  0.00  0.00    +0.000 A 
ATOM     17  C   UNL     1       1.526   9.086  19.354  0.00  0.00    +0.000 A 
ATOM     18  C   UNL     1       1.719   8.827  17.997  0.00  0.00    +0.000 A 
ATOM     19  C   UNL     1       2.164   7.564  17.583  0.00  0.00    +0.000 A 
BRANCH  17  20
ATOM     20  S   UNL     1       0.974  10.697  19.874  0.00  0.00    +0.000 S 
ATOM     21  C   UNL     1       1.826  11.804  18.780  0.00  0.00    +0.000 C 
ATOM     22  O   UNL     1      -0.447  10.788  19.583  0.00  0.00    +0.000 OA
ATOM     23  O   UNL     1       1.473  10.927  21.216  0.00  0.00    +0.000 OA
ENDBRANCH  17  20
ENDBRANCH   7  14
BRANCH   2  24
ATOM     24  O   UNL     1       0.798   4.412  17.099  0.00  0.00    +0.000 OA
ATOM     25  H   UNL     1       0.527   5.302  17.379  0.00  0.00    +0.000 HD
ENDBRANCH   2  24
TORSDOF 4
ENDMDL
MODEL 5
REMARK VINA RESULT:      -7.8      1.048      1.502
REMARK  Name = 
REMARK  6 active torsions:
REMARK  status: ('A' for Active; 'I' for Inactive)
REMARK    1  A    between atoms: C_1  and  C_2
REMARK    2  A    between atoms: C_2  and  O_3
REMARK    3  A    between atoms: C_7  and  C_8
REMARK    4  A    between atoms: C_14  and  C_15
REMARK    5  A    between atoms: C_18  and  S_19
REMARK    6  A    between atoms: S_19  and  C_20
REMARK                            x       y       z     vdW  Elec       q    Type
REMARK                         _______ _______ _______ _____ _____    ______ ____
ROOT
ATOM      1  C   UNL     1       2.144   2.637  18.709  0.00  0.00    +0.000 C 
ATOM      2  C   UNL     1       2.408   3.658  17.600  0.00  0.00    +0.000 C 
ATOM      3  O   UNL     1       3.214   3.011  16.622  0.00  0.00    +0.000 OA
ATOM      4  C   UNL     1       4.471   3.534  16.671  0.00  0.00    +0.000 C 
ATOM      5  O   UNL     1       5.428   3.082  16.076  0.00  0.00    +0.000 OA
ATOM      6  C   UNL     1       4.468   4.725  17.540  0.00  0.00    +0.000 C 
ATOM      7  C   UNL     1       3.225   4.827  18.031  0.00  0.00    +0.000 C 
ENDROOT
BRANCH   6   8
ATOM      8  C   UNL     1       5.617   5.586  17.778  0.00  0.00    +0.000 A 
ATOM      9  C   UNL     1       6.522   5.276  18.804  0.00  0.00    +0.000 A 
ATOM     10  C   UNL     1       7.601   6.120  19.073  0.00  0.00    +0.000 A 
ATOM     11  C   UNL     1       7.787   7.276  18.318  0.00  0.00    +0.000 A 
ATOM     12  C   UNL     1       6.898   7.586  17.289  0.00  0.00    +0.000 A 
ATOM     13  C   UNL     1       5.816   6.745  17.020  0.00  0.00    +0.000 A 
ENDBRANCH   6   8
BRANCH   7  14
ATOM     14  C   UNL     1       2.734   5.929  18.864  0.00  0.00    +0.000 A 
ATOM     15  C   UNL     1       2.355   5.697  20.199  0.00  0.00    +0.000 A 
ATOM     16  C   UNL     1       1.820   6.726  20.987  0.00  0.00    +0.000 A 
ATOM     17  C   UNL     1       1.679   8.004  20.442  0.00  0.00    +0.000 A 
ATOM     18  C   UNL     1       2.024   8.246  19.112  0.00  0.00    +0.000 A 
ATOM     19  C   UNL     1       2.550   7.210  18.328  0.00  0.00    +0.000 A 
BRANCH  17  20
ATOM     20  S   UNL     1       1.025   9.328  21.437  0.00  0.00    +0.000 S 
ATOM     21  C   UNL     1      -0.565   8.725  21.943  0.00  0.00    +0.000 C 
ATOM     22  O   UNL     1       1.858   9.437  22.623  0.00  0.00    +0.000 OA
ATOM     23  O   UNL     1       0.813  10.473  20.573  0.00  0.00    +0.000 OA
ENDBRANCH  17  20
ENDBRANCH   7  14
BRANCH   2  24
ATOM     24  O   UNL     1       1.195   4.081  17.008  0.00  0.00    +0.000 OA
ATOM     25  H   UNL     1       1.050   4.994  17.308  0.00  0.00    +0.000 HD
ENDBRANCH   2  24
TORSDOF 4
ENDMDL
MODEL 6
REMARK VINA RESULT:      -7.8      1.578      2.237
REMARK  Name = 
REMARK  6 active torsions:
REMARK  status: ('A' for Active; 'I' for Inactive)
REMARK    1  A    between atoms: C_1  and  C_2
REMARK    2  A    between atoms: C_2  and  O_3
REMARK    3  A    between atoms: C_7  and  C_8
REMARK    4  A    between atoms: C_14  and  C_15
REMARK    5  A    between atoms: C_18  and  S_19
REMARK    6  A    between atoms: S_19  and  C_20
REMARK                            x       y       z     vdW  Elec       q    Type
REMARK                         _______ _______ _______ _____ _____    ______ ____
ROOT
ATOM      1  C   UNL     1       1.833   3.202  21.607  0.00  0.00    +0.000 C 
ATOM      2  C   UNL     1       1.678   3.144  20.086  0.00  0.00    +0.000 C 
ATOM      3  O   UNL     1       2.214   1.895  19.661  0.00  0.00    +0.000 OA
ATOM      4  C   UNL     1       3.385   2.120  19.001  0.00  0.00    +0.000 C 
ATOM      5  O   UNL     1       4.160   1.251  18.659  0.00  0.00    +0.000 OA
ATOM      6  C   UNL     1       3.538   3.567  18.763  0.00  0.00    +0.000 C 
ATOM      7  C   UNL     1       2.487   4.156  19.352  0.00  0.00    +0.000 C 
ENDROOT
BRANCH   6   8
ATOM      8  C   UNL     1       4.632   4.180  18.025  0.00  0.00    +0.000 A 
ATOM      9  C   UNL     1       5.649   4.856  18.715  0.00  0.00    +0.000 A 
ATOM     10  C   UNL     1       6.678   5.488  18.015  0.00  0.00    +0.000 A 
ATOM     11  C   UNL     1       6.702   5.447  16.622  0.00  0.00    +0.000 A 
ATOM     12  C   UNL     1       5.701   4.767  15.929  0.00  0.00    +0.000 A 
ATOM     13  C   UNL     1       4.668   4.137  16.627  0.00  0.00    +0.000 A 
ENDBRANCH   6   8
BRANCH   7  14
ATOM     14  C   UNL     1       2.172   5.587  19.282  0.00  0.00    +0.000 A 
ATOM     15  C   UNL     1       2.242   6.271  18.055  0.00  0.00    +0.000 A 
ATOM     16  C   UNL     1       2.011   7.651  17.983  0.00  0.00    +0.000 A 
ATOM     17  C   UNL     1       1.686   8.353  19.146  0.00  0.00    +0.000 A 
ATOM     18  C   UNL     1       1.639   7.696  20.376  0.00  0.00    +0.000 A 
ATOM     19  C   UNL     1       1.881   6.317  20.441  0.00  0.00    +0.000 A 
BRANCH  17  20
ATOM     20  S   UNL     1       1.363  10.103  19.068  0.00  0.00    +0.000 S 
ATOM     21  C   UNL     1      -0.272  10.196  18.385  0.00  0.00    +0.000 C 
ATOM     22  O   UNL     1       1.305  10.598  20.433  0.00  0.00    +0.000 OA
ATOM     23  O   UNL     1       2.281  10.683  18.107  0.00  0.00    +0.000 OA
ENDBRANCH  17  20
ENDBRANCH   7  14
BRANCH   2  24
ATOM     24  O   UNL     1       0.315   3.222  19.717  0.00  0.00    +0.000 OA
ATOM     25  H   UNL     1       0.207   2.633  18.951  0.00  0.00    +0.000 HD
ENDBRANCH   2  24
TORSDOF 4
ENDMDL
MODEL 7
REMARK VINA RESULT:      -7.8      1.688      2.087
REMARK  Name = 
REMARK  6 active torsions:
REMARK  status: ('A' for Active; 'I' for Inactive)
REMARK    1  A    between atoms: C_1  and  C_2
REMARK    2  A    between atoms: C_2  and  O_3
REMARK    3  A    between atoms: C_7  and  C_8
REMARK    4  A    between atoms: C_14  and  C_15
REMARK    5  A    between atoms: C_18  and  S_19
REMARK    6  A    between atoms: S_19  and  C_20
REMARK                            x       y       z     vdW  Elec       q    Type
REMARK                         _______ _______ _______ _____ _____    ______ ____
ROOT
ATOM      1  C   UNL     1       1.798   3.517  21.706  0.00  0.00    +0.000 C 
ATOM      2  C   UNL     1       1.884   3.374  20.186  0.00  0.00    +0.000 C 
ATOM      3  O   UNL     1       2.517   2.127  19.920  0.00  0.00    +0.000 OA
ATOM      4  C   UNL     1       3.769   2.363  19.436  0.00  0.00    +0.000 C 
ATOM      5  O   UNL     1       4.615   1.508  19.268  0.00  0.00    +0.000 OA
ATOM      6  C   UNL     1       3.913   3.800  19.143  0.00  0.00    +0.000 C 
ATOM      7  C   UNL     1       2.766   4.378  19.528  0.00  0.00    +0.000 C 
ENDROOT
BRANCH   6   8
ATOM      8  C   UNL     1       5.091   4.416  18.548  0.00  0.00    +0.000 A 
ATOM      9  C   UNL     1       5.938   5.207  19.336  0.00  0.00    +0.000 A 
ATOM     10  C   UNL     1       7.044   5.842  18.765  0.00  0.00    +0.000 A 
ATOM     11  C   UNL     1       7.312   5.687  17.407  0.00  0.00    +0.000 A 
ATOM     12  C   UNL     1       6.480   4.893  16.619  0.00  0.00    +0.000 A 
ATOM     13  C   UNL     1       5.371   4.260  17.186  0.00  0.00    +0.000 A 
ENDBRANCH   6   8
BRANCH   7  14
ATOM     14  C   UNL     1       2.423   5.789  19.328  0.00  0.00    +0.000 A 
ATOM     15  C   UNL     1       1.987   6.576  20.410  0.00  0.00    +0.000 A 
ATOM     16  C   UNL     1       1.590   7.907  20.222  0.00  0.00    +0.000 A 
ATOM     17  C   UNL     1       1.647   8.465  18.943  0.00  0.00    +0.000 A 
ATOM     18  C   UNL     1       2.050   7.692  17.854  0.00  0.00    +0.000 A 
ATOM     19  C   UNL     1       2.437   6.359  18.048  0.00  0.00    +0.000 A 
BRANCH  17  20
ATOM     20  S   UNL     1       1.171  10.162  18.691  0.00  0.00    +0.000 S 
ATOM     21  C   UNL     1       0.978  10.791  20.339  0.00  0.00    +0.000 C 
ATOM     22  O   UNL     1       2.299  10.847  18.082  0.00  0.00    +0.000 OA
ATOM     23  O   UNL     1      -0.133  10.170  18.057  0.00  0.00    +0.000 OA
ENDBRANCH  17  20
ENDBRANCH   7  14
BRANCH   2  24
ATOM     24  O   UNL     1       0.593   3.380  19.607  0.00  0.00    +0.000 OA
ATOM     25  H   UNL     1       0.027   3.889  20.212  0.00  0.00    +0.000 HD
ENDBRANCH   2  24
TORSDOF 4
ENDMDL
MODEL 8
REMARK VINA RESULT:      -7.8      0.170      1.001
REMARK  Name = 
REMARK  6 active torsions:
REMARK  status: ('A' for Active; 'I' for Inactive)
REMARK    1  A    between atoms: C_1  and  C_2
REMARK    2  A    between atoms: C_2  and  O_3
REMARK    3  A    between atoms: C_7  and  C_8
REMARK    4  A    between atoms: C_14  and  C_15
REMARK    5  A    between atoms: C_18  and  S_19
REMARK    6  A    between atoms: S_19  and  C_20
REMARK                            x       y       z     vdW  Elec       q    Type
REMARK                         _______ _______ _______ _____ _____    ______ ____
ROOT
ATOM      1  C   UNL     1       1.408   3.356  19.336  0.00  0.00    +0.000 C 
ATOM      2  C   UNL     1       1.864   3.985  18.018  0.00  0.00    +0.000 C 
ATOM      3  O   UNL     1       2.676   3.022  17.356  0.00  0.00    +0.000 OA
ATOM      4  C   UNL     1       3.973   3.440  17.389  0.00  0.00    +0.000 C 
ATOM      5  O   UNL     1       4.923   2.764  17.053  0.00  0.00    +0.000 OA
ATOM      6  C   UNL     1       4.022   4.830  17.878  0.00  0.00    +0.000 C 
ATOM      7  C   UNL     1       2.760   5.164  18.183  0.00  0.00    +0.000 C 
ENDROOT
BRANCH   6   8
ATOM      8  C   UNL     1       5.230   5.635  17.984  0.00  0.00    +0.000 A 
ATOM      9  C   UNL     1       5.439   6.701  17.098  0.00  0.00    +0.000 A 
ATOM     10  C   UNL     1       6.617   7.449  17.159  0.00  0.00    +0.000 A 
ATOM     11  C   UNL     1       7.590   7.140  18.107  0.00  0.00    +0.000 A 
ATOM     12  C   UNL     1       7.385   6.088  18.999  0.00  0.00    +0.000 A 
ATOM     13  C   UNL     1       6.209   5.336  18.937  0.00  0.00    +0.000 A 
ENDBRANCH   6   8
BRANCH   7  14
ATOM     14  C   UNL     1       2.319   6.496  18.611  0.00  0.00    +0.000 A 
ATOM     15  C   UNL     1       2.256   7.555  17.688  0.00  0.00    +0.000 A 
ATOM     16  C   UNL     1       1.902   8.848  18.096  0.00  0.00    +0.000 A 
ATOM     17  C   UNL     1       1.589   9.083  19.436  0.00  0.00    +0.000 A 
ATOM     18  C   UNL     1       1.672   8.051  20.371  0.00  0.00    +0.000 A 
ATOM     19  C   UNL     1       2.036   6.762  19.957  0.00  0.00    +0.000 A 
BRANCH  17  20
ATOM     20  S   UNL     1       1.112  10.715  19.966  0.00  0.00    +0.000 S 
ATOM     21  C   UNL     1      -0.654  10.710  19.798  0.00  0.00    +0.000 C 
ATOM     22  O   UNL     1       1.425  10.825  21.381  0.00  0.00    +0.000 OA
ATOM     23  O   UNL     1       1.647  11.667  19.012  0.00  0.00    +0.000 OA
ENDBRANCH  17  20
ENDBRANCH   7  14
BRANCH   2  24
ATOM     24  O   UNL     1       0.753   4.306  17.204  0.00  0.00    +0.000 OA
ATOM     25  H   UNL     1       0.359   3.458  16.937  0.00  0.00    +0.000 HD
ENDBRANCH   2  24
TORSDOF 4
ENDMDL
MODEL 9
REMARK VINA RESULT:      -7.7      1.671      2.151
REMARK  Name = 
REMARK  6 active torsions:
REMARK  status: ('A' for Active; 'I' for Inactive)
REMARK    1  A    between atoms: C_1  and  C_2
REMARK    2  A    between atoms: C_2  and  O_3
REMARK    3  A    between atoms: C_7  and  C_8
REMARK    4  A    between atoms: C_14  and  C_15
REMARK    5  A    between atoms: C_18  and  S_19
REMARK    6  A    between atoms: S_19  and  C_20
REMARK                            x       y       z     vdW  Elec       q    Type
REMARK                         _______ _______ _______ _____ _____    ______ ____
ROOT
ATOM      1  C   UNL     1       1.881   3.529  21.773  0.00  0.00    +0.000 C 
ATOM      2  C   UNL     1       1.914   3.384  20.251  0.00  0.00    +0.000 C 
ATOM      3  O   UNL     1       2.588   2.163  19.964  0.00  0.00    +0.000 OA
ATOM      4  C   UNL     1       3.809   2.448  19.431  0.00  0.00    +0.000 C 
ATOM      5  O   UNL     1       4.682   1.628  19.233  0.00  0.00    +0.000 OA
ATOM      6  C   UNL     1       3.882   3.889  19.129  0.00  0.00    +0.000 C 
ATOM      7  C   UNL     1       2.729   4.420  19.558  0.00  0.00    +0.000 C 
ENDROOT
BRANCH   6   8
ATOM      8  C   UNL     1       5.010   4.550  18.489  0.00  0.00    +0.000 A 
ATOM      9  C   UNL     1       5.163   4.478  17.097  0.00  0.00    +0.000 A 
ATOM     10  C   UNL     1       6.267   5.068  16.476  0.00  0.00    +0.000 A 
ATOM     11  C   UNL     1       7.221   5.736  17.240  0.00  0.00    +0.000 A 
ATOM     12  C   UNL     1       7.070   5.822  18.624  0.00  0.00    +0.000 A 
ATOM     13  C   UNL     1       5.969   5.230  19.247  0.00  0.00    +0.000 A 
ENDBRANCH   6   8
BRANCH   7  14
ATOM     14  C   UNL     1       2.320   5.816  19.368  0.00  0.00    +0.000 A 
ATOM     15  C   UNL     1       2.436   6.425  18.106  0.00  0.00    +0.000 A 
ATOM     16  C   UNL     1       2.114   7.778  17.924  0.00  0.00    +0.000 A 
ATOM     17  C   UNL     1       1.652   8.524  19.011  0.00  0.00    +0.000 A 
ATOM     18  C   UNL     1       1.557   7.943  20.276  0.00  0.00    +0.000 A 
ATOM     19  C   UNL     1       1.890   6.593  20.451  0.00  0.00    +0.000 A 
BRANCH  17  20
ATOM     20  S   UNL     1       1.214  10.236  18.792  0.00  0.00    +0.000 S 
ATOM     21  C   UNL     1       1.130  10.862  20.450  0.00  0.00    +0.000 C 
ATOM     22  O   UNL     1       2.326  10.891  18.124  0.00  0.00    +0.000 OA
ATOM     23  O   UNL     1      -0.122  10.286  18.230  0.00  0.00    +0.000 OA
ENDBRANCH  17  20
ENDBRANCH   7  14
BRANCH   2  24
ATOM     24  O   UNL     1       0.603   3.335  19.722  0.00  0.00    +0.000 OA
ATOM     25  H   UNL     1       0.538   2.496  19.235  0.00  0.00    +0.000 HD
ENDBRANCH   2  24
TORSDOF 4
ENDMDL
