MODEL 1
REMARK VINA RESULT:      -7.7      0.000      0.000
REMARK  Name = 
REMARK  10 active torsions:
REMARK  status: ('A' for Active; 'I' for Inactive)
REMARK    1  A    between atoms: C_1  and  C_2
REMARK    2  A    between atoms: C_2  and  C_3
REMARK    3  A    between atoms: C_3  and  C_4
REMARK    4  A    between atoms: C_4  and  C_5
REMARK    5  A    between atoms: C_5  and  C_6
REMARK    6  A    between atoms: C_6  and  N_7
REMARK    7  A    between atoms: N_11  and  C_12
REMARK    8  A    between atoms: C_12  and  C_13
REMARK    9  A    between atoms: C_13  and  C_15
REMARK   10  A    between atoms: C_23  and  C_24
REMARK                            x       y       z     vdW  Elec       q    Type
REMARK                         _______ _______ _______ _____ _____    ______ ____
ROOT
ATOM      1  N   UNL     1       1.871   8.173  19.157  0.00  0.00    +0.000 N 
ATOM      2  C   UNL     1       1.485   8.037  20.539  0.00  0.00    +0.000 C 
ATOM      3  C   UNL     1       0.935   9.377  20.792  0.00  0.00    +0.000 A 
ATOM      4  C   UNL     1       0.981  10.226  19.753  0.00  0.00    +0.000 A 
ATOM      5  N   UNL     1       0.495  11.531  19.763  0.00  0.00    +0.000 N 
ATOM      6  C   UNL     1      -0.117  11.950  20.924  0.00  0.00    +0.000 A 
ATOM      7  C   UNL     1      -0.783  13.088  21.310  0.00  0.00    +0.000 A 
ATOM      8  C   UNL     1      -1.153  12.879  22.667  0.00  0.00    +0.000 A 
ATOM      9  N   UNL     1      -0.734  11.685  23.108  0.00  0.00    +0.000 NA
ATOM     10  N   UNL     1      -0.158  11.101  22.030  0.00  0.00    +0.000 N 
ATOM     11  C   UNL     1       0.345   9.788  22.062  0.00  0.00    +0.000 A 
ATOM     12  O   UNL     1       0.290   9.077  23.057  0.00  0.00    +0.000 OA
ATOM     13  C   UNL     1       1.654   9.457  18.666  0.00  0.00    +0.000 C 
ATOM     14  O   UNL     1       1.966   9.900  17.576  0.00  0.00    +0.000 OA
ENDROOT
BRANCH   8  15
ATOM     15  C   UNL     1      -1.885  13.801  23.533  0.00  0.00    +0.000 A 
ATOM     16  C   UNL     1      -1.198  14.778  24.270  0.00  0.00    +0.000 A 
ATOM     17  C   UNL     1      -1.897  15.655  25.099  0.00  0.00    +0.000 A 
ATOM     18  C   UNL     1      -3.283  15.565  25.203  0.00  0.00    +0.000 A 
ATOM     19  C   UNL     1      -3.975  14.599  24.474  0.00  0.00    +0.000 A 
ATOM     20  C   UNL     1      -3.280  13.724  23.639  0.00  0.00    +0.000 A 
ENDBRANCH   8  15
BRANCH   1  21
ATOM     21  C   UNL     1       2.533   7.102  18.429  0.00  0.00    +0.000 C 
BRANCH  21  22
ATOM     22  C   UNL     1       2.580   5.778  19.200  0.00  0.00    +0.000 C 
BRANCH  22  23
ATOM     23  C   UNL     1       2.032   4.603  18.385  0.00  0.00    +0.000 C 
BRANCH  23  24
ATOM     24  C   UNL     1       1.142   3.701  19.239  0.00  0.00    +0.000 C 
BRANCH  24  26
ATOM     25  C   UNL     1       1.720   2.844  21.535  0.00  0.00    +0.000 C 
ATOM     26  C   UNL     1       1.260   4.045  20.724  0.00  0.00    +0.000 C 
ENDBRANCH  24  26
ENDBRANCH  23  24
ENDBRANCH  22  23
ENDBRANCH  21  22
ENDBRANCH   1  21
BRANCH   5  27
ATOM     27  C   UNL     1       0.411  12.399  18.558  0.00  0.00    +0.000 C 
BRANCH  27  28
ATOM     28  C   UNL     1       1.574  13.396  18.493  0.00  0.00    +0.000 C 
ATOM     29  O   UNL     1       2.741  13.052  18.287  0.00  0.00    +0.000 OA
BRANCH  28  30
ATOM     30  C   UNL     1       1.313  14.858  18.708  0.00  0.00    +0.000 A 
ATOM     31  C   UNL     1      -0.008  15.303  18.548  0.00  0.00    +0.000 A 
ATOM     32  C   UNL     1      -0.358  16.628  18.823  0.00  0.00    +0.000 A 
ATOM     33  C   UNL     1       0.608  17.523  19.267  0.00  0.00    +0.000 A 
ATOM     34  C   UNL     1       1.930  17.097  19.419  0.00  0.00    +0.000 A 
ATOM     35  C   UNL     1       2.288  15.769  19.135  0.00  0.00    +0.000 A 
ENDBRANCH  28  30
ENDBRANCH  27  28
ENDBRANCH   5  27
TORSDOF 9
ENDMDL
MODEL 2
REMARK VINA RESULT:      -7.5      3.253      8.440
REMARK  Name = 
REMARK  10 active torsions:
REMARK  status: ('A' for Active; 'I' for Inactive)
REMARK    1  A    between atoms: C_1  and  C_2
REMARK    2  A    between atoms: C_2  and  C_3
REMARK    3  A    between atoms: C_3  and  C_4
REMARK    4  A    between atoms: C_4  and  C_5
REMARK    5  A    between atoms: C_5  and  C_6
REMARK    6  A    between atoms: C_6  and  N_7
REMARK    7  A    between atoms: N_11  and  C_12
REMARK    8  A    between atoms: C_12  and  C_13
REMARK    9  A    between atoms: C_13  and  C_15
REMARK   10  A    between atoms: C_23  and  C_24
REMARK                            x       y       z     vdW  Elec       q    Type
REMARK                         _______ _______ _______ _____ _____    ______ ____
ROOT
ATOM      1  N   UNL     1      -1.990  12.544  22.285  0.00  0.00    +0.000 N 
ATOM      2  C   UNL     1      -1.058  11.615  22.875  0.00  0.00    +0.000 C 
ATOM      3  C   UNL     1      -0.592  10.910  21.672  0.00  0.00    +0.000 A 
ATOM      4  C   UNL     1      -1.145  11.310  20.517  0.00  0.00    +0.000 A 
ATOM      5  N   UNL     1      -0.832  10.798  19.260  0.00  0.00    +0.000 N 
ATOM      6  C   UNL     1       0.156   9.840  19.215  0.00  0.00    +0.000 A 
ATOM      7  C   UNL     1       0.803   9.164  18.208  0.00  0.00    +0.000 A 
ATOM      8  C   UNL     1       1.717   8.289  18.855  0.00  0.00    +0.000 A 
ATOM      9  N   UNL     1       1.639   8.400  20.188  0.00  0.00    +0.000 NA
ATOM     10  N   UNL     1       0.733   9.384  20.400  0.00  0.00    +0.000 N 
ATOM     11  C   UNL     1       0.423   9.861  21.687  0.00  0.00    +0.000 A 
ATOM     12  O   UNL     1       0.953   9.430  22.703  0.00  0.00    +0.000 OA
ATOM     13  C   UNL     1      -2.124  12.365  20.912  0.00  0.00    +0.000 C 
ATOM     14  O   UNL     1      -2.900  12.926  20.159  0.00  0.00    +0.000 OA
ENDROOT
BRANCH   8  15
ATOM     15  C   UNL     1       2.642   7.353  18.219  0.00  0.00    +0.000 A 
ATOM     16  C   UNL     1       3.762   7.828  17.520  0.00  0.00    +0.000 A 
ATOM     17  C   UNL     1       4.643   6.934  16.910  0.00  0.00    +0.000 A 
ATOM     18  C   UNL     1       4.414   5.563  16.990  0.00  0.00    +0.000 A 
ATOM     19  C   UNL     1       3.305   5.080  17.683  0.00  0.00    +0.000 A 
ATOM     20  C   UNL     1       2.425   5.971  18.299  0.00  0.00    +0.000 A 
ENDBRANCH   8  15
BRANCH   1  21
ATOM     21  C   UNL     1      -2.780  13.463  23.089  0.00  0.00    +0.000 C 
BRANCH  21  22
ATOM     22  C   UNL     1      -3.780  12.761  24.013  0.00  0.00    +0.000 C 
BRANCH  22  23
ATOM     23  C   UNL     1      -5.203  13.309  23.866  0.00  0.00    +0.000 C 
BRANCH  23  24
ATOM     24  C   UNL     1      -5.487  13.738  22.426  0.00  0.00    +0.000 C 
BRANCH  24  26
ATOM     25  C   UNL     1      -7.516  12.428  21.716  0.00  0.00    +0.000 C 
ATOM     26  C   UNL     1      -6.007  12.570  21.589  0.00  0.00    +0.000 C 
ENDBRANCH  24  26
ENDBRANCH  23  24
ENDBRANCH  22  23
ENDBRANCH  21  22
ENDBRANCH   1  21
BRANCH   5  27
ATOM     27  C   UNL     1      -1.340  11.363  17.980  0.00  0.00    +0.000 C 
BRANCH  27  28
ATOM     28  C   UNL     1      -2.465  10.508  17.387  0.00  0.00    +0.000 C 
ATOM     29  O   UNL     1      -2.255   9.549  16.640  0.00  0.00    +0.000 OA
BRANCH  28  30
ATOM     30  C   UNL     1      -3.895  10.843  17.694  0.00  0.00    +0.000 A 
ATOM     31  C   UNL     1      -4.459  11.931  17.011  0.00  0.00    +0.000 A 
ATOM     32  C   UNL     1      -5.810  12.254  17.163  0.00  0.00    +0.000 A 
ATOM     33  C   UNL     1      -6.616  11.487  17.996  0.00  0.00    +0.000 A 
ATOM     34  C   UNL     1      -6.066  10.409  18.693  0.00  0.00    +0.000 A 
ATOM     35  C   UNL     1      -4.706  10.087  18.550  0.00  0.00    +0.000 A 
ENDBRANCH  28  30
ENDBRANCH  27  28
ENDBRANCH   5  27
TORSDOF 9
ENDMDL
MODEL 3
REMARK VINA RESULT:      -7.4      0.642      1.525
REMARK  Name = 
REMARK  10 active torsions:
REMARK  status: ('A' for Active; 'I' for Inactive)
REMARK    1  A    between atoms: C_1  and  C_2
REMARK    2  A    between atoms: C_2  and  C_3
REMARK    3  A    between atoms: C_3  and  C_4
REMARK    4  A    between atoms: C_4  and  C_5
REMARK    5  A    between atoms: C_5  and  C_6
REMARK    6  A    between atoms: C_6  and  N_7
REMARK    7  A    between atoms: N_11  and  C_12
REMARK    8  A    between atoms: C_12  and  C_13
REMARK    9  A    between atoms: C_13  and  C_15
REMARK   10  A    between atoms: C_23  and  C_24
REMARK                            x       y       z     vdW  Elec       q    Type
REMARK                         _______ _______ _______ _____ _____    ______ ____
ROOT
ATOM      1  N   UNL     1       1.777   8.168  19.442  0.00  0.00    +0.000 N 
ATOM      2  C   UNL     1       1.412   8.104  20.835  0.00  0.00    +0.000 C 
ATOM      3  C   UNL     1       0.835   9.444  21.017  0.00  0.00    +0.000 A 
ATOM      4  C   UNL     1       0.847  10.231  19.931  0.00  0.00    +0.000 A 
ATOM      5  N   UNL     1       0.331  11.523  19.872  0.00  0.00    +0.000 N 
ATOM      6  C   UNL     1      -0.275  11.996  21.015  0.00  0.00    +0.000 A 
ATOM      7  C   UNL     1      -0.963  13.140  21.344  0.00  0.00    +0.000 A 
ATOM      8  C   UNL     1      -1.310  13.002  22.715  0.00  0.00    +0.000 A 
ATOM      9  N   UNL     1      -0.858  11.845  23.219  0.00  0.00    +0.000 NA
ATOM     10  N   UNL     1      -0.282  11.213  22.169  0.00  0.00    +0.000 N 
ATOM     11  C   UNL     1       0.251   9.915  22.270  0.00  0.00    +0.000 A 
ATOM     12  O   UNL     1       0.226   9.262  23.305  0.00  0.00    +0.000 OA
ATOM     13  C   UNL     1       1.523   9.415  18.880  0.00  0.00    +0.000 C 
ATOM     14  O   UNL     1       1.811   9.801  17.762  0.00  0.00    +0.000 OA
ENDROOT
BRANCH   8  15
ATOM     15  C   UNL     1      -2.051  13.956  23.537  0.00  0.00    +0.000 A 
ATOM     16  C   UNL     1      -3.449  14.038  23.443  0.00  0.00    +0.000 A 
ATOM     17  C   UNL     1      -4.155  14.952  24.226  0.00  0.00    +0.000 A 
ATOM     18  C   UNL     1      -3.475  15.791  25.105  0.00  0.00    +0.000 A 
ATOM     19  C   UNL     1      -2.087  15.718  25.207  0.00  0.00    +0.000 A 
ATOM     20  C   UNL     1      -1.378  14.800  24.430  0.00  0.00    +0.000 A 
ENDBRANCH   8  15
BRANCH   1  21
ATOM     21  C   UNL     1       2.454   7.071  18.768  0.00  0.00    +0.000 C 
BRANCH  21  22
ATOM     22  C   UNL     1       2.731   5.871  19.681  0.00  0.00    +0.000 C 
BRANCH  22  23
ATOM     23  C   UNL     1       1.760   4.712  19.439  0.00  0.00    +0.000 C 
BRANCH  23  24
ATOM     24  C   UNL     1       1.719   4.321  17.962  0.00  0.00    +0.000 C 
BRANCH  24  26
ATOM     25  C   UNL     1       2.866   2.088  17.764  0.00  0.00    +0.000 C 
ATOM     26  C   UNL     1       2.994   3.587  17.544  0.00  0.00    +0.000 C 
ENDBRANCH  24  26
ENDBRANCH  23  24
ENDBRANCH  22  23
ENDBRANCH  21  22
ENDBRANCH   1  21
BRANCH   5  27
ATOM     27  C   UNL     1       0.212  12.318  18.619  0.00  0.00    +0.000 C 
BRANCH  27  28
ATOM     28  C   UNL     1       1.358  13.326  18.473  0.00  0.00    +0.000 C 
ATOM     29  O   UNL     1       2.502  12.998  18.152  0.00  0.00    +0.000 OA
BRANCH  28  30
ATOM     30  C   UNL     1       1.109  14.779  18.750  0.00  0.00    +0.000 A 
ATOM     31  C   UNL     1       2.222  15.569  19.079  0.00  0.00    +0.000 A 
ATOM     32  C   UNL     1       2.097  16.949  19.257  0.00  0.00    +0.000 A 
ATOM     33  C   UNL     1       0.857  17.559  19.102  0.00  0.00    +0.000 A 
ATOM     34  C   UNL     1      -0.262  16.784  18.788  0.00  0.00    +0.000 A 
ATOM     35  C   UNL     1      -0.142  15.396  18.618  0.00  0.00    +0.000 A 
ENDBRANCH  28  30
ENDBRANCH  27  28
ENDBRANCH   5  27
TORSDOF 9
ENDMDL
MODEL 4
REMARK VINA RESULT:      -7.3      2.360      3.384
REMARK  Name = 
REMARK  10 active torsions:
REMARK  status: ('A' for Active; 'I' for Inactive)
REMARK    1  A    between atoms: C_1  and  C_2
REMARK    2  A    between atoms: C_2  and  C_3
REMARK    3  A    between atoms: C_3  and  C_4
REMARK    4  A    between atoms: C_4  and  C_5
REMARK    5  A    between atoms: C_5  and  C_6
REMARK    6  A    between atoms: C_6  and  N_7
REMARK    7  A    between atoms: N_11  and  C_12
REMARK    8  A    between atoms: C_12  and  C_13
REMARK    9  A    between atoms: C_13  and  C_15
REMARK   10  A    between atoms: C_23  and  C_24
REMARK                            x       y       z     vdW  Elec       q    Type
REMARK                         _______ _______ _______ _____ _____    ______ ____
ROOT
ATOM      1  N   UNL     1       1.693   8.015  20.094  0.00  0.00    +0.000 N 
ATOM      2  C   UNL     1       1.447   8.199  21.503  0.00  0.00    +0.000 C 
ATOM      3  C   UNL     1       0.675   9.451  21.473  0.00  0.00    +0.000 A 
ATOM      4  C   UNL     1       0.480   9.980  20.256  0.00  0.00    +0.000 A 
ATOM      5  N   UNL     1      -0.242  11.142  19.995  0.00  0.00    +0.000 N 
ATOM      6  C   UNL     1      -0.830  11.757  21.078  0.00  0.00    +0.000 A 
ATOM      7  C   UNL     1      -1.668  12.835  21.242  0.00  0.00    +0.000 A 
ATOM      8  C   UNL     1      -1.886  12.945  22.643  0.00  0.00    +0.000 A 
ATOM      9  N   UNL     1      -1.217  12.000  23.317  0.00  0.00    +0.000 NA
ATOM     10  N   UNL     1      -0.625  11.246  22.360  0.00  0.00    +0.000 N 
ATOM     11  C   UNL     1       0.118  10.090  22.661  0.00  0.00    +0.000 A 
ATOM     12  O   UNL     1       0.275   9.677  23.803  0.00  0.00    +0.000 OA
ATOM     13  C   UNL     1       1.200   9.064  19.325  0.00  0.00    +0.000 C 
ATOM     14  O   UNL     1       1.338   9.238  18.127  0.00  0.00    +0.000 OA
ENDROOT
BRANCH   8  15
ATOM     15  C   UNL     1      -2.710  13.937  23.331  0.00  0.00    +0.000 A 
ATOM     16  C   UNL     1      -2.128  14.837  24.237  0.00  0.00    +0.000 A 
ATOM     17  C   UNL     1      -2.915  15.782  24.895  0.00  0.00    +0.000 A 
ATOM     18  C   UNL     1      -4.286  15.835  24.659  0.00  0.00    +0.000 A 
ATOM     19  C   UNL     1      -4.875  14.947  23.760  0.00  0.00    +0.000 A 
ATOM     20  C   UNL     1      -4.089  14.005  23.094  0.00  0.00    +0.000 A 
ENDBRANCH   8  15
BRANCH   1  21
ATOM     21  C   UNL     1       2.487   6.907  19.586  0.00  0.00    +0.000 C 
BRANCH  21  22
ATOM     22  C   UNL     1       1.774   5.554  19.670  0.00  0.00    +0.000 C 
BRANCH  22  23
ATOM     23  C   UNL     1       2.345   4.654  20.768  0.00  0.00    +0.000 C 
BRANCH  23  24
ATOM     24  C   UNL     1       2.486   3.210  20.287  0.00  0.00    +0.000 C 
BRANCH  24  26
ATOM     25  C   UNL     1       2.431   2.228  17.969  0.00  0.00    +0.000 C 
ATOM     26  C   UNL     1       1.635   2.952  19.043  0.00  0.00    +0.000 C 
ENDBRANCH  24  26
ENDBRANCH  23  24
ENDBRANCH  22  23
ENDBRANCH  21  22
ENDBRANCH   1  21
BRANCH   5  27
ATOM     27  C   UNL     1      -0.580  11.625  18.628  0.00  0.00    +0.000 C 
BRANCH  27  28
ATOM     28  C   UNL     1      -1.763  10.854  18.029  0.00  0.00    +0.000 C 
ATOM     29  O   UNL     1      -1.642   9.745  17.503  0.00  0.00    +0.000 OA
BRANCH  28  30
ATOM     30  C   UNL     1      -3.134  11.462  18.051  0.00  0.00    +0.000 A 
ATOM     31  C   UNL     1      -3.858  11.453  16.848  0.00  0.00    +0.000 A 
ATOM     32  C   UNL     1      -5.178  11.910  16.800  0.00  0.00    +0.000 A 
ATOM     33  C   UNL     1      -5.792  12.377  17.956  0.00  0.00    +0.000 A 
ATOM     34  C   UNL     1      -5.080  12.404  19.157  0.00  0.00    +0.000 A 
ATOM     35  C   UNL     1      -3.751  11.955  19.208  0.00  0.00    +0.000 A 
ENDBRANCH  28  30
ENDBRANCH  27  28
ENDBRANCH   5  27
TORSDOF 9
ENDMDL
MODEL 5
REMARK VINA RESULT:      -7.3      2.302      3.326
REMARK  Name = 
REMARK  10 active torsions:
REMARK  status: ('A' for Active; 'I' for Inactive)
REMARK    1  A    between atoms: C_1  and  C_2
REMARK    2  A    between atoms: C_2  and  C_3
REMARK    3  A    between atoms: C_3  and  C_4
REMARK    4  A    between atoms: C_4  and  C_5
REMARK    5  A    between atoms: C_5  and  C_6
REMARK    6  A    between atoms: C_6  and  N_7
REMARK    7  A    between atoms: N_11  and  C_12
REMARK    8  A    between atoms: C_12  and  C_13
REMARK    9  A    between atoms: C_13  and  C_15
REMARK   10  A    between atoms: C_23  and  C_24
REMARK                            x       y       z     vdW  Elec       q    Type
REMARK                         _______ _______ _______ _____ _____    ______ ____
ROOT
ATOM      1  N   UNL     1       2.040   7.792  19.099  0.00  0.00    +0.000 N 
ATOM      2  C   UNL     1       1.992   7.845  20.539  0.00  0.00    +0.000 C 
ATOM      3  C   UNL     1       1.209   9.075  20.731  0.00  0.00    +0.000 A 
ATOM      4  C   UNL     1       0.839   9.705  19.606  0.00  0.00    +0.000 A 
ATOM      5  N   UNL     1       0.074  10.868  19.554  0.00  0.00    +0.000 N 
ATOM      6  C   UNL     1      -0.364  11.370  20.760  0.00  0.00    +0.000 A 
ATOM      7  C   UNL     1      -1.183  12.408  21.136  0.00  0.00    +0.000 A 
ATOM      8  C   UNL     1      -1.204  12.389  22.557  0.00  0.00    +0.000 A 
ATOM      9  N   UNL     1      -0.435  11.404  23.043  0.00  0.00    +0.000 NA
ATOM     10  N   UNL     1       0.025  10.753  21.949  0.00  0.00    +0.000 N 
ATOM     11  C   UNL     1       0.817   9.593  22.038  0.00  0.00    +0.000 A 
ATOM     12  O   UNL     1       1.138   9.085  23.104  0.00  0.00    +0.000 OA
ATOM     13  C   UNL     1       1.431   8.893  18.504  0.00  0.00    +0.000 C 
ATOM     14  O   UNL     1       1.398   9.176  17.320  0.00  0.00    +0.000 OA
ENDROOT
BRANCH   8  15
ATOM     15  C   UNL     1      -1.934  13.296  23.440  0.00  0.00    +0.000 A 
ATOM     16  C   UNL     1      -1.293  14.413  23.996  0.00  0.00    +0.000 A 
ATOM     17  C   UNL     1      -1.991  15.277  24.841  0.00  0.00    +0.000 A 
ATOM     18  C   UNL     1      -3.328  15.033  25.141  0.00  0.00    +0.000 A 
ATOM     19  C   UNL     1      -3.975  13.926  24.593  0.00  0.00    +0.000 A 
ATOM     20  C   UNL     1      -3.283  13.063  23.742  0.00  0.00    +0.000 A 
ENDBRANCH   8  15
BRANCH   1  21
ATOM     21  C   UNL     1       2.768   6.753  18.387  0.00  0.00    +0.000 C 
BRANCH  21  22
ATOM     22  C   UNL     1       2.896   5.446  19.176  0.00  0.00    +0.000 C 
BRANCH  22  23
ATOM     23  C   UNL     1       1.784   4.447  18.843  0.00  0.00    +0.000 C 
BRANCH  23  24
ATOM     24  C   UNL     1       1.010   4.039  20.097  0.00  0.00    +0.000 C 
BRANCH  24  26
ATOM     25  C   UNL     1       2.504   2.627  21.550  0.00  0.00    +0.000 C 
ATOM     26  C   UNL     1       1.917   4.012  21.327  0.00  0.00    +0.000 C 
ENDBRANCH  24  26
ENDBRANCH  23  24
ENDBRANCH  22  23
ENDBRANCH  21  22
ENDBRANCH   1  21
BRANCH   5  27
ATOM     27  C   UNL     1      -0.459  11.461  18.297  0.00  0.00    +0.000 C 
BRANCH  27  28
ATOM     28  C   UNL     1      -1.657  10.671  17.759  0.00  0.00    +0.000 C 
ATOM     29  O   UNL     1      -1.542   9.749  16.948  0.00  0.00    +0.000 OA
BRANCH  28  30
ATOM     30  C   UNL     1      -3.044  11.029  18.204  0.00  0.00    +0.000 A 
ATOM     31  C   UNL     1      -3.183  12.160  19.023  0.00  0.00    +0.000 A 
ATOM     32  C   UNL     1      -4.446  12.622  19.404  0.00  0.00    +0.000 A 
ATOM     33  C   UNL     1      -5.587  11.960  18.966  0.00  0.00    +0.000 A 
ATOM     34  C   UNL     1      -5.464  10.825  18.162  0.00  0.00    +0.000 A 
ATOM     35  C   UNL     1      -4.197  10.352  17.784  0.00  0.00    +0.000 A 
ENDBRANCH  28  30
ENDBRANCH  27  28
ENDBRANCH   5  27
TORSDOF 9
ENDMDL
MODEL 6
REMARK VINA RESULT:      -7.3      2.252      3.313
REMARK  Name = 
REMARK  10 active torsions:
REMARK  status: ('A' for Active; 'I' for Inactive)
REMARK    1  A    between atoms: C_1  and  C_2
REMARK    2  A    between atoms: C_2  and  C_3
REMARK    3  A    between atoms: C_3  and  C_4
REMARK    4  A    between atoms: C_4  and  C_5
REMARK    5  A    between atoms: C_5  and  C_6
REMARK    6  A    between atoms: C_6  and  N_7
REMARK    7  A    between atoms: N_11  and  C_12
REMARK    8  A    between atoms: C_12  and  C_13
REMARK    9  A    between atoms: C_13  and  C_15
REMARK   10  A    between atoms: C_23  and  C_24
REMARK                            x       y       z     vdW  Elec       q    Type
REMARK                         _______ _______ _______ _____ _____    ______ ____
ROOT
ATOM      1  N   UNL     1       1.932   7.862  19.659  0.00  0.00    +0.000 N 
ATOM      2  C   UNL     1       1.760   7.991  21.085  0.00  0.00    +0.000 C 
ATOM      3  C   UNL     1       0.997   9.246  21.146  0.00  0.00    +0.000 A 
ATOM      4  C   UNL     1       0.744   9.826  19.963  0.00  0.00    +0.000 A 
ATOM      5  N   UNL     1       0.018  11.002  19.786  0.00  0.00    +0.000 N 
ATOM      6  C   UNL     1      -0.509  11.575  20.922  0.00  0.00    +0.000 A 
ATOM      7  C   UNL     1      -1.329  12.650  21.172  0.00  0.00    +0.000 A 
ATOM      8  C   UNL     1      -1.475  12.704  22.585  0.00  0.00    +0.000 A 
ATOM      9  N   UNL     1      -0.779  11.729  23.185  0.00  0.00    +0.000 NA
ATOM     10  N   UNL     1      -0.243  11.012  22.169  0.00  0.00    +0.000 N 
ATOM     11  C   UNL     1       0.506   9.840  22.386  0.00  0.00    +0.000 A 
ATOM     12  O   UNL     1       0.718   9.381  23.500  0.00  0.00    +0.000 OA
ATOM     13  C   UNL     1       1.408   8.944  18.959  0.00  0.00    +0.000 C 
ATOM     14  O   UNL     1       1.487   9.167  17.764  0.00  0.00    +0.000 OA
ENDROOT
BRANCH   8  15
ATOM     15  C   UNL     1      -2.255  13.672  23.354  0.00  0.00    +0.000 A 
ATOM     16  C   UNL     1      -3.656  13.675  23.278  0.00  0.00    +0.000 A 
ATOM     17  C   UNL     1      -4.398  14.602  24.010  0.00  0.00    +0.000 A 
ATOM     18  C   UNL     1      -3.752  15.532  24.820  0.00  0.00    +0.000 A 
ATOM     19  C   UNL     1      -2.361  15.538  24.903  0.00  0.00    +0.000 A 
ATOM     20  C   UNL     1      -1.615  14.608  24.177  0.00  0.00    +0.000 A 
ENDBRANCH   8  15
BRANCH   1  21
ATOM     21  C   UNL     1       2.691   6.772  19.067  0.00  0.00    +0.000 C 
BRANCH  21  22
ATOM     22  C   UNL     1       1.846   5.847  18.185  0.00  0.00    +0.000 C 
BRANCH  22  23
ATOM     23  C   UNL     1       2.521   4.497  17.932  0.00  0.00    +0.000 C 
BRANCH  23  24
ATOM     24  C   UNL     1       2.915   3.818  19.244  0.00  0.00    +0.000 C 
BRANCH  24  26
ATOM     25  C   UNL     1       1.213   3.185  20.988  0.00  0.00    +0.000 C 
ATOM     26  C   UNL     1       1.870   2.789  19.675  0.00  0.00    +0.000 C 
ENDBRANCH  24  26
ENDBRANCH  23  24
ENDBRANCH  22  23
ENDBRANCH  21  22
ENDBRANCH   1  21
BRANCH   5  27
ATOM     27  C   UNL     1      -0.386  11.541  18.459  0.00  0.00    +0.000 C 
BRANCH  27  28
ATOM     28  C   UNL     1      -1.595  10.793  17.885  0.00  0.00    +0.000 C 
ATOM     29  O   UNL     1      -1.499   9.706  17.310  0.00  0.00    +0.000 OA
BRANCH  28  30
ATOM     30  C   UNL     1      -2.963  11.397  17.994  0.00  0.00    +0.000 A 
ATOM     31  C   UNL     1      -3.773  11.362  16.848  0.00  0.00    +0.000 A 
ATOM     32  C   UNL     1      -5.095  11.814  16.887  0.00  0.00    +0.000 A 
ATOM     33  C   UNL     1      -5.626  12.302  18.075  0.00  0.00    +0.000 A 
ATOM     34  C   UNL     1      -4.828  12.356  19.220  0.00  0.00    +0.000 A 
ATOM     35  C   UNL     1      -3.497  11.912  19.183  0.00  0.00    +0.000 A 
ENDBRANCH  28  30
ENDBRANCH  27  28
ENDBRANCH   5  27
TORSDOF 9
ENDMDL
MODEL 7
REMARK VINA RESULT:      -7.2      3.196      4.301
REMARK  Name = 
REMARK  10 active torsions:
REMARK  status: ('A' for Active; 'I' for Inactive)
REMARK    1  A    between atoms: C_1  and  C_2
REMARK    2  A    between atoms: C_2  and  C_3
REMARK    3  A    between atoms: C_3  and  C_4
REMARK    4  A    between atoms: C_4  and  C_5
REMARK    5  A    between atoms: C_5  and  C_6
REMARK    6  A    between atoms: C_6  and  N_7
REMARK    7  A    between atoms: N_11  and  C_12
REMARK    8  A    between atoms: C_12  and  C_13
REMARK    9  A    between atoms: C_13  and  C_15
REMARK   10  A    between atoms: C_23  and  C_24
REMARK                            x       y       z     vdW  Elec       q    Type
REMARK                         _______ _______ _______ _____ _____    ______ ____
ROOT
ATOM      1  N   UNL     1       1.097   8.869  19.873  0.00  0.00    +0.000 N 
ATOM      2  C   UNL     1       0.917   9.226  21.259  0.00  0.00    +0.000 C 
ATOM      3  C   UNL     1      -0.106  10.275  21.129  0.00  0.00    +0.000 A 
ATOM      4  C   UNL     1      -0.497  10.549  19.875  0.00  0.00    +0.000 A 
ATOM      5  N   UNL     1      -1.468  11.483  19.526  0.00  0.00    +0.000 N 
ATOM      6  C   UNL     1      -2.097  12.134  20.564  0.00  0.00    +0.000 A 
ATOM      7  C   UNL     1      -3.133  13.032  20.657  0.00  0.00    +0.000 A 
ATOM      8  C   UNL     1      -3.270  13.322  22.042  0.00  0.00    +0.000 A 
ATOM      9  N   UNL     1      -2.367  12.655  22.772  0.00  0.00    +0.000 NA
ATOM     10  N   UNL     1      -1.696  11.891  21.877  0.00  0.00    +0.000 N 
ATOM     11  C   UNL     1      -0.702  10.973  22.264  0.00  0.00    +0.000 A 
ATOM     12  O   UNL     1      -0.379  10.792  23.430  0.00  0.00    +0.000 OA
ATOM     13  C   UNL     1       0.336   9.658  19.016  0.00  0.00    +0.000 C 
ATOM     14  O   UNL     1       0.349   9.660  17.798  0.00  0.00    +0.000 OA
ENDROOT
BRANCH   8  15
ATOM     15  C   UNL     1      -4.237  14.227  22.661  0.00  0.00    +0.000 A 
ATOM     16  C   UNL     1      -5.561  14.275  22.199  0.00  0.00    +0.000 A 
ATOM     17  C   UNL     1      -6.482  15.141  22.789  0.00  0.00    +0.000 A 
ATOM     18  C   UNL     1      -6.092  15.965  23.841  0.00  0.00    +0.000 A 
ATOM     19  C   UNL     1      -4.779  15.925  24.309  0.00  0.00    +0.000 A 
ATOM     20  C   UNL     1      -3.857  15.056  23.725  0.00  0.00    +0.000 A 
ENDBRANCH   8  15
BRANCH   1  21
ATOM     21  C   UNL     1       2.073   7.877  19.451  0.00  0.00    +0.000 C 
BRANCH  21  22
ATOM     22  C   UNL     1       1.950   6.543  20.193  0.00  0.00    +0.000 C 
BRANCH  22  23
ATOM     23  C   UNL     1       2.989   5.516  19.736  0.00  0.00    +0.000 C 
BRANCH  23  24
ATOM     24  C   UNL     1       2.332   4.186  19.366  0.00  0.00    +0.000 C 
BRANCH  24  26
ATOM     25  C   UNL     1       1.775   3.064  21.550  0.00  0.00    +0.000 C 
ATOM     26  C   UNL     1       2.712   3.083  20.353  0.00  0.00    +0.000 C 
ENDBRANCH  24  26
ENDBRANCH  23  24
ENDBRANCH  22  23
ENDBRANCH  21  22
ENDBRANCH   1  21
BRANCH   5  27
ATOM     27  C   UNL     1      -1.999  11.659  18.146  0.00  0.00    +0.000 C 
BRANCH  27  28
ATOM     28  C   UNL     1      -3.140  10.680  17.846  0.00  0.00    +0.000 C 
ATOM     29  O   UNL     1      -2.947   9.515  17.488  0.00  0.00    +0.000 OA
BRANCH  28  30
ATOM     30  C   UNL     1      -4.563  11.138  17.965  0.00  0.00    +0.000 A 
ATOM     31  C   UNL     1      -4.963  12.206  17.145  0.00  0.00    +0.000 A 
ATOM     32  C   UNL     1      -6.293  12.633  17.120  0.00  0.00    +0.000 A 
ATOM     33  C   UNL     1      -7.242  11.995  17.910  0.00  0.00    +0.000 A 
ATOM     34  C   UNL     1      -6.856  10.940  18.740  0.00  0.00    +0.000 A 
ATOM     35  C   UNL     1      -5.519  10.514  18.776  0.00  0.00    +0.000 A 
ENDBRANCH  28  30
ENDBRANCH  27  28
ENDBRANCH   5  27
TORSDOF 9
ENDMDL
MODEL 8
REMARK VINA RESULT:      -7.2      3.263      4.439
REMARK  Name = 
REMARK  10 active torsions:
REMARK  status: ('A' for Active; 'I' for Inactive)
REMARK    1  A    between atoms: C_1  and  C_2
REMARK    2  A    between atoms: C_2  and  C_3
REMARK    3  A    between atoms: C_3  and  C_4
REMARK    4  A    between atoms: C_4  and  C_5
REMARK    5  A    between atoms: C_5  and  C_6
REMARK    6  A    between atoms: C_6  and  N_7
REMARK    7  A    between atoms: N_11  and  C_12
REMARK    8  A    between atoms: C_12  and  C_13
REMARK    9  A    between atoms: C_13  and  C_15
REMARK   10  A    between atoms: C_23  and  C_24
REMARK                            x       y       z     vdW  Elec       q    Type
REMARK                         _______ _______ _______ _____ _____    ______ ____
ROOT
ATOM      1  N   UNL     1       1.052   8.963  19.713  0.00  0.00    +0.000 N 
ATOM      2  C   UNL     1       0.906   9.300  21.107  0.00  0.00    +0.000 C 
ATOM      3  C   UNL     1      -0.149  10.321  21.022  0.00  0.00    +0.000 A 
ATOM      4  C   UNL     1      -0.585  10.598  19.784  0.00  0.00    +0.000 A 
ATOM      5  N   UNL     1      -1.591  11.510  19.475  0.00  0.00    +0.000 N 
ATOM      6  C   UNL     1      -2.206  12.132  20.540  0.00  0.00    +0.000 A 
ATOM      7  C   UNL     1      -3.262  13.000  20.675  0.00  0.00    +0.000 A 
ATOM      8  C   UNL     1      -3.365  13.271  22.067  0.00  0.00    +0.000 A 
ATOM      9  N   UNL     1      -2.422  12.620  22.762  0.00  0.00    +0.000 NA
ATOM     10  N   UNL     1      -1.758  11.884  21.838  0.00  0.00    +0.000 N 
ATOM     11  C   UNL     1      -0.729  10.990  22.183  0.00  0.00    +0.000 A 
ATOM     12  O   UNL     1      -0.365  10.804  23.336  0.00  0.00    +0.000 OA
ATOM     13  C   UNL     1       0.245   9.740  18.889  0.00  0.00    +0.000 C 
ATOM     14  O   UNL     1       0.220   9.757  17.671  0.00  0.00    +0.000 OA
ENDROOT
BRANCH   8  15
ATOM     15  C   UNL     1      -4.336  14.141  22.727  0.00  0.00    +0.000 A 
ATOM     16  C   UNL     1      -3.982  15.447  23.098  0.00  0.00    +0.000 A 
ATOM     17  C   UNL     1      -4.909  16.275  23.730  0.00  0.00    +0.000 A 
ATOM     18  C   UNL     1      -6.193  15.810  23.999  0.00  0.00    +0.000 A 
ATOM     19  C   UNL     1      -6.557  14.515  23.633  0.00  0.00    +0.000 A 
ATOM     20  C   UNL     1      -5.634  13.685  22.995  0.00  0.00    +0.000 A 
ENDBRANCH   8  15
BRANCH   1  21
ATOM     21  C   UNL     1       2.042   8.003  19.249  0.00  0.00    +0.000 C 
BRANCH  21  22
ATOM     22  C   UNL     1       2.258   6.833  20.214  0.00  0.00    +0.000 C 
BRANCH  22  23
ATOM     23  C   UNL     1       2.029   5.472  19.551  0.00  0.00    +0.000 C 
BRANCH  23  24
ATOM     24  C   UNL     1       2.408   5.505  18.070  0.00  0.00    +0.000 C 
BRANCH  24  26
ATOM     25  C   UNL     1       4.551   6.340  17.045  0.00  0.00    +0.000 C 
ATOM     26  C   UNL     1       3.900   5.241  17.871  0.00  0.00    +0.000 C 
ENDBRANCH  24  26
ENDBRANCH  23  24
ENDBRANCH  22  23
ENDBRANCH  21  22
ENDBRANCH   1  21
BRANCH   5  27
ATOM     27  C   UNL     1      -2.168  11.687  18.115  0.00  0.00    +0.000 C 
BRANCH  27  28
ATOM     28  C   UNL     1      -3.336  10.726  17.862  0.00  0.00    +0.000 C 
ATOM     29  O   UNL     1      -3.177   9.522  17.643  0.00  0.00    +0.000 OA
BRANCH  28  30
ATOM     30  C   UNL     1      -4.741  11.249  17.854  0.00  0.00    +0.000 A 
ATOM     31  C   UNL     1      -5.593  10.815  18.882  0.00  0.00    +0.000 A 
ATOM     32  C   UNL     1      -6.888  11.326  19.007  0.00  0.00    +0.000 A 
ATOM     33  C   UNL     1      -7.345  12.283  18.108  0.00  0.00    +0.000 A 
ATOM     34  C   UNL     1      -6.514  12.714  17.072  0.00  0.00    +0.000 A 
ATOM     35  C   UNL     1      -5.216  12.196  16.937  0.00  0.00    +0.000 A 
ENDBRANCH  28  30
ENDBRANCH  27  28
ENDBRANCH   5  27
TORSDOF 9
ENDMDL
MODEL 9
REMARK VINA RESULT:      -7.2      1.721      2.987
REMARK  Name = 
REMARK  10 active torsions:
REMARK  status: ('A' for Active; 'I' for Inactive)
REMARK    1  A    between atoms: C_1  and  C_2
REMARK    2  A    between atoms: C_2  and  C_3
REMARK    3  A    between atoms: C_3  and  C_4
REMARK    4  A    between atoms: C_4  and  C_5
REMARK    5  A    between atoms: C_5  and  C_6
REMARK    6  A    between atoms: C_6  and  N_7
REMARK    7  A    between atoms: N_11  and  C_12
REMARK    8  A    between atoms: C_12  and  C_13
REMARK    9  A    between atoms: C_13  and  C_15
REMARK   10  A    between atoms: C_23  and  C_24
REMARK                            x       y       z     vdW  Elec       q    Type
REMARK                         _______ _______ _______ _____ _____    ______ ____
ROOT
ATOM      1  N   UNL     1       1.909   8.070  19.260  0.00  0.00    +0.000 N 
ATOM      2  C   UNL     1       1.412   7.915  20.605  0.00  0.00    +0.000 C 
ATOM      3  C   UNL     1       0.940   9.282  20.871  0.00  0.00    +0.000 A 
ATOM      4  C   UNL     1       1.123  10.160  19.873  0.00  0.00    +0.000 A 
ATOM      5  N   UNL     1       0.729  11.496  19.900  0.00  0.00    +0.000 N 
ATOM      6  C   UNL     1       0.063  11.918  21.030  0.00  0.00    +0.000 A 
ATOM      7  C   UNL     1      -0.549  13.087  21.412  0.00  0.00    +0.000 A 
ATOM      8  C   UNL     1      -1.033  12.858  22.728  0.00  0.00    +0.000 A 
ATOM      9  N   UNL     1      -0.733  11.622  23.151  0.00  0.00    +0.000 NA
ATOM     10  N   UNL     1      -0.119  11.036  22.095  0.00  0.00    +0.000 N 
ATOM     11  C   UNL     1       0.286   9.689  22.111  0.00  0.00    +0.000 A 
ATOM     12  O   UNL     1       0.108   8.950  23.070  0.00  0.00    +0.000 OA
ATOM     13  C   UNL     1       1.820   9.383  18.807  0.00  0.00    +0.000 C 
ATOM     14  O   UNL     1       2.243   9.840  17.761  0.00  0.00    +0.000 OA
ENDROOT
BRANCH   8  15
ATOM     15  C   UNL     1      -1.761  13.800  23.576  0.00  0.00    +0.000 A 
ATOM     16  C   UNL     1      -1.073  14.802  24.277  0.00  0.00    +0.000 A 
ATOM     17  C   UNL     1      -1.769  15.699  25.088  0.00  0.00    +0.000 A 
ATOM     18  C   UNL     1      -3.153  15.603  25.210  0.00  0.00    +0.000 A 
ATOM     19  C   UNL     1      -3.847  14.611  24.517  0.00  0.00    +0.000 A 
ATOM     20  C   UNL     1      -3.155  13.717  23.700  0.00  0.00    +0.000 A 
ENDBRANCH   8  15
BRANCH   1  21
ATOM     21  C   UNL     1       2.548   6.980  18.540  0.00  0.00    +0.000 C 
BRANCH  21  22
ATOM     22  C   UNL     1       2.848   5.760  19.419  0.00  0.00    +0.000 C 
BRANCH  22  23
ATOM     23  C   UNL     1       2.020   4.534  19.026  0.00  0.00    +0.000 C 
BRANCH  23  24
ATOM     24  C   UNL     1       1.080   4.113  20.156  0.00  0.00    +0.000 C 
BRANCH  24  26
ATOM     25  C   UNL     1       2.623   2.513  21.338  0.00  0.00    +0.000 C 
ATOM     26  C   UNL     1       1.852   3.819  21.442  0.00  0.00    +0.000 C 
ENDBRANCH  24  26
ENDBRANCH  23  24
ENDBRANCH  22  23
ENDBRANCH  21  22
ENDBRANCH   1  21
BRANCH   5  27
ATOM     27  C   UNL     1       0.798  12.409  18.728  0.00  0.00    +0.000 C 
BRANCH  27  28
ATOM     28  C   UNL     1      -0.591  12.914  18.318  0.00  0.00    +0.000 C 
ATOM     29  O   UNL     1      -0.871  14.112  18.234  0.00  0.00    +0.000 OA
BRANCH  28  30
ATOM     30  C   UNL     1      -1.682  11.928  18.021  0.00  0.00    +0.000 A 
ATOM     31  C   UNL     1      -1.329  10.779  17.297  0.00  0.00    +0.000 A 
ATOM     32  C   UNL     1      -2.259   9.764  17.060  0.00  0.00    +0.000 A 
ATOM     33  C   UNL     1      -3.554   9.882  17.549  0.00  0.00    +0.000 A 
ATOM     34  C   UNL     1      -3.924  11.026  18.260  0.00  0.00    +0.000 A 
ATOM     35  C   UNL     1      -2.996  12.053  18.493  0.00  0.00    +0.000 A 
ENDBRANCH  28  30
ENDBRANCH  27  28
ENDBRANCH   5  27
TORSDOF 9
ENDMDL
