MODEL 1
REMARK VINA RESULT:      -8.7      0.000      0.000
REMARK  Name = 
REMARK  7 active torsions:
REMARK  status: ('A' for Active; 'I' for Inactive)
REMARK    1  A    between atoms: C_1  and  C_2
REMARK    2  A    between atoms: C_5  and  C_6
REMARK    3  A    between atoms: C_7  and  C_8
REMARK    4  A    between atoms: C_8  and  N_9
REMARK    5  A    between atoms: C_11  and  N_12
REMARK    6  A    between atoms: C_16  and  C_17
REMARK    7  A    between atoms: C_17  and  C_18
REMARK                            x       y       z     vdW  Elec       q    Type
REMARK                         _______ _______ _______ _____ _____    ______ ____
ROOT
ATOM      1  N   UNL     1       2.260   6.755  18.827  0.00  0.00    +0.000 N 
ATOM      2  C   UNL     1       2.181   8.045  18.370  0.00  0.00    +0.000 C 
ATOM      3  O   UNL     1       2.445   8.500  17.269  0.00  0.00    +0.000 OA
ATOM      4  N   UNL     1       1.713   8.836  19.402  0.00  0.00    +0.000 N 
ATOM      5  C   UNL     1       1.593   8.110  20.638  0.00  0.00    +0.000 C 
ATOM      6  C   UNL     1       1.925   6.695  20.161  0.00  0.00    +0.000 C 
ATOM      7  O   UNL     1       1.920   5.719  20.901  0.00  0.00    +0.000 OA
ATOM      8  H   UNL     1       1.658   9.844  19.305  0.00  0.00    +0.000 HD
ENDROOT
BRANCH   1  11
ATOM      9  N   UNL     1       3.900   4.194  16.988  0.00  0.00    +0.000 N 
ATOM     10  C   UNL     1       3.902   5.466  17.492  0.00  0.00    +0.000 A 
ATOM     11  C   UNL     1       2.672   5.656  18.086  0.00  0.00    +0.000 A 
ATOM     12  C   UNL     1       1.966   4.465  17.787  0.00  0.00    +0.000 A 
ATOM     13  N   UNL     1       2.706   3.579  17.113  0.00  0.00    +0.000 NA
BRANCH   9  14
ATOM     14  C   UNL     1       5.071   3.425  16.576  0.00  0.00    +0.000 C 
BRANCH  14  21
ATOM     15  C   UNL     1       7.406   5.416  17.649  0.00  0.00    +0.000 C 
ATOM     16  C   UNL     1       7.034   5.108  16.247  0.00  0.00    +0.000 A 
ATOM     17  N   UNL     1       7.671   5.709  15.236  0.00  0.00    +0.000 NA
ATOM     18  O   UNL     1       7.085   5.234  14.083  0.00  0.00    +0.000 OA
ATOM     19  C   UNL     1       6.096   4.358  14.402  0.00  0.00    +0.000 A 
ATOM     20  C   UNL     1       5.351   3.780  13.266  0.00  0.00    +0.000 C 
ATOM     21  C   UNL     1       6.019   4.230  15.773  0.00  0.00    +0.000 A 
ENDBRANCH  14  21
ENDBRANCH   9  14
ENDBRANCH   1  11
BRANCH   5  22
ATOM     22  C   UNL     1       0.203   8.124  21.267  0.00  0.00    +0.000 C 
BRANCH  22  23
ATOM     23  C   UNL     1      -0.322   9.508  21.554  0.00  0.00    +0.000 A 
ATOM     24  C   UNL     1      -0.651   9.874  22.866  0.00  0.00    +0.000 A 
ATOM     25  C   UNL     1      -1.110  11.160  23.148  0.00  0.00    +0.000 A 
ATOM     26  C   UNL     1      -1.246  12.091  22.121  0.00  0.00    +0.000 A 
ATOM     27  C   UNL     1      -0.933  11.734  20.811  0.00  0.00    +0.000 A 
ATOM     28  C   UNL     1      -0.477  10.447  20.527  0.00  0.00    +0.000 A 
ENDBRANCH  22  23
ENDBRANCH   5  22
TORSDOF 5
ENDMDL
MODEL 2
REMARK VINA RESULT:      -8.7      0.839      1.964
REMARK  Name = 
REMARK  7 active torsions:
REMARK  status: ('A' for Active; 'I' for Inactive)
REMARK    1  A    between atoms: C_1  and  C_2
REMARK    2  A    between atoms: C_5  and  C_6
REMARK    3  A    between atoms: C_7  and  C_8
REMARK    4  A    between atoms: C_8  and  N_9
REMARK    5  A    between atoms: C_11  and  N_12
REMARK    6  A    between atoms: C_16  and  C_17
REMARK    7  A    between atoms: C_17  and  C_18
REMARK                            x       y       z     vdW  Elec       q    Type
REMARK                         _______ _______ _______ _____ _____    ______ ____
ROOT
ATOM      1  N   UNL     1       2.087   7.431  18.890  0.00  0.00    +0.000 N 
ATOM      2  C   UNL     1       1.979   8.669  18.313  0.00  0.00    +0.000 C 
ATOM      3  O   UNL     1       2.272   9.034  17.186  0.00  0.00    +0.000 OA
ATOM      4  N   UNL     1       1.438   9.531  19.248  0.00  0.00    +0.000 N 
ATOM      5  C   UNL     1       1.292   8.916  20.541  0.00  0.00    +0.000 C 
ATOM      6  C   UNL     1       1.697   7.479  20.209  0.00  0.00    +0.000 C 
ATOM      7  O   UNL     1       1.697   6.574  21.036  0.00  0.00    +0.000 OA
ATOM      8  H   UNL     1       1.349  10.523  19.057  0.00  0.00    +0.000 HD
ENDROOT
BRANCH   1  11
ATOM      9  N   UNL     1       3.901   4.774  17.379  0.00  0.00    +0.000 N 
ATOM     10  C   UNL     1       3.843   6.082  17.778  0.00  0.00    +0.000 A 
ATOM     11  C   UNL     1       2.571   6.288  18.270  0.00  0.00    +0.000 A 
ATOM     12  C   UNL     1       1.912   5.059  18.022  0.00  0.00    +0.000 A 
ATOM     13  N   UNL     1       2.715   4.141  17.474  0.00  0.00    +0.000 NA
BRANCH   9  14
ATOM     14  C   UNL     1       5.113   4.006  17.111  0.00  0.00    +0.000 C 
BRANCH  14  21
ATOM     15  C   UNL     1       5.642   3.904  13.905  0.00  0.00    +0.000 C 
ATOM     16  C   UNL     1       6.342   4.720  14.926  0.00  0.00    +0.000 A 
ATOM     17  N   UNL     1       7.354   5.519  14.569  0.00  0.00    +0.000 NA
ATOM     18  O   UNL     1       7.798   6.111  15.732  0.00  0.00    +0.000 OA
ATOM     19  C   UNL     1       7.060   5.663  16.781  0.00  0.00    +0.000 A 
ATOM     20  C   UNL     1       7.436   6.189  18.109  0.00  0.00    +0.000 C 
ATOM     21  C   UNL     1       6.107   4.775  16.329  0.00  0.00    +0.000 A 
ENDBRANCH  14  21
ENDBRANCH   9  14
ENDBRANCH   1  11
BRANCH   5  22
ATOM     22  C   UNL     1      -0.123   8.929  21.111  0.00  0.00    +0.000 C 
BRANCH  22  23
ATOM     23  C   UNL     1      -0.634  10.309  21.440  0.00  0.00    +0.000 A 
ATOM     24  C   UNL     1      -1.008  11.181  20.409  0.00  0.00    +0.000 A 
ATOM     25  C   UNL     1      -1.510  12.449  20.701  0.00  0.00    +0.000 A 
ATOM     26  C   UNL     1      -1.641  12.857  22.026  0.00  0.00    +0.000 A 
ATOM     27  C   UNL     1      -1.261  12.002  23.059  0.00  0.00    +0.000 A 
ATOM     28  C   UNL     1      -0.757  10.734  22.768  0.00  0.00    +0.000 A 
ENDBRANCH  22  23
ENDBRANCH   5  22
TORSDOF 5
ENDMDL
MODEL 3
REMARK VINA RESULT:      -8.2      1.186      1.427
REMARK  Name = 
REMARK  7 active torsions:
REMARK  status: ('A' for Active; 'I' for Inactive)
REMARK    1  A    between atoms: C_1  and  C_2
REMARK    2  A    between atoms: C_5  and  C_6
REMARK    3  A    between atoms: C_7  and  C_8
REMARK    4  A    between atoms: C_8  and  N_9
REMARK    5  A    between atoms: C_11  and  N_12
REMARK    6  A    between atoms: C_16  and  C_17
REMARK    7  A    between atoms: C_17  and  C_18
REMARK                            x       y       z     vdW  Elec       q    Type
REMARK                         _______ _______ _______ _____ _____    ______ ____
ROOT
ATOM      1  N   UNL     1       2.060   7.724  19.154  0.00  0.00    +0.000 N 
ATOM      2  C   UNL     1       1.949   8.787  18.296  0.00  0.00    +0.000 C 
ATOM      3  O   UNL     1       2.322   8.898  17.140  0.00  0.00    +0.000 OA
ATOM      4  N   UNL     1       1.292   9.806  18.959  0.00  0.00    +0.000 N 
ATOM      5  C   UNL     1       1.062   9.498  20.346  0.00  0.00    +0.000 C 
ATOM      6  C   UNL     1       1.557   8.051  20.394  0.00  0.00    +0.000 C 
ATOM      7  O   UNL     1       1.526   7.364  21.407  0.00  0.00    +0.000 OA
ATOM      8  H   UNL     1       1.176  10.719  18.534  0.00  0.00    +0.000 HD
ENDROOT
BRANCH   1  11
ATOM      9  N   UNL     1       4.087   4.938  18.283  0.00  0.00    +0.000 N 
ATOM     10  C   UNL     1       3.863   6.287  18.246  0.00  0.00    +0.000 A 
ATOM     11  C   UNL     1       2.646   6.501  18.859  0.00  0.00    +0.000 A 
ATOM     12  C   UNL     1       2.174   5.195  19.135  0.00  0.00    +0.000 A 
ATOM     13  N   UNL     1       3.042   4.243  18.778  0.00  0.00    +0.000 NA
BRANCH   9  14
ATOM     14  C   UNL     1       5.366   4.267  18.069  0.00  0.00    +0.000 C 
BRANCH  14  21
ATOM     15  C   UNL     1       7.721   6.404  18.745  0.00  0.00    +0.000 C 
ATOM     16  C   UNL     1       7.257   5.939  17.416  0.00  0.00    +0.000 A 
ATOM     17  N   UNL     1       7.803   6.439  16.302  0.00  0.00    +0.000 NA
ATOM     18  O   UNL     1       7.146   5.831  15.253  0.00  0.00    +0.000 OA
ATOM     19  C   UNL     1       6.206   4.977  15.738  0.00  0.00    +0.000 A 
ATOM     20  C   UNL     1       5.396   4.267  14.729  0.00  0.00    +0.000 C 
ATOM     21  C   UNL     1       6.233   4.997  17.116  0.00  0.00    +0.000 A 
ENDBRANCH  14  21
ENDBRANCH   9  14
ENDBRANCH   1  11
BRANCH   5  22
ATOM     22  C   UNL     1      -0.396   9.553  20.792  0.00  0.00    +0.000 C 
BRANCH  22  23
ATOM     23  C   UNL     1      -0.843  10.921  21.243  0.00  0.00    +0.000 A 
ATOM     24  C   UNL     1      -0.892  11.225  22.610  0.00  0.00    +0.000 A 
ATOM     25  C   UNL     1      -1.276  12.495  23.040  0.00  0.00    +0.000 A 
ATOM     26  C   UNL     1      -1.615  13.472  22.106  0.00  0.00    +0.000 A 
ATOM     27  C   UNL     1      -1.581  13.177  20.744  0.00  0.00    +0.000 A 
ATOM     28  C   UNL     1      -1.200  11.906  20.314  0.00  0.00    +0.000 A 
ENDBRANCH  22  23
ENDBRANCH   5  22
TORSDOF 5
ENDMDL
MODEL 4
REMARK VINA RESULT:      -8.1      0.879      1.974
REMARK  Name = 
REMARK  7 active torsions:
REMARK  status: ('A' for Active; 'I' for Inactive)
REMARK    1  A    between atoms: C_1  and  C_2
REMARK    2  A    between atoms: C_5  and  C_6
REMARK    3  A    between atoms: C_7  and  C_8
REMARK    4  A    between atoms: C_8  and  N_9
REMARK    5  A    between atoms: C_11  and  N_12
REMARK    6  A    between atoms: C_16  and  C_17
REMARK    7  A    between atoms: C_17  and  C_18
REMARK                            x       y       z     vdW  Elec       q    Type
REMARK                         _______ _______ _______ _____ _____    ______ ____
ROOT
ATOM      1  N   UNL     1       2.691   6.159  19.090  0.00  0.00    +0.000 N 
ATOM      2  C   UNL     1       2.723   7.391  18.490  0.00  0.00    +0.000 C 
ATOM      3  O   UNL     1       3.206   7.727  17.422  0.00  0.00    +0.000 OA
ATOM      4  N   UNL     1       2.070   8.286  19.317  0.00  0.00    +0.000 N 
ATOM      5  C   UNL     1       1.696   7.698  20.576  0.00  0.00    +0.000 C 
ATOM      6  C   UNL     1       2.097   6.242  20.329  0.00  0.00    +0.000 C 
ATOM      7  O   UNL     1       1.931   5.351  21.154  0.00  0.00    +0.000 OA
ATOM      8  H   UNL     1       2.050   9.277  19.103  0.00  0.00    +0.000 HD
ENDROOT
BRANCH   1  11
ATOM      9  N   UNL     1       4.266   3.539  17.277  0.00  0.00    +0.000 N 
ATOM     10  C   UNL     1       3.730   4.798  17.299  0.00  0.00    +0.000 A 
ATOM     11  C   UNL     1       3.227   4.990  18.568  0.00  0.00    +0.000 A 
ATOM     12  C   UNL     1       3.422   3.738  19.200  0.00  0.00    +0.000 A 
ATOM     13  N   UNL     1       4.044   2.852  18.416  0.00  0.00    +0.000 NA
BRANCH   9  14
ATOM     14  C   UNL     1       5.197   3.013  16.283  0.00  0.00    +0.000 C 
BRANCH  14  21
ATOM     15  C   UNL     1       5.782   3.848  13.196  0.00  0.00    +0.000 C 
ATOM     16  C   UNL     1       6.391   4.403  14.429  0.00  0.00    +0.000 A 
ATOM     17  N   UNL     1       7.333   5.349  14.345  0.00  0.00    +0.000 NA
ATOM     18  O   UNL     1       7.705   5.629  15.642  0.00  0.00    +0.000 OA
ATOM     19  C   UNL     1       6.994   4.849  16.498  0.00  0.00    +0.000 A 
ATOM     20  C   UNL     1       7.302   5.015  17.933  0.00  0.00    +0.000 C 
ATOM     21  C   UNL     1       6.130   4.047  15.782  0.00  0.00    +0.000 A 
ENDBRANCH  14  21
ENDBRANCH   9  14
ENDBRANCH   1  11
BRANCH   5  22
ATOM     22  C   UNL     1       0.209   7.768  20.910  0.00  0.00    +0.000 C 
BRANCH  22  23
ATOM     23  C   UNL     1      -0.240   9.120  21.405  0.00  0.00    +0.000 A 
ATOM     24  C   UNL     1      -0.438  10.168  20.497  0.00  0.00    +0.000 A 
ATOM     25  C   UNL     1      -0.881  11.414  20.939  0.00  0.00    +0.000 A 
ATOM     26  C   UNL     1      -1.128  11.624  22.294  0.00  0.00    +0.000 A 
ATOM     27  C   UNL     1      -0.923  10.592  23.208  0.00  0.00    +0.000 A 
ATOM     28  C   UNL     1      -0.477   9.346  22.767  0.00  0.00    +0.000 A 
ENDBRANCH  22  23
ENDBRANCH   5  22
TORSDOF 5
ENDMDL
MODEL 5
REMARK VINA RESULT:      -8.1      1.264      2.151
REMARK  Name = 
REMARK  7 active torsions:
REMARK  status: ('A' for Active; 'I' for Inactive)
REMARK    1  A    between atoms: C_1  and  C_2
REMARK    2  A    between atoms: C_5  and  C_6
REMARK    3  A    between atoms: C_7  and  C_8
REMARK    4  A    between atoms: C_8  and  N_9
REMARK    5  A    between atoms: C_11  and  N_12
REMARK    6  A    between atoms: C_16  and  C_17
REMARK    7  A    between atoms: C_17  and  C_18
REMARK                            x       y       z     vdW  Elec       q    Type
REMARK                         _______ _______ _______ _____ _____    ______ ____
ROOT
ATOM      1  N   UNL     1       2.149   7.653  19.137  0.00  0.00    +0.000 N 
ATOM      2  C   UNL     1       2.160   8.645  18.191  0.00  0.00    +0.000 C 
ATOM      3  O   UNL     1       2.657   8.656  17.078  0.00  0.00    +0.000 OA
ATOM      4  N   UNL     1       1.465   9.727  18.698  0.00  0.00    +0.000 N 
ATOM      5  C   UNL     1       1.079   9.536  20.071  0.00  0.00    +0.000 C 
ATOM      6  C   UNL     1       1.526   8.088  20.285  0.00  0.00    +0.000 C 
ATOM      7  O   UNL     1       1.367   7.485  21.340  0.00  0.00    +0.000 OA
ATOM      8  H   UNL     1       1.421  10.604  18.192  0.00  0.00    +0.000 HD
ENDROOT
BRANCH   1  11
ATOM      9  N   UNL     1       3.781   4.637  18.202  0.00  0.00    +0.000 N 
ATOM     10  C   UNL     1       3.165   5.803  17.838  0.00  0.00    +0.000 A 
ATOM     11  C   UNL     1       2.729   6.399  19.003  0.00  0.00    +0.000 A 
ATOM     12  C   UNL     1       3.045   5.450  20.005  0.00  0.00    +0.000 A 
ATOM     13  N   UNL     1       3.676   4.375  19.521  0.00  0.00    +0.000 NA
BRANCH   9  14
ATOM     14  C   UNL     1       4.683   3.841  17.375  0.00  0.00    +0.000 C 
BRANCH  14  21
ATOM     15  C   UNL     1       5.615   4.221  14.284  0.00  0.00    +0.000 C 
ATOM     16  C   UNL     1       6.234   4.788  15.506  0.00  0.00    +0.000 A 
ATOM     17  N   UNL     1       7.338   5.536  15.414  0.00  0.00    +0.000 NA
ATOM     18  O   UNL     1       7.669   5.883  16.707  0.00  0.00    +0.000 OA
ATOM     19  C   UNL     1       6.771   5.339  17.569  0.00  0.00    +0.000 A 
ATOM     20  C   UNL     1       7.008   5.601  19.002  0.00  0.00    +0.000 C 
ATOM     21  C   UNL     1       5.823   4.632  16.860  0.00  0.00    +0.000 A 
ENDBRANCH  14  21
ENDBRANCH   9  14
ENDBRANCH   1  11
BRANCH   5  22
ATOM     22  C   UNL     1      -0.416   9.655  20.350  0.00  0.00    +0.000 C 
BRANCH  22  23
ATOM     23  C   UNL     1      -0.819  10.977  20.952  0.00  0.00    +0.000 A 
ATOM     24  C   UNL     1      -0.811  11.145  22.343  0.00  0.00    +0.000 A 
ATOM     25  C   UNL     1      -1.154  12.372  22.911  0.00  0.00    +0.000 A 
ATOM     26  C   UNL     1      -1.509  13.442  22.092  0.00  0.00    +0.000 A 
ATOM     27  C   UNL     1      -1.532  13.283  20.708  0.00  0.00    +0.000 A 
ATOM     28  C   UNL     1      -1.192  12.056  20.139  0.00  0.00    +0.000 A 
ENDBRANCH  22  23
ENDBRANCH   5  22
TORSDOF 5
ENDMDL
MODEL 6
REMARK VINA RESULT:      -8.1      1.496      2.484
REMARK  Name = 
REMARK  7 active torsions:
REMARK  status: ('A' for Active; 'I' for Inactive)
REMARK    1  A    between atoms: C_1  and  C_2
REMARK    2  A    between atoms: C_5  and  C_6
REMARK    3  A    between atoms: C_7  and  C_8
REMARK    4  A    between atoms: C_8  and  N_9
REMARK    5  A    between atoms: C_11  and  N_12
REMARK    6  A    between atoms: C_16  and  C_17
REMARK    7  A    between atoms: C_17  and  C_18
REMARK                            x       y       z     vdW  Elec       q    Type
REMARK                         _______ _______ _______ _____ _____    ______ ____
ROOT
ATOM      1  N   UNL     1       2.108   7.706  18.884  0.00  0.00    +0.000 N 
ATOM      2  C   UNL     1       2.110   8.864  18.151  0.00  0.00    +0.000 C 
ATOM      3  O   UNL     1       2.523   9.072  17.022  0.00  0.00    +0.000 OA
ATOM      4  N   UNL     1       1.524   9.856  18.915  0.00  0.00    +0.000 N 
ATOM      5  C   UNL     1       1.231   9.415  20.254  0.00  0.00    +0.000 C 
ATOM      6  C   UNL     1       1.600   7.934  20.144  0.00  0.00    +0.000 C 
ATOM      7  O   UNL     1       1.483   7.143  21.071  0.00  0.00    +0.000 OA
ATOM      8  H   UNL     1       1.498  10.817  18.595  0.00  0.00    +0.000 HD
ENDROOT
BRANCH   1  11
ATOM      9  N   UNL     1       3.917   4.866  17.749  0.00  0.00    +0.000 N 
ATOM     10  C   UNL     1       3.817   6.225  17.871  0.00  0.00    +0.000 A 
ATOM     11  C   UNL     1       2.596   6.478  18.461  0.00  0.00    +0.000 A 
ATOM     12  C   UNL     1       1.997   5.199  18.555  0.00  0.00    +0.000 A 
ATOM     13  N   UNL     1       2.793   4.218  18.116  0.00  0.00    +0.000 NA
BRANCH   9  14
ATOM     14  C   UNL     1       5.141   4.109  17.500  0.00  0.00    +0.000 C 
BRANCH  14  21
ATOM     15  C   UNL     1       5.546   3.997  14.277  0.00  0.00    +0.000 C 
ATOM     16  C   UNL     1       6.295   4.804  15.269  0.00  0.00    +0.000 A 
ATOM     17  N   UNL     1       7.303   5.588  14.872  0.00  0.00    +0.000 NA
ATOM     18  O   UNL     1       7.800   6.175  16.017  0.00  0.00    +0.000 OA
ATOM     19  C   UNL     1       7.096   5.739  17.094  0.00  0.00    +0.000 A 
ATOM     20  C   UNL     1       7.530   6.261  18.405  0.00  0.00    +0.000 C 
ATOM     21  C   UNL     1       6.115   4.863  16.679  0.00  0.00    +0.000 A 
ENDBRANCH  14  21
ENDBRANCH   9  14
ENDBRANCH   1  11
BRANCH   5  22
ATOM     22  C   UNL     1      -0.229   9.546  20.676  0.00  0.00    +0.000 C 
BRANCH  22  23
ATOM     23  C   UNL     1      -1.079  10.315  19.697  0.00  0.00    +0.000 A 
ATOM     24  C   UNL     1      -1.431  11.644  19.967  0.00  0.00    +0.000 A 
ATOM     25  C   UNL     1      -2.193  12.375  19.055  0.00  0.00    +0.000 A 
ATOM     26  C   UNL     1      -2.611  11.783  17.866  0.00  0.00    +0.000 A 
ATOM     27  C   UNL     1      -2.276  10.458  17.592  0.00  0.00    +0.000 A 
ATOM     28  C   UNL     1      -1.517   9.725  18.504  0.00  0.00    +0.000 A 
ENDBRANCH  22  23
ENDBRANCH   5  22
TORSDOF 5
ENDMDL
MODEL 7
REMARK VINA RESULT:      -8.1      4.822      8.279
REMARK  Name = 
REMARK  7 active torsions:
REMARK  status: ('A' for Active; 'I' for Inactive)
REMARK    1  A    between atoms: C_1  and  C_2
REMARK    2  A    between atoms: C_5  and  C_6
REMARK    3  A    between atoms: C_7  and  C_8
REMARK    4  A    between atoms: C_8  and  N_9
REMARK    5  A    between atoms: C_11  and  N_12
REMARK    6  A    between atoms: C_16  and  C_17
REMARK    7  A    between atoms: C_17  and  C_18
REMARK                            x       y       z     vdW  Elec       q    Type
REMARK                         _______ _______ _______ _____ _____    ______ ____
ROOT
ATOM      1  N   UNL     1       7.432   6.359  17.955  0.00  0.00    +0.000 N 
ATOM      2  C   UNL     1       7.192   5.446  18.949  0.00  0.00    +0.000 C 
ATOM      3  O   UNL     1       7.265   5.574  20.160  0.00  0.00    +0.000 OA
ATOM      4  N   UNL     1       6.813   4.257  18.355  0.00  0.00    +0.000 N 
ATOM      5  C   UNL     1       6.920   4.302  16.921  0.00  0.00    +0.000 C 
ATOM      6  C   UNL     1       7.291   5.773  16.718  0.00  0.00    +0.000 C 
ATOM      7  O   UNL     1       7.463   6.275  15.614  0.00  0.00    +0.000 OA
ATOM      8  H   UNL     1       6.667   3.419  18.907  0.00  0.00    +0.000 HD
ENDROOT
BRANCH   1  11
ATOM      9  N   UNL     1       8.905   9.487  18.780  0.00  0.00    +0.000 N 
ATOM     10  C   UNL     1       8.756   8.151  19.039  0.00  0.00    +0.000 A 
ATOM     11  C   UNL     1       7.821   7.678  18.143  0.00  0.00    +0.000 A 
ATOM     12  C   UNL     1       7.394   8.841  17.457  0.00  0.00    +0.000 A 
ATOM     13  N   UNL     1       8.044   9.942  17.847  0.00  0.00    +0.000 NA
BRANCH   9  14
ATOM     14  C   UNL     1      10.005  10.337  19.227  0.00  0.00    +0.000 C 
BRANCH  14  21
ATOM     15  C   UNL     1      10.240  12.980  17.349  0.00  0.00    +0.000 C 
ATOM     16  C   UNL     1       9.676  12.872  18.717  0.00  0.00    +0.000 A 
ATOM     17  N   UNL     1       9.214  13.961  19.340  0.00  0.00    +0.000 NA
ATOM     18  O   UNL     1       8.789  13.535  20.581  0.00  0.00    +0.000 OA
ATOM     19  C   UNL     1       9.003  12.199  20.702  0.00  0.00    +0.000 A 
ATOM     20  C   UNL     1       8.621  11.596  21.994  0.00  0.00    +0.000 C 
ATOM     21  C   UNL     1       9.563  11.715  19.538  0.00  0.00    +0.000 A 
ENDBRANCH  14  21
ENDBRANCH   9  14
ENDBRANCH   1  11
BRANCH   5  22
ATOM     22  C   UNL     1       5.634   3.991  16.162  0.00  0.00    +0.000 C 
BRANCH  22  23
ATOM     23  C   UNL     1       4.387   4.122  16.999  0.00  0.00    +0.000 A 
ATOM     24  C   UNL     1       3.857   5.390  17.272  0.00  0.00    +0.000 A 
ATOM     25  C   UNL     1       2.688   5.524  18.021  0.00  0.00    +0.000 A 
ATOM     26  C   UNL     1       2.039   4.390  18.504  0.00  0.00    +0.000 A 
ATOM     27  C   UNL     1       2.563   3.124  18.248  0.00  0.00    +0.000 A 
ATOM     28  C   UNL     1       3.734   2.990  17.503  0.00  0.00    +0.000 A 
ENDBRANCH  22  23
ENDBRANCH   5  22
TORSDOF 5
ENDMDL
MODEL 8
REMARK VINA RESULT:      -8.1      3.779      9.044
REMARK  Name = 
REMARK  7 active torsions:
REMARK  status: ('A' for Active; 'I' for Inactive)
REMARK    1  A    between atoms: C_1  and  C_2
REMARK    2  A    between atoms: C_5  and  C_6
REMARK    3  A    between atoms: C_7  and  C_8
REMARK    4  A    between atoms: C_8  and  N_9
REMARK    5  A    between atoms: C_11  and  N_12
REMARK    6  A    between atoms: C_16  and  C_17
REMARK    7  A    between atoms: C_17  and  C_18
REMARK                            x       y       z     vdW  Elec       q    Type
REMARK                         _______ _______ _______ _____ _____    ______ ____
ROOT
ATOM      1  N   UNL     1       1.178   9.046  19.513  0.00  0.00    +0.000 N 
ATOM      2  C   UNL     1       1.341   8.441  20.731  0.00  0.00    +0.000 C 
ATOM      3  O   UNL     1       0.891   8.750  21.822  0.00  0.00    +0.000 OA
ATOM      4  N   UNL     1       2.143   7.330  20.554  0.00  0.00    +0.000 N 
ATOM      5  C   UNL     1       2.659   7.235  19.214  0.00  0.00    +0.000 C 
ATOM      6  C   UNL     1       1.919   8.399  18.550  0.00  0.00    +0.000 C 
ATOM      7  O   UNL     1       2.042   8.683  17.365  0.00  0.00    +0.000 OA
ATOM      8  H   UNL     1       2.460   6.780  21.345  0.00  0.00    +0.000 HD
ENDROOT
BRANCH   1  11
ATOM      9  N   UNL     1      -1.227  11.639  19.160  0.00  0.00    +0.000 N 
ATOM     10  C   UNL     1      -0.944  10.315  19.358  0.00  0.00    +0.000 A 
ATOM     11  C   UNL     1       0.425  10.186  19.268  0.00  0.00    +0.000 A 
ATOM     12  C   UNL     1       0.862  11.484  18.908  0.00  0.00    +0.000 A 
ATOM     13  N   UNL     1      -0.140  12.367  18.833  0.00  0.00    +0.000 NA
BRANCH   9  14
ATOM     14  C   UNL     1      -2.479  12.315  19.489  0.00  0.00    +0.000 C 
BRANCH  14  21
ATOM     15  C   UNL     1      -5.632  12.160  20.263  0.00  0.00    +0.000 C 
ATOM     16  C   UNL     1      -4.981  11.790  18.983  0.00  0.00    +0.000 A 
ATOM     17  N   UNL     1      -5.710  11.291  17.979  0.00  0.00    +0.000 NA
ATOM     18  O   UNL     1      -4.821  11.031  16.958  0.00  0.00    +0.000 OA
ATOM     19  C   UNL     1      -3.565  11.367  17.352  0.00  0.00    +0.000 A 
ATOM     20  C   UNL     1      -2.490  11.120  16.370  0.00  0.00    +0.000 C 
ATOM     21  C   UNL     1      -3.603  11.866  18.637  0.00  0.00    +0.000 A 
ENDBRANCH  14  21
ENDBRANCH   9  14
ENDBRANCH   1  11
BRANCH   5  22
ATOM     22  C   UNL     1       2.332   5.938  18.480  0.00  0.00    +0.000 C 
BRANCH  22  23
ATOM     23  C   UNL     1       2.303   4.724  19.375  0.00  0.00    +0.000 A 
ATOM     24  C   UNL     1       3.480   4.003  19.615  0.00  0.00    +0.000 A 
ATOM     25  C   UNL     1       3.472   2.896  20.463  0.00  0.00    +0.000 A 
ATOM     26  C   UNL     1       2.287   2.500  21.078  0.00  0.00    +0.000 A 
ATOM     27  C   UNL     1       1.108   3.203  20.838  0.00  0.00    +0.000 A 
ATOM     28  C   UNL     1       1.114   4.308  19.987  0.00  0.00    +0.000 A 
ENDBRANCH  22  23
ENDBRANCH   5  22
TORSDOF 5
ENDMDL
MODEL 9
REMARK VINA RESULT:      -8.1      3.205      9.545
REMARK  Name = 
REMARK  7 active torsions:
REMARK  status: ('A' for Active; 'I' for Inactive)
REMARK    1  A    between atoms: C_1  and  C_2
REMARK    2  A    between atoms: C_5  and  C_6
REMARK    3  A    between atoms: C_7  and  C_8
REMARK    4  A    between atoms: C_8  and  N_9
REMARK    5  A    between atoms: C_11  and  N_12
REMARK    6  A    between atoms: C_16  and  C_17
REMARK    7  A    between atoms: C_17  and  C_18
REMARK                            x       y       z     vdW  Elec       q    Type
REMARK                         _______ _______ _______ _____ _____    ______ ____
ROOT
ATOM      1  N   UNL     1       1.402   8.951  19.475  0.00  0.00    +0.000 N 
ATOM      2  C   UNL     1       1.553   8.110  20.546  0.00  0.00    +0.000 C 
ATOM      3  O   UNL     1       1.160   8.230  21.694  0.00  0.00    +0.000 OA
ATOM      4  N   UNL     1       2.263   7.002  20.123  0.00  0.00    +0.000 N 
ATOM      5  C   UNL     1       2.732   7.136  18.769  0.00  0.00    +0.000 C 
ATOM      6  C   UNL     1       2.064   8.455  18.374  0.00  0.00    +0.000 C 
ATOM      7  O   UNL     1       2.173   8.956  17.262  0.00  0.00    +0.000 OA
ATOM      8  H   UNL     1       2.560   6.288  20.779  0.00  0.00    +0.000 HD
ENDROOT
BRANCH   1  11
ATOM      9  N   UNL     1      -0.824  11.715  19.680  0.00  0.00    +0.000 N 
ATOM     10  C   UNL     1      -0.631  10.365  19.564  0.00  0.00    +0.000 A 
ATOM     11  C   UNL     1       0.731  10.166  19.487  0.00  0.00    +0.000 A 
ATOM     12  C   UNL     1       1.261  11.479  19.462  0.00  0.00    +0.000 A 
ATOM     13  N   UNL     1       0.319  12.422  19.570  0.00  0.00    +0.000 NA
BRANCH   9  14
ATOM     14  C   UNL     1      -2.046  12.379  20.123  0.00  0.00    +0.000 C 
BRANCH  14  21
ATOM     15  C   UNL     1      -2.220  15.558  20.781  0.00  0.00    +0.000 C 
ATOM     16  C   UNL     1      -1.950  14.439  21.716  0.00  0.00    +0.000 A 
ATOM     17  N   UNL     1      -1.704  14.689  23.007  0.00  0.00    +0.000 NA
ATOM     18  O   UNL     1      -1.471  13.462  23.592  0.00  0.00    +0.000 OA
ATOM     19  C   UNL     1      -1.571  12.484  22.654  0.00  0.00    +0.000 A 
ATOM     20  C   UNL     1      -1.321  11.107  23.125  0.00  0.00    +0.000 C 
ATOM     21  C   UNL     1      -1.883  13.046  21.434  0.00  0.00    +0.000 A 
ENDBRANCH  14  21
ENDBRANCH   9  14
ENDBRANCH   1  11
BRANCH   5  22
ATOM     22  C   UNL     1       2.286   6.033  17.814  0.00  0.00    +0.000 C 
BRANCH  22  23
ATOM     23  C   UNL     1       2.520   4.640  18.342  0.00  0.00    +0.000 A 
ATOM     24  C   UNL     1       1.431   3.794  18.592  0.00  0.00    +0.000 A 
ATOM     25  C   UNL     1       1.635   2.494  19.054  0.00  0.00    +0.000 A 
ATOM     26  C   UNL     1       2.930   2.028  19.270  0.00  0.00    +0.000 A 
ATOM     27  C   UNL     1       4.020   2.865  19.035  0.00  0.00    +0.000 A 
ATOM     28  C   UNL     1       3.817   4.166  18.577  0.00  0.00    +0.000 A 
ENDBRANCH  22  23
ENDBRANCH   5  22
TORSDOF 5
ENDMDL
