MODEL 1
REMARK VINA RESULT:      -7.1      0.000      0.000
REMARK  Name = 
REMARK  5 active torsions:
REMARK  status: ('A' for Active; 'I' for Inactive)
REMARK    1  A    between atoms: C_1  and  C_2
REMARK    2  A    between atoms: C_2  and  C_3
REMARK    3  A    between atoms: C_3  and  C_4
REMARK    4  A    between atoms: C_4  and  N_5
REMARK    5  A    between atoms: N_12  and  C_13
REMARK                            x       y       z     vdW  Elec       q    Type
REMARK                         _______ _______ _______ _____ _____    ______ ____
ROOT
ATOM      1  N   UNL     1       4.531   5.335  16.894  0.00  0.00    +0.000 N 
ATOM      2  C   UNL     1       3.607   5.985  17.776  0.00  0.00    +0.000 A 
ATOM      3  C   UNL     1       2.816   5.296  18.658  0.00  0.00    +0.000 A 
ATOM      4  C   UNL     1       2.951   3.879  18.580  0.00  0.00    +0.000 A 
ATOM      5  C   UNL     1       3.803   3.196  17.742  0.00  0.00    +0.000 A 
ATOM      6  N   UNL     1       3.682   1.834  17.907  0.00  0.00    +0.000 NA
ATOM      7  C   UNL     1       2.769   1.692  18.840  0.00  0.00    +0.000 A 
ATOM      8  N   UNL     1       2.293   2.903  19.284  0.00  0.00    +0.000 N 
ATOM      9  C   UNL     1       1.284   3.025  20.306  0.00  0.00    +0.000 C 
ATOM     10  C   UNL     1       4.681   3.918  16.832  0.00  0.00    +0.000 A 
ATOM     11  O   UNL     1       5.465   3.343  16.083  0.00  0.00    +0.000 OA
ATOM     12  C   UNL     1       1.902   6.028  19.627  0.00  0.00    +0.000 C 
ATOM     13  C   UNL     1       2.167   7.521  19.772  0.00  0.00    +0.000 C 
ATOM     14  C   UNL     1       2.326   8.139  18.401  0.00  0.00    +0.000 C 
ATOM     15  C   UNL     1       3.530   7.509  17.713  0.00  0.00    +0.000 C 
ENDROOT
BRANCH   1  16
ATOM     16  C   UNL     1       5.408   6.097  15.988  0.00  0.00    +0.000 C 
BRANCH  16  17
ATOM     17  C   UNL     1       6.889   6.026  16.373  0.00  0.00    +0.000 C 
BRANCH  17  19
ATOM     18  C   UNL     1       7.734   6.195  18.724  0.00  0.00    +0.000 C 
ATOM     19  C   UNL     1       7.240   6.978  17.514  0.00  0.00    +0.000 C 
ENDBRANCH  17  19
ENDBRANCH  16  17
ENDBRANCH   1  16
TORSDOF 3
ENDMDL
MODEL 2
REMARK VINA RESULT:      -6.9      1.590      1.698
REMARK  Name = 
REMARK  5 active torsions:
REMARK  status: ('A' for Active; 'I' for Inactive)
REMARK    1  A    between atoms: C_1  and  C_2
REMARK    2  A    between atoms: C_2  and  C_3
REMARK    3  A    between atoms: C_3  and  C_4
REMARK    4  A    between atoms: C_4  and  N_5
REMARK    5  A    between atoms: N_12  and  C_13
REMARK                            x       y       z     vdW  Elec       q    Type
REMARK                         _______ _______ _______ _____ _____    ______ ____
ROOT
ATOM      1  N   UNL     1       5.419   5.856  17.944  0.00  0.00    +0.000 N 
ATOM      2  C   UNL     1       4.159   6.437  18.300  0.00  0.00    +0.000 A 
ATOM      3  C   UNL     1       3.266   5.815  19.132  0.00  0.00    +0.000 A 
ATOM      4  C   UNL     1       3.674   4.519  19.564  0.00  0.00    +0.000 A 
ATOM      5  C   UNL     1       4.859   3.899  19.240  0.00  0.00    +0.000 A 
ATOM      6  N   UNL     1       4.941   2.649  19.810  0.00  0.00    +0.000 NA
ATOM      7  C   UNL     1       3.819   2.513  20.477  0.00  0.00    +0.000 A 
ATOM      8  N   UNL     1       3.013   3.622  20.363  0.00  0.00    +0.000 N 
ATOM      9  C   UNL     1       1.725   3.727  21.000  0.00  0.00    +0.000 C 
ATOM     10  C   UNL     1       5.837   4.568  18.393  0.00  0.00    +0.000 A 
ATOM     11  O   UNL     1       6.910   4.053  18.097  0.00  0.00    +0.000 OA
ATOM     12  C   UNL     1       1.972   6.499  19.544  0.00  0.00    +0.000 C 
ATOM     13  C   UNL     1       1.899   7.991  19.249  0.00  0.00    +0.000 C 
ATOM     14  C   UNL     1       2.376   8.248  17.836  0.00  0.00    +0.000 C 
ATOM     15  C   UNL     1       3.831   7.812  17.720  0.00  0.00    +0.000 C 
ENDROOT
BRANCH   1  16
ATOM     16  C   UNL     1       6.387   6.563  17.086  0.00  0.00    +0.000 C 
BRANCH  16  17
ATOM     17  C   UNL     1       7.577   7.138  17.859  0.00  0.00    +0.000 C 
BRANCH  17  19
ATOM     18  C   UNL     1       8.687   9.248  18.625  0.00  0.00    +0.000 C 
ATOM     19  C   UNL     1       7.813   8.614  17.550  0.00  0.00    +0.000 C 
ENDBRANCH  17  19
ENDBRANCH  16  17
ENDBRANCH   1  16
TORSDOF 3
ENDMDL
MODEL 3
REMARK VINA RESULT:      -6.7      1.556      2.033
REMARK  Name = 
REMARK  5 active torsions:
REMARK  status: ('A' for Active; 'I' for Inactive)
REMARK    1  A    between atoms: C_1  and  C_2
REMARK    2  A    between atoms: C_2  and  C_3
REMARK    3  A    between atoms: C_3  and  C_4
REMARK    4  A    between atoms: C_4  and  N_5
REMARK    5  A    between atoms: N_12  and  C_13
REMARK                            x       y       z     vdW  Elec       q    Type
REMARK                         _______ _______ _______ _____ _____    ______ ____
ROOT
ATOM      1  N   UNL     1       5.095   5.677  17.767  0.00  0.00    +0.000 N 
ATOM      2  C   UNL     1       3.913   6.294  18.294  0.00  0.00    +0.000 A 
ATOM      3  C   UNL     1       3.155   5.720  19.280  0.00  0.00    +0.000 A 
ATOM      4  C   UNL     1       3.611   4.433  19.693  0.00  0.00    +0.000 A 
ATOM      5  C   UNL     1       4.722   3.780  19.212  0.00  0.00    +0.000 A 
ATOM      6  N   UNL     1       4.878   2.550  19.810  0.00  0.00    +0.000 NA
ATOM      7  C   UNL     1       3.873   2.460  20.650  0.00  0.00    +0.000 A 
ATOM      8  N   UNL     1       3.073   3.578  20.620  0.00  0.00    +0.000 N 
ATOM      9  C   UNL     1       1.903   3.730  21.447  0.00  0.00    +0.000 C 
ATOM     10  C   UNL     1       5.562   4.400  18.195  0.00  0.00    +0.000 A 
ATOM     11  O   UNL     1       6.569   3.854  17.755  0.00  0.00    +0.000 OA
ATOM     12  C   UNL     1       1.951   6.441  19.863  0.00  0.00    +0.000 C 
ATOM     13  C   UNL     1       1.851   7.923  19.524  0.00  0.00    +0.000 C 
ATOM     14  C   UNL     1       2.102   8.119  18.046  0.00  0.00    +0.000 C 
ATOM     15  C   UNL     1       3.515   7.652  17.719  0.00  0.00    +0.000 C 
ENDROOT
BRANCH   1  16
ATOM     16  C   UNL     1       5.924   6.335  16.741  0.00  0.00    +0.000 C 
BRANCH  16  17
ATOM     17  C   UNL     1       5.548   5.938  15.311  0.00  0.00    +0.000 C 
BRANCH  17  19
ATOM     18  C   UNL     1       6.000   3.903  13.923  0.00  0.00    +0.000 C 
ATOM     19  C   UNL     1       6.628   5.092  14.640  0.00  0.00    +0.000 C 
ENDBRANCH  17  19
ENDBRANCH  16  17
ENDBRANCH   1  16
TORSDOF 3
ENDMDL
MODEL 4
REMARK VINA RESULT:      -6.7      1.882      4.598
REMARK  Name = 
REMARK  5 active torsions:
REMARK  status: ('A' for Active; 'I' for Inactive)
REMARK    1  A    between atoms: C_1  and  C_2
REMARK    2  A    between atoms: C_2  and  C_3
REMARK    3  A    between atoms: C_3  and  C_4
REMARK    4  A    between atoms: C_4  and  N_5
REMARK    5  A    between atoms: N_12  and  C_13
REMARK                            x       y       z     vdW  Elec       q    Type
REMARK                         _______ _______ _______ _____ _____    ______ ____
ROOT
ATOM      1  N   UNL     1       3.139   4.685  20.094  0.00  0.00    +0.000 N 
ATOM      2  C   UNL     1       2.839   5.975  19.547  0.00  0.00    +0.000 A 
ATOM      3  C   UNL     1       3.386   6.429  18.376  0.00  0.00    +0.000 A 
ATOM      4  C   UNL     1       4.321   5.531  17.782  0.00  0.00    +0.000 A 
ATOM      5  C   UNL     1       4.668   4.291  18.268  0.00  0.00    +0.000 A 
ATOM      6  N   UNL     1       5.606   3.683  17.465  0.00  0.00    +0.000 NA
ATOM      7  C   UNL     1       5.824   4.544  16.498  0.00  0.00    +0.000 A 
ATOM      8  N   UNL     1       5.068   5.684  16.642  0.00  0.00    +0.000 N 
ATOM      9  C   UNL     1       5.120   6.785  15.714  0.00  0.00    +0.000 C 
ATOM     10  C   UNL     1       4.059   3.779  19.488  0.00  0.00    +0.000 A 
ATOM     11  O   UNL     1       4.331   2.671  19.941  0.00  0.00    +0.000 OA
ATOM     12  C   UNL     1       2.985   7.774  17.794  0.00  0.00    +0.000 C 
ATOM     13  C   UNL     1       1.737   8.402  18.401  0.00  0.00    +0.000 C 
ATOM     14  C   UNL     1       1.816   8.319  19.909  0.00  0.00    +0.000 C 
ATOM     15  C   UNL     1       1.857   6.853  20.321  0.00  0.00    +0.000 C 
ENDROOT
BRANCH   1  16
ATOM     16  C   UNL     1       2.502   4.196  21.330  0.00  0.00    +0.000 C 
BRANCH  16  17
ATOM     17  C   UNL     1       1.472   3.090  21.085  0.00  0.00    +0.000 C 
BRANCH  17  19
ATOM     18  C   UNL     1       0.813   2.332  18.791  0.00  0.00    +0.000 C 
ATOM     19  C   UNL     1       0.585   3.377  19.876  0.00  0.00    +0.000 C 
ENDBRANCH  17  19
ENDBRANCH  16  17
ENDBRANCH   1  16
TORSDOF 3
ENDMDL
MODEL 5
REMARK VINA RESULT:      -6.5      2.139      4.418
REMARK  Name = 
REMARK  5 active torsions:
REMARK  status: ('A' for Active; 'I' for Inactive)
REMARK    1  A    between atoms: C_1  and  C_2
REMARK    2  A    between atoms: C_2  and  C_3
REMARK    3  A    between atoms: C_3  and  C_4
REMARK    4  A    between atoms: C_4  and  N_5
REMARK    5  A    between atoms: N_12  and  C_13
REMARK                            x       y       z     vdW  Elec       q    Type
REMARK                         _______ _______ _______ _____ _____    ______ ____
ROOT
ATOM      1  N   UNL     1       3.020   6.645  18.679  0.00  0.00    +0.000 N 
ATOM      2  C   UNL     1       3.808   5.884  17.754  0.00  0.00    +0.000 A 
ATOM      3  C   UNL     1       3.881   4.516  17.795  0.00  0.00    +0.000 A 
ATOM      4  C   UNL     1       3.154   3.923  18.868  0.00  0.00    +0.000 A 
ATOM      5  C   UNL     1       2.398   4.599  19.799  0.00  0.00    +0.000 A 
ATOM      6  N   UNL     1       1.834   3.734  20.709  0.00  0.00    +0.000 NA
ATOM      7  C   UNL     1       2.240   2.544  20.332  0.00  0.00    +0.000 A 
ATOM      8  N   UNL     1       3.043   2.602  19.217  0.00  0.00    +0.000 N 
ATOM      9  C   UNL     1       3.620   1.434  18.601  0.00  0.00    +0.000 C 
ATOM     10  C   UNL     1       2.276   6.050  19.740  0.00  0.00    +0.000 A 
ATOM     11  O   UNL     1       1.598   6.684  20.543  0.00  0.00    +0.000 OA
ATOM     12  C   UNL     1       4.670   3.743  16.750  0.00  0.00    +0.000 C 
ATOM     13  C   UNL     1       5.076   4.540  15.517  0.00  0.00    +0.000 C 
ATOM     14  C   UNL     1       5.652   5.871  15.946  0.00  0.00    +0.000 C 
ATOM     15  C   UNL     1       4.578   6.658  16.687  0.00  0.00    +0.000 C 
ENDROOT
BRANCH   1  16
ATOM     16  C   UNL     1       2.916   8.112  18.588  0.00  0.00    +0.000 C 
BRANCH  16  17
ATOM     17  C   UNL     1       1.706   8.586  17.779  0.00  0.00    +0.000 C 
BRANCH  17  19
ATOM     18  C   UNL     1      -0.248  10.080  18.250  0.00  0.00    +0.000 C 
ATOM     19  C   UNL     1       1.271  10.000  18.157  0.00  0.00    +0.000 C 
ENDBRANCH  17  19
ENDBRANCH  16  17
ENDBRANCH   1  16
TORSDOF 3
ENDMDL
MODEL 6
REMARK VINA RESULT:      -6.5      1.908      3.795
REMARK  Name = 
REMARK  5 active torsions:
REMARK  status: ('A' for Active; 'I' for Inactive)
REMARK    1  A    between atoms: C_1  and  C_2
REMARK    2  A    between atoms: C_2  and  C_3
REMARK    3  A    between atoms: C_3  and  C_4
REMARK    4  A    between atoms: C_4  and  N_5
REMARK    5  A    between atoms: N_12  and  C_13
REMARK                            x       y       z     vdW  Elec       q    Type
REMARK                         _______ _______ _______ _____ _____    ______ ____
ROOT
ATOM      1  N   UNL     1       4.505   4.927  17.551  0.00  0.00    +0.000 N 
ATOM      2  C   UNL     1       3.952   4.385  18.757  0.00  0.00    +0.000 A 
ATOM      3  C   UNL     1       3.084   5.084  19.553  0.00  0.00    +0.000 A 
ATOM      4  C   UNL     1       2.826   6.414  19.109  0.00  0.00    +0.000 A 
ATOM      5  C   UNL     1       3.341   6.999  17.974  0.00  0.00    +0.000 A 
ATOM      6  N   UNL     1       2.905   8.297  17.838  0.00  0.00    +0.000 NA
ATOM      7  C   UNL     1       2.128   8.498  18.877  0.00  0.00    +0.000 A 
ATOM      8  N   UNL     1       2.045   7.385  19.681  0.00  0.00    +0.000 N 
ATOM      9  C   UNL     1       1.256   7.343  20.887  0.00  0.00    +0.000 C 
ATOM     10  C   UNL     1       4.230   6.250  17.095  0.00  0.00    +0.000 A 
ATOM     11  O   UNL     1       4.694   6.733  16.067  0.00  0.00    +0.000 OA
ATOM     12  C   UNL     1       2.464   4.446  20.786  0.00  0.00    +0.000 C 
ATOM     13  C   UNL     1       2.607   2.933  20.879  0.00  0.00    +0.000 C 
ATOM     14  C   UNL     1       4.035   2.543  20.566  0.00  0.00    +0.000 C 
ATOM     15  C   UNL     1       4.359   2.963  19.138  0.00  0.00    +0.000 C 
ENDROOT
BRANCH   1  16
ATOM     16  C   UNL     1       5.397   4.139  16.682  0.00  0.00    +0.000 C 
BRANCH  16  17
ATOM     17  C   UNL     1       6.828   4.683  16.628  0.00  0.00    +0.000 C 
BRANCH  17  19
ATOM     18  C   UNL     1       7.659   6.092  18.525  0.00  0.00    +0.000 C 
ATOM     19  C   UNL     1       7.506   4.671  17.996  0.00  0.00    +0.000 C 
ENDBRANCH  17  19
ENDBRANCH  16  17
ENDBRANCH   1  16
TORSDOF 3
ENDMDL
MODEL 7
REMARK VINA RESULT:      -6.5      2.270      5.148
REMARK  Name = 
REMARK  5 active torsions:
REMARK  status: ('A' for Active; 'I' for Inactive)
REMARK    1  A    between atoms: C_1  and  C_2
REMARK    2  A    between atoms: C_2  and  C_3
REMARK    3  A    between atoms: C_3  and  C_4
REMARK    4  A    between atoms: C_4  and  N_5
REMARK    5  A    between atoms: N_12  and  C_13
REMARK                            x       y       z     vdW  Elec       q    Type
REMARK                         _______ _______ _______ _____ _____    ______ ____
ROOT
ATOM      1  N   UNL     1       3.635   4.214  19.347  0.00  0.00    +0.000 N 
ATOM      2  C   UNL     1       4.074   4.908  18.173  0.00  0.00    +0.000 A 
ATOM      3  C   UNL     1       3.720   6.204  17.903  0.00  0.00    +0.000 A 
ATOM      4  C   UNL     1       2.834   6.780  18.861  0.00  0.00    +0.000 A 
ATOM      5  C   UNL     1       2.361   6.159  19.995  0.00  0.00    +0.000 A 
ATOM      6  N   UNL     1       1.516   6.985  20.702  0.00  0.00    +0.000 NA
ATOM      7  C   UNL     1       1.480   8.097  20.006  0.00  0.00    +0.000 A 
ATOM      8  N   UNL     1       2.264   8.027  18.879  0.00  0.00    +0.000 N 
ATOM      9  C   UNL     1       2.398   9.115  17.944  0.00  0.00    +0.000 C 
ATOM     10  C   UNL     1       2.766   4.797  20.316  0.00  0.00    +0.000 A 
ATOM     11  O   UNL     1       2.378   4.219  21.327  0.00  0.00    +0.000 OA
ATOM     12  C   UNL     1       4.266   6.928  16.683  0.00  0.00    +0.000 C 
ATOM     13  C   UNL     1       5.445   6.251  15.996  0.00  0.00    +0.000 C 
ATOM     14  C   UNL     1       5.150   4.777  15.828  0.00  0.00    +0.000 C 
ATOM     15  C   UNL     1       4.979   4.148  17.205  0.00  0.00    +0.000 C 
ENDROOT
BRANCH   1  16
ATOM     16  C   UNL     1       4.067   2.836  19.643  0.00  0.00    +0.000 C 
BRANCH  16  17
ATOM     17  C   UNL     1       3.147   1.769  19.044  0.00  0.00    +0.000 C 
BRANCH  17  19
ATOM     18  C   UNL     1       0.705   2.259  18.782  0.00  0.00    +0.000 C 
ATOM     19  C   UNL     1       2.078   2.368  18.132  0.00  0.00    +0.000 C 
ENDBRANCH  17  19
ENDBRANCH  16  17
ENDBRANCH   1  16
TORSDOF 3
ENDMDL
MODEL 8
REMARK VINA RESULT:      -6.4      2.064      4.071
REMARK  Name = 
REMARK  5 active torsions:
REMARK  status: ('A' for Active; 'I' for Inactive)
REMARK    1  A    between atoms: C_1  and  C_2
REMARK    2  A    between atoms: C_2  and  C_3
REMARK    3  A    between atoms: C_3  and  C_4
REMARK    4  A    between atoms: C_4  and  N_5
REMARK    5  A    between atoms: N_12  and  C_13
REMARK                            x       y       z     vdW  Elec       q    Type
REMARK                         _______ _______ _______ _____ _____    ______ ____
ROOT
ATOM      1  N   UNL     1       4.133   4.992  17.689  0.00  0.00    +0.000 N 
ATOM      2  C   UNL     1       3.547   4.507  18.904  0.00  0.00    +0.000 A 
ATOM      3  C   UNL     1       2.745   5.282  19.700  0.00  0.00    +0.000 A 
ATOM      4  C   UNL     1       2.591   6.624  19.245  0.00  0.00    +0.000 A 
ATOM      5  C   UNL     1       3.143   7.154  18.100  0.00  0.00    +0.000 A 
ATOM      6  N   UNL     1       2.811   8.482  17.954  0.00  0.00    +0.000 NA
ATOM      7  C   UNL     1       2.061   8.754  18.997  0.00  0.00    +0.000 A 
ATOM      8  N   UNL     1       1.895   7.660  19.812  0.00  0.00    +0.000 N 
ATOM      9  C   UNL     1       1.115   7.692  21.024  0.00  0.00    +0.000 C 
ATOM     10  C   UNL     1       3.961   6.328  17.223  0.00  0.00    +0.000 A 
ATOM     11  O   UNL     1       4.455   6.763  16.187  0.00  0.00    +0.000 OA
ATOM     12  C   UNL     1       2.085   4.707  20.943  0.00  0.00    +0.000 C 
ATOM     13  C   UNL     1       2.107   3.187  21.050  0.00  0.00    +0.000 C 
ATOM     14  C   UNL     1       3.496   2.681  20.731  0.00  0.00    +0.000 C 
ATOM     15  C   UNL     1       3.842   3.060  19.297  0.00  0.00    +0.000 C 
ENDROOT
BRANCH   1  16
ATOM     16  C   UNL     1       4.953   4.127  16.822  0.00  0.00    +0.000 C 
BRANCH  16  17
ATOM     17  C   UNL     1       6.455   4.400  16.938  0.00  0.00    +0.000 C 
BRANCH  17  19
ATOM     18  C   UNL     1       6.252   4.029  14.469  0.00  0.00    +0.000 C 
ATOM     19  C   UNL     1       7.111   4.625  15.578  0.00  0.00    +0.000 C 
ENDBRANCH  17  19
ENDBRANCH  16  17
ENDBRANCH   1  16
TORSDOF 3
ENDMDL
MODEL 9
REMARK VINA RESULT:      -6.3      0.828      1.287
REMARK  Name = 
REMARK  5 active torsions:
REMARK  status: ('A' for Active; 'I' for Inactive)
REMARK    1  A    between atoms: C_1  and  C_2
REMARK    2  A    between atoms: C_2  and  C_3
REMARK    3  A    between atoms: C_3  and  C_4
REMARK    4  A    between atoms: C_4  and  N_5
REMARK    5  A    between atoms: N_12  and  C_13
REMARK                            x       y       z     vdW  Elec       q    Type
REMARK                         _______ _______ _______ _____ _____    ______ ____
ROOT
ATOM      1  N   UNL     1       4.155   5.186  17.092  0.00  0.00    +0.000 N 
ATOM      2  C   UNL     1       3.325   5.925  17.998  0.00  0.00    +0.000 A 
ATOM      3  C   UNL     1       2.579   5.323  18.976  0.00  0.00    +0.000 A 
ATOM      4  C   UNL     1       2.656   3.899  18.978  0.00  0.00    +0.000 A 
ATOM      5  C   UNL     1       3.417   3.133  18.124  0.00  0.00    +0.000 A 
ATOM      6  N   UNL     1       3.259   1.790  18.382  0.00  0.00    +0.000 NA
ATOM      7  C   UNL     1       2.415   1.741  19.386  0.00  0.00    +0.000 A 
ATOM      8  N   UNL     1       2.018   2.995  19.788  0.00  0.00    +0.000 N 
ATOM      9  C   UNL     1       1.095   3.219  20.872  0.00  0.00    +0.000 C 
ATOM     10  C   UNL     1       4.249   3.763  17.108  0.00  0.00    +0.000 A 
ATOM     11  O   UNL     1       4.952   3.113  16.341  0.00  0.00    +0.000 OA
ATOM     12  C   UNL     1       1.769   6.148  19.963  0.00  0.00    +0.000 C 
ATOM     13  C   UNL     1       2.097   7.635  19.994  0.00  0.00    +0.000 C 
ATOM     14  C   UNL     1       2.174   8.163  18.579  0.00  0.00    +0.000 C 
ATOM     15  C   UNL     1       3.299   7.444  17.845  0.00  0.00    +0.000 C 
ENDROOT
BRANCH   1  16
ATOM     16  C   UNL     1       4.988   5.857  16.078  0.00  0.00    +0.000 C 
BRANCH  16  17
ATOM     17  C   UNL     1       6.433   6.082  16.531  0.00  0.00    +0.000 C 
BRANCH  17  19
ATOM     18  C   UNL     1       6.969   4.938  14.368  0.00  0.00    +0.000 C 
ATOM     19  C   UNL     1       7.419   5.169  15.806  0.00  0.00    +0.000 C 
ENDBRANCH  17  19
ENDBRANCH  16  17
ENDBRANCH   1  16
TORSDOF 3
ENDMDL
