MODEL 1
REMARK VINA RESULT:      -9.2      0.000      0.000
REMARK  Name = 
REMARK  7 active torsions:
REMARK  status: ('A' for Active; 'I' for Inactive)
REMARK    1  A    between atoms: S_2  and  N_4
REMARK    2  A    between atoms: S_2  and  C_11
REMARK    3  A    between atoms: N_4  and  C_5
REMARK    4  A    between atoms: C_5  and  C_6
REMARK    5  A    between atoms: C_14  and  N_15
REMARK    6  A    between atoms: N_15  and  C_16
REMARK    7  A    between atoms: C_25  and  C_26
REMARK                            x       y       z     vdW  Elec       q    Type
REMARK                         _______ _______ _______ _____ _____    ______ ____
ROOT
ATOM      1  C   UNL     1       2.656   4.842  18.680  0.00  0.00    +0.000 A 
ATOM      2  C   UNL     1       3.027   6.181  18.439  0.00  0.00    +0.000 A 
ATOM      3  C   UNL     1       2.686   7.200  19.330  0.00  0.00    +0.000 A 
ATOM      4  C   UNL     1       1.961   6.917  20.484  0.00  0.00    +0.000 A 
ATOM      5  C   UNL     1       1.565   5.592  20.700  0.00  0.00    +0.000 A 
ATOM      6  C   UNL     1       1.892   4.529  19.817  0.00  0.00    +0.000 A 
ENDROOT
BRANCH   6   7
ATOM      7  C   UNL     1       1.392   3.170  20.255  0.00  0.00    +0.000 C 
ATOM      8  F   UNL     1       2.277   2.153  20.249  0.00  0.00    +0.000 F 
ATOM      9  F   UNL     1       0.827   3.212  21.494  0.00  0.00    +0.000 F 
ATOM     10  F   UNL     1       0.393   2.735  19.424  0.00  0.00    +0.000 F 
ENDBRANCH   6   7
BRANCH   1  12
ATOM     11  O   UNL     1       2.288   3.057  16.782  0.00  0.00    +0.000 OA
ATOM     12  S   UNL     1       3.363   3.633  17.560  0.00  0.00    +0.000 S 
ATOM     13  O   UNL     1       4.214   2.771  18.351  0.00  0.00    +0.000 OA
BRANCH  12  14
ATOM     14  N   UNL     1       4.355   4.580  16.564  0.00  0.00    +0.000 NA
ATOM     15  H   UNL     1       4.229   5.582  16.707  0.00  0.00    +0.000 HD
BRANCH  14  16
ATOM     16  C   UNL     1       5.781   4.192  16.619  0.00  0.00    +0.000 C 
BRANCH  16  17
ATOM     17  C   UNL     1       6.554   5.171  17.427  0.00  0.00    +0.000 A 
ATOM     18  C   UNL     1       6.983   6.462  17.194  0.00  0.00    +0.000 A 
ATOM     19  C   UNL     1       7.794   6.820  18.297  0.00  0.00    +0.000 A 
ATOM     20  C   UNL     1       7.797   5.733  19.139  0.00  0.00    +0.000 A 
ATOM     21  O   UNL     1       7.038   4.730  18.625  0.00  0.00    +0.000 OA
ENDBRANCH  16  17
ENDBRANCH  14  16
ENDBRANCH  12  14
ENDBRANCH   1  12
BRANCH   4  22
ATOM     22  N   UNL     1       1.697   7.932  21.421  0.00  0.00    +0.000 N 
ATOM     23  H   UNL     1       2.482   8.139  22.032  0.00  0.00    +0.000 HD
BRANCH  22  24
ATOM     24  C   UNL     1       0.837   9.045  21.299  0.00  0.00    +0.000 A 
ATOM     25  C   UNL     1       0.533   9.512  20.010  0.00  0.00    +0.000 A 
ATOM     26  C   UNL     1      -0.331  10.595  19.829  0.00  0.00    +0.000 A 
ATOM     27  C   UNL     1      -0.908  11.205  20.937  0.00  0.00    +0.000 A 
ATOM     28  F   UNL     1      -1.746  12.233  20.760  0.00  0.00    +0.000 F 
ATOM     29  C   UNL     1      -0.635  10.760  22.222  0.00  0.00    +0.000 A 
ATOM     30  C   UNL     1       0.233   9.687  22.395  0.00  0.00    +0.000 A 
ATOM     31  F   UNL     1       0.448   9.249  23.645  0.00  0.00    +0.000 F 
ENDBRANCH  22  24
ENDBRANCH   4  22
TORSDOF 7
ENDMDL
MODEL 2
REMARK VINA RESULT:      -9.0      0.862      1.455
REMARK  Name = 
REMARK  7 active torsions:
REMARK  status: ('A' for Active; 'I' for Inactive)
REMARK    1  A    between atoms: S_2  and  N_4
REMARK    2  A    between atoms: S_2  and  C_11
REMARK    3  A    between atoms: N_4  and  C_5
REMARK    4  A    between atoms: C_5  and  C_6
REMARK    5  A    between atoms: C_14  and  N_15
REMARK    6  A    between atoms: N_15  and  C_16
REMARK    7  A    between atoms: C_25  and  C_26
REMARK                            x       y       z     vdW  Elec       q    Type
REMARK                         _______ _______ _______ _____ _____    ______ ____
ROOT
ATOM      1  C   UNL     1       2.627   4.788  18.636  0.00  0.00    +0.000 A 
ATOM      2  C   UNL     1       3.061   6.102  18.367  0.00  0.00    +0.000 A 
ATOM      3  C   UNL     1       2.792   7.150  19.250  0.00  0.00    +0.000 A 
ATOM      4  C   UNL     1       2.080   6.920  20.424  0.00  0.00    +0.000 A 
ATOM      5  C   UNL     1       1.622   5.620  20.668  0.00  0.00    +0.000 A 
ATOM      6  C   UNL     1       1.875   4.530  19.793  0.00  0.00    +0.000 A 
ENDROOT
BRANCH   6   7
ATOM      7  C   UNL     1       1.316   3.205  20.262  0.00  0.00    +0.000 C 
ATOM      8  F   UNL     1       0.797   3.157  21.506  0.00  0.00    +0.000 F 
ATOM      9  F   UNL     1       0.371   2.720  19.408  0.00  0.00    +0.000 F 
ATOM     10  F   UNL     1       2.298   2.250  20.284  0.00  0.00    +0.000 F 
ENDBRANCH   6   7
BRANCH   1  12
ATOM     11  O   UNL     1       2.126   2.998  16.773  0.00  0.00    +0.000 OA
ATOM     12  S   UNL     1       3.247   3.529  17.518  0.00  0.00    +0.000 S 
ATOM     13  O   UNL     1       4.071   2.635  18.303  0.00  0.00    +0.000 OA
BRANCH  12  14
ATOM     14  N   UNL     1       4.263   4.410  16.486  0.00  0.00    +0.000 NA
ATOM     15  H   UNL     1       4.139   5.419  16.567  0.00  0.00    +0.000 HD
BRANCH  14  16
ATOM     16  C   UNL     1       5.685   4.020  16.593  0.00  0.00    +0.000 C 
BRANCH  16  17
ATOM     17  C   UNL     1       6.447   5.041  17.358  0.00  0.00    +0.000 A 
ATOM     18  C   UNL     1       6.776   6.358  17.112  0.00  0.00    +0.000 A 
ATOM     19  C   UNL     1       7.635   6.760  18.163  0.00  0.00    +0.000 A 
ATOM     20  C   UNL     1       7.766   5.668  18.989  0.00  0.00    +0.000 A 
ATOM     21  O   UNL     1       7.040   4.622  18.515  0.00  0.00    +0.000 OA
ENDBRANCH  16  17
ENDBRANCH  14  16
ENDBRANCH  12  14
ENDBRANCH   1  12
BRANCH   4  22
ATOM     22  N   UNL     1       1.890   7.960  21.350  0.00  0.00    +0.000 N 
ATOM     23  H   UNL     1       2.753   8.307  21.759  0.00  0.00    +0.000 HD
BRANCH  22  24
ATOM     24  C   UNL     1       0.879   8.945  21.378  0.00  0.00    +0.000 A 
ATOM     25  C   UNL     1       0.294   9.261  22.615  0.00  0.00    +0.000 A 
ATOM     26  C   UNL     1      -0.695  10.245  22.705  0.00  0.00    +0.000 A 
ATOM     27  C   UNL     1      -1.090  10.928  21.561  0.00  0.00    +0.000 A 
ATOM     28  F   UNL     1      -2.027  11.880  21.653  0.00  0.00    +0.000 F 
ATOM     29  C   UNL     1      -0.523  10.645  20.328  0.00  0.00    +0.000 A 
ATOM     30  C   UNL     1       0.454   9.659  20.244  0.00  0.00    +0.000 A 
ATOM     31  F   UNL     1       1.016   9.433  19.046  0.00  0.00    +0.000 F 
ENDBRANCH  22  24
ENDBRANCH   4  22
TORSDOF 7
ENDMDL
MODEL 3
REMARK VINA RESULT:      -8.9      1.035      1.627
REMARK  Name = 
REMARK  7 active torsions:
REMARK  status: ('A' for Active; 'I' for Inactive)
REMARK    1  A    between atoms: S_2  and  N_4
REMARK    2  A    between atoms: S_2  and  C_11
REMARK    3  A    between atoms: N_4  and  C_5
REMARK    4  A    between atoms: C_5  and  C_6
REMARK    5  A    between atoms: C_14  and  N_15
REMARK    6  A    between atoms: N_15  and  C_16
REMARK    7  A    between atoms: C_25  and  C_26
REMARK                            x       y       z     vdW  Elec       q    Type
REMARK                         _______ _______ _______ _____ _____    ______ ____
ROOT
ATOM      1  C   UNL     1       2.677   4.831  18.545  0.00  0.00    +0.000 A 
ATOM      2  C   UNL     1       3.111   6.151  18.308  0.00  0.00    +0.000 A 
ATOM      3  C   UNL     1       2.828   7.181  19.207  0.00  0.00    +0.000 A 
ATOM      4  C   UNL     1       2.101   6.926  20.367  0.00  0.00    +0.000 A 
ATOM      5  C   UNL     1       1.643   5.620  20.579  0.00  0.00    +0.000 A 
ATOM      6  C   UNL     1       1.910   4.548  19.686  0.00  0.00    +0.000 A 
ENDROOT
BRANCH   6   7
ATOM      7  C   UNL     1       1.348   3.213  20.122  0.00  0.00    +0.000 C 
ATOM      8  F   UNL     1       0.407   2.651  19.337  0.00  0.00    +0.000 F 
ATOM      9  F   UNL     1       2.329   2.285  20.308  0.00  0.00    +0.000 F 
ATOM     10  F   UNL     1       0.730   3.325  21.339  0.00  0.00    +0.000 F 
ENDBRANCH   6   7
BRANCH   1  12
ATOM     11  O   UNL     1       2.197   3.028  16.688  0.00  0.00    +0.000 OA
ATOM     12  S   UNL     1       3.314   3.595  17.411  0.00  0.00    +0.000 S 
ATOM     13  O   UNL     1       4.185   2.729  18.175  0.00  0.00    +0.000 OA
BRANCH  12  14
ATOM     14  N   UNL     1       4.278   4.513  16.359  0.00  0.00    +0.000 NA
ATOM     15  H   UNL     1       4.161   5.518  16.483  0.00  0.00    +0.000 HD
BRANCH  14  16
ATOM     16  C   UNL     1       5.703   4.118  16.377  0.00  0.00    +0.000 C 
BRANCH  16  17
ATOM     17  C   UNL     1       6.519   5.153  17.063  0.00  0.00    +0.000 A 
ATOM     18  C   UNL     1       7.297   5.143  18.203  0.00  0.00    +0.000 A 
ATOM     19  C   UNL     1       7.717   6.478  18.413  0.00  0.00    +0.000 A 
ATOM     20  C   UNL     1       7.182   7.215  17.383  0.00  0.00    +0.000 A 
ATOM     21  O   UNL     1       6.461   6.418  16.551  0.00  0.00    +0.000 OA
ENDBRANCH  16  17
ENDBRANCH  14  16
ENDBRANCH  12  14
ENDBRANCH   1  12
BRANCH   4  22
ATOM     22  N   UNL     1       1.895   7.947  21.311  0.00  0.00    +0.000 N 
ATOM     23  H   UNL     1       2.751   8.278  21.749  0.00  0.00    +0.000 HD
BRANCH  22  24
ATOM     24  C   UNL     1       0.892   8.940  21.336  0.00  0.00    +0.000 A 
ATOM     25  C   UNL     1       0.316   9.271  22.573  0.00  0.00    +0.000 A 
ATOM     26  C   UNL     1      -0.665  10.263  22.660  0.00  0.00    +0.000 A 
ATOM     27  C   UNL     1      -1.062  10.938  21.512  0.00  0.00    +0.000 A 
ATOM     28  F   UNL     1      -1.991  11.897  21.600  0.00  0.00    +0.000 F 
ATOM     29  C   UNL     1      -0.504  10.640  20.278  0.00  0.00    +0.000 A 
ATOM     30  C   UNL     1       0.465   9.646  20.197  0.00  0.00    +0.000 A 
ATOM     31  F   UNL     1       1.018   9.405  18.999  0.00  0.00    +0.000 F 
ENDBRANCH  22  24
ENDBRANCH   4  22
TORSDOF 7
ENDMDL
MODEL 4
REMARK VINA RESULT:      -8.5      1.392      2.105
REMARK  Name = 
REMARK  7 active torsions:
REMARK  status: ('A' for Active; 'I' for Inactive)
REMARK    1  A    between atoms: S_2  and  N_4
REMARK    2  A    between atoms: S_2  and  C_11
REMARK    3  A    between atoms: N_4  and  C_5
REMARK    4  A    between atoms: C_5  and  C_6
REMARK    5  A    between atoms: C_14  and  N_15
REMARK    6  A    between atoms: N_15  and  C_16
REMARK    7  A    between atoms: C_25  and  C_26
REMARK                            x       y       z     vdW  Elec       q    Type
REMARK                         _______ _______ _______ _____ _____    ______ ____
ROOT
ATOM      1  C   UNL     1       2.683   4.983  18.687  0.00  0.00    +0.000 A 
ATOM      2  C   UNL     1       2.962   6.347  18.462  0.00  0.00    +0.000 A 
ATOM      3  C   UNL     1       2.573   7.328  19.377  0.00  0.00    +0.000 A 
ATOM      4  C   UNL     1       1.891   6.979  20.539  0.00  0.00    +0.000 A 
ATOM      5  C   UNL     1       1.586   5.628  20.739  0.00  0.00    +0.000 A 
ATOM      6  C   UNL     1       1.964   4.603  19.831  0.00  0.00    +0.000 A 
ENDROOT
BRANCH   6   7
ATOM      7  C   UNL     1       1.562   3.207  20.255  0.00  0.00    +0.000 C 
ATOM      8  F   UNL     1       0.800   3.092  21.362  0.00  0.00    +0.000 F 
ATOM      9  F   UNL     1       0.930   2.534  19.253  0.00  0.00    +0.000 F 
ATOM     10  F   UNL     1       2.669   2.455  20.545  0.00  0.00    +0.000 F 
ENDBRANCH   6   7
BRANCH   1  12
ATOM     11  O   UNL     1       2.398   3.249  16.728  0.00  0.00    +0.000 OA
ATOM     12  S   UNL     1       3.445   3.841  17.532  0.00  0.00    +0.000 S 
ATOM     13  O   UNL     1       4.326   2.988  18.300  0.00  0.00    +0.000 OA
BRANCH  12  14
ATOM     14  N   UNL     1       4.404   4.859  16.574  0.00  0.00    +0.000 NA
ATOM     15  H   UNL     1       4.348   5.839  16.851  0.00  0.00    +0.000 HD
BRANCH  14  16
ATOM     16  C   UNL     1       5.804   4.401  16.453  0.00  0.00    +0.000 C 
BRANCH  16  17
ATOM     17  C   UNL     1       6.244   4.446  15.034  0.00  0.00    +0.000 A 
ATOM     18  C   UNL     1       5.820   3.801  13.891  0.00  0.00    +0.000 A 
ATOM     19  C   UNL     1       6.726   4.164  12.866  0.00  0.00    +0.000 A 
ATOM     20  C   UNL     1       7.637   5.017  13.445  0.00  0.00    +0.000 A 
ATOM     21  O   UNL     1       7.347   5.203  14.759  0.00  0.00    +0.000 OA
ENDBRANCH  16  17
ENDBRANCH  14  16
ENDBRANCH  12  14
ENDBRANCH   1  12
BRANCH   4  22
ATOM     22  N   UNL     1       1.581   7.960  21.498  0.00  0.00    +0.000 N 
ATOM     23  H   UNL     1       2.331   8.136  22.160  0.00  0.00    +0.000 HD
BRANCH  22  24
ATOM     24  C   UNL     1       0.736   9.083  21.371  0.00  0.00    +0.000 A 
ATOM     25  C   UNL     1       0.430   9.542  20.080  0.00  0.00    +0.000 A 
ATOM     26  C   UNL     1      -0.420  10.636  19.894  0.00  0.00    +0.000 A 
ATOM     27  C   UNL     1      -0.981  11.264  21.000  0.00  0.00    +0.000 A 
ATOM     28  F   UNL     1      -1.806  12.303  20.818  0.00  0.00    +0.000 F 
ATOM     29  C   UNL     1      -0.706  10.828  22.287  0.00  0.00    +0.000 A 
ATOM     30  C   UNL     1       0.148   9.744  22.464  0.00  0.00    +0.000 A 
ATOM     31  F   UNL     1       0.364   9.315  23.717  0.00  0.00    +0.000 F 
ENDBRANCH  22  24
ENDBRANCH   4  22
TORSDOF 7
ENDMDL
MODEL 5
REMARK VINA RESULT:      -8.4      1.246      1.663
REMARK  Name = 
REMARK  7 active torsions:
REMARK  status: ('A' for Active; 'I' for Inactive)
REMARK    1  A    between atoms: S_2  and  N_4
REMARK    2  A    between atoms: S_2  and  C_11
REMARK    3  A    between atoms: N_4  and  C_5
REMARK    4  A    between atoms: C_5  and  C_6
REMARK    5  A    between atoms: C_14  and  N_15
REMARK    6  A    between atoms: N_15  and  C_16
REMARK    7  A    between atoms: C_25  and  C_26
REMARK                            x       y       z     vdW  Elec       q    Type
REMARK                         _______ _______ _______ _____ _____    ______ ____
ROOT
ATOM      1  C   UNL     1       2.279   4.505  18.777  0.00  0.00    +0.000 A 
ATOM      2  C   UNL     1       2.266   5.737  18.092  0.00  0.00    +0.000 A 
ATOM      3  C   UNL     1       2.202   6.950  18.780  0.00  0.00    +0.000 A 
ATOM      4  C   UNL     1       2.143   6.971  20.171  0.00  0.00    +0.000 A 
ATOM      5  C   UNL     1       2.120   5.744  20.844  0.00  0.00    +0.000 A 
ATOM      6  C   UNL     1       2.183   4.491  20.178  0.00  0.00    +0.000 A 
ENDROOT
BRANCH   6   7
ATOM      7  C   UNL     1       2.177   3.289  21.098  0.00  0.00    +0.000 C 
ATOM      8  F   UNL     1       3.136   2.361  20.910  0.00  0.00    +0.000 F 
ATOM      9  F   UNL     1       2.213   3.653  22.410  0.00  0.00    +0.000 F 
ATOM     10  F   UNL     1       1.011   2.583  20.957  0.00  0.00    +0.000 F 
ENDBRANCH   6   7
BRANCH   1  12
ATOM     11  O   UNL     1       2.258   3.393  16.392  0.00  0.00    +0.000 OA
ATOM     12  S   UNL     1       2.590   3.061  17.760  0.00  0.00    +0.000 S 
ATOM     13  O   UNL     1       1.935   1.942  18.403  0.00  0.00    +0.000 OA
BRANCH  12  14
ATOM     14  N   UNL     1       4.265   2.847  17.914  0.00  0.00    +0.000 NA
ATOM     15  H   UNL     1       4.546   1.867  17.919  0.00  0.00    +0.000 HD
BRANCH  14  16
ATOM     16  C   UNL     1       5.048   3.639  16.941  0.00  0.00    +0.000 C 
BRANCH  16  17
ATOM     17  C   UNL     1       5.977   4.559  17.647  0.00  0.00    +0.000 A 
ATOM     18  C   UNL     1       7.032   5.343  17.229  0.00  0.00    +0.000 A 
ATOM     19  C   UNL     1       7.611   5.893  18.398  0.00  0.00    +0.000 A 
ATOM     20  C   UNL     1       6.867   5.420  19.453  0.00  0.00    +0.000 A 
ATOM     21  O   UNL     1       5.865   4.617  19.007  0.00  0.00    +0.000 OA
ENDBRANCH  16  17
ENDBRANCH  14  16
ENDBRANCH  12  14
ENDBRANCH   1  12
BRANCH   4  22
ATOM     22  N   UNL     1       2.168   8.195  20.862  0.00  0.00    +0.000 N 
ATOM     23  H   UNL     1       3.026   8.723  20.727  0.00  0.00    +0.000 HD
BRANCH  22  24
ATOM     24  C   UNL     1       1.091   9.046  21.192  0.00  0.00    +0.000 A 
ATOM     25  C   UNL     1       0.702   9.133  22.538  0.00  0.00    +0.000 A 
ATOM     26  C   UNL     1      -0.342   9.976  22.926  0.00  0.00    +0.000 A 
ATOM     27  C   UNL     1      -0.992  10.749  21.970  0.00  0.00    +0.000 A 
ATOM     28  F   UNL     1      -1.982  11.567  22.347  0.00  0.00    +0.000 F 
ATOM     29  C   UNL     1      -0.624  10.692  20.635  0.00  0.00    +0.000 A 
ATOM     30  C   UNL     1       0.411   9.844  20.255  0.00  0.00    +0.000 A 
ATOM     31  F   UNL     1       0.775   9.838  18.963  0.00  0.00    +0.000 F 
ENDBRANCH  22  24
ENDBRANCH   4  22
TORSDOF 7
ENDMDL
MODEL 6
REMARK VINA RESULT:      -8.4      1.315      2.024
REMARK  Name = 
REMARK  7 active torsions:
REMARK  status: ('A' for Active; 'I' for Inactive)
REMARK    1  A    between atoms: S_2  and  N_4
REMARK    2  A    between atoms: S_2  and  C_11
REMARK    3  A    between atoms: N_4  and  C_5
REMARK    4  A    between atoms: C_5  and  C_6
REMARK    5  A    between atoms: C_14  and  N_15
REMARK    6  A    between atoms: N_15  and  C_16
REMARK    7  A    between atoms: C_25  and  C_26
REMARK                            x       y       z     vdW  Elec       q    Type
REMARK                         _______ _______ _______ _____ _____    ______ ____
ROOT
ATOM      1  C   UNL     1       3.253   5.393  18.104  0.00  0.00    +0.000 A 
ATOM      2  C   UNL     1       3.657   6.571  17.442  0.00  0.00    +0.000 A 
ATOM      3  C   UNL     1       3.168   7.822  17.824  0.00  0.00    +0.000 A 
ATOM      4  C   UNL     1       2.260   7.936  18.873  0.00  0.00    +0.000 A 
ATOM      5  C   UNL     1       1.836   6.760  19.503  0.00  0.00    +0.000 A 
ATOM      6  C   UNL     1       2.310   5.470  19.142  0.00  0.00    +0.000 A 
ENDROOT
BRANCH   6   7
ATOM      7  C   UNL     1       1.746   4.338  19.972  0.00  0.00    +0.000 C 
ATOM      8  F   UNL     1       1.202   3.297  19.310  0.00  0.00    +0.000 F 
ATOM      9  F   UNL     1       2.669   3.834  20.838  0.00  0.00    +0.000 F 
ATOM     10  F   UNL     1       0.723   4.787  20.765  0.00  0.00    +0.000 F 
ENDBRANCH   6   7
BRANCH   1  12
ATOM     11  O   UNL     1       3.182   2.947  17.136  0.00  0.00    +0.000 OA
ATOM     12  S   UNL     1       4.141   3.905  17.641  0.00  0.00    +0.000 S 
ATOM     13  O   UNL     1       4.985   3.550  18.761  0.00  0.00    +0.000 OA
BRANCH  12  14
ATOM     14  N   UNL     1       5.140   4.442  16.380  0.00  0.00    +0.000 NA
ATOM     15  H   UNL     1       4.936   5.397  16.085  0.00  0.00    +0.000 HD
BRANCH  14  16
ATOM     16  C   UNL     1       6.581   4.248  16.652  0.00  0.00    +0.000 C 
BRANCH  16  17
ATOM     17  C   UNL     1       7.162   5.469  17.269  0.00  0.00    +0.000 A 
ATOM     18  C   UNL     1       7.734   5.728  18.498  0.00  0.00    +0.000 A 
ATOM     19  C   UNL     1       7.976   7.122  18.541  0.00  0.00    +0.000 A 
ATOM     20  C   UNL     1       7.550   7.623  17.334  0.00  0.00    +0.000 A 
ATOM     21  O   UNL     1       7.063   6.625  16.549  0.00  0.00    +0.000 OA
ENDBRANCH  16  17
ENDBRANCH  14  16
ENDBRANCH  12  14
ENDBRANCH   1  12
BRANCH   4  22
ATOM     22  N   UNL     1       1.840   9.204  19.310  0.00  0.00    +0.000 N 
ATOM     23  H   UNL     1       1.799   9.899  18.569  0.00  0.00    +0.000 HD
BRANCH  22  24
ATOM     24  C   UNL     1       0.960   9.530  20.365  0.00  0.00    +0.000 A 
ATOM     25  C   UNL     1       1.286   9.094  21.659  0.00  0.00    +0.000 A 
ATOM     26  C   UNL     1       0.464   9.407  22.745  0.00  0.00    +0.000 A 
ATOM     27  C   UNL     1      -0.679  10.172  22.542  0.00  0.00    +0.000 A 
ATOM     28  F   UNL     1      -1.458  10.482  23.586  0.00  0.00    +0.000 F 
ATOM     29  C   UNL     1      -1.022  10.625  21.277  0.00  0.00    +0.000 A 
ATOM     30  C   UNL     1      -0.203  10.302  20.200  0.00  0.00    +0.000 A 
ATOM     31  F   UNL     1      -0.534  10.788  18.994  0.00  0.00    +0.000 F 
ENDBRANCH  22  24
ENDBRANCH   4  22
TORSDOF 7
ENDMDL
MODEL 7
REMARK VINA RESULT:      -8.4      1.360      2.136
REMARK  Name = 
REMARK  7 active torsions:
REMARK  status: ('A' for Active; 'I' for Inactive)
REMARK    1  A    between atoms: S_2  and  N_4
REMARK    2  A    between atoms: S_2  and  C_11
REMARK    3  A    between atoms: N_4  and  C_5
REMARK    4  A    between atoms: C_5  and  C_6
REMARK    5  A    between atoms: C_14  and  N_15
REMARK    6  A    between atoms: N_15  and  C_16
REMARK    7  A    between atoms: C_25  and  C_26
REMARK                            x       y       z     vdW  Elec       q    Type
REMARK                         _______ _______ _______ _____ _____    ______ ____
ROOT
ATOM      1  C   UNL     1       3.578   5.123  18.377  0.00  0.00    +0.000 A 
ATOM      2  C   UNL     1       3.965   6.269  17.654  0.00  0.00    +0.000 A 
ATOM      3  C   UNL     1       3.312   7.491  17.828  0.00  0.00    +0.000 A 
ATOM      4  C   UNL     1       2.254   7.606  18.725  0.00  0.00    +0.000 A 
ATOM      5  C   UNL     1       1.852   6.456  19.414  0.00  0.00    +0.000 A 
ATOM      6  C   UNL     1       2.490   5.196  19.262  0.00  0.00    +0.000 A 
ENDROOT
BRANCH   6   7
ATOM      7  C   UNL     1       1.917   4.093  20.124  0.00  0.00    +0.000 C 
ATOM      8  F   UNL     1       0.798   4.371  20.823  0.00  0.00    +0.000 F 
ATOM      9  F   UNL     1       1.679   2.959  19.407  0.00  0.00    +0.000 F 
ATOM     10  F   UNL     1       2.816   3.721  21.089  0.00  0.00    +0.000 F 
ENDBRANCH   6   7
BRANCH   1  12
ATOM     11  O   UNL     1       3.902   2.634  17.585  0.00  0.00    +0.000 OA
ATOM     12  S   UNL     1       4.658   3.701  18.202  0.00  0.00    +0.000 S 
ATOM     13  O   UNL     1       5.282   3.483  19.489  0.00  0.00    +0.000 OA
BRANCH  12  14
ATOM     14  N   UNL     1       5.847   4.263  17.131  0.00  0.00    +0.000 NA
ATOM     15  H   UNL     1       5.542   5.063  16.578  0.00  0.00    +0.000 HD
BRANCH  14  16
ATOM     16  C   UNL     1       7.152   4.509  17.782  0.00  0.00    +0.000 C 
BRANCH  16  17
ATOM     17  C   UNL     1       7.432   5.967  17.848  0.00  0.00    +0.000 A 
ATOM     18  C   UNL     1       7.200   7.015  16.981  0.00  0.00    +0.000 A 
ATOM     19  C   UNL     1       7.819   8.153  17.553  0.00  0.00    +0.000 A 
ATOM     20  C   UNL     1       8.376   7.730  18.737  0.00  0.00    +0.000 A 
ATOM     21  O   UNL     1       8.138   6.406  18.931  0.00  0.00    +0.000 OA
ENDBRANCH  16  17
ENDBRANCH  14  16
ENDBRANCH  12  14
ENDBRANCH   1  12
BRANCH   4  22
ATOM     22  N   UNL     1       1.659   8.858  18.961  0.00  0.00    +0.000 N 
ATOM     23  H   UNL     1       1.326   9.318  18.118  0.00  0.00    +0.000 HD
BRANCH  22  24
ATOM     24  C   UNL     1       0.950   9.299  20.099  0.00  0.00    +0.000 A 
ATOM     25  C   UNL     1       1.325   8.792  21.353  0.00  0.00    +0.000 A 
ATOM     26  C   UNL     1       0.674   9.212  22.516  0.00  0.00    +0.000 A 
ATOM     27  C   UNL     1      -0.345  10.153  22.430  0.00  0.00    +0.000 A 
ATOM     28  F   UNL     1      -0.958  10.564  23.547  0.00  0.00    +0.000 F 
ATOM     29  C   UNL     1      -0.731  10.680  21.207  0.00  0.00    +0.000 A 
ATOM     30  C   UNL     1      -0.084  10.251  20.053  0.00  0.00    +0.000 A 
ATOM     31  F   UNL     1      -0.447  10.807  18.887  0.00  0.00    +0.000 F 
ENDBRANCH  22  24
ENDBRANCH   4  22
TORSDOF 7
ENDMDL
MODEL 8
REMARK VINA RESULT:      -8.3      2.980      4.649
REMARK  Name = 
REMARK  7 active torsions:
REMARK  status: ('A' for Active; 'I' for Inactive)
REMARK    1  A    between atoms: S_2  and  N_4
REMARK    2  A    between atoms: S_2  and  C_11
REMARK    3  A    between atoms: N_4  and  C_5
REMARK    4  A    between atoms: C_5  and  C_6
REMARK    5  A    between atoms: C_14  and  N_15
REMARK    6  A    between atoms: N_15  and  C_16
REMARK    7  A    between atoms: C_25  and  C_26
REMARK                            x       y       z     vdW  Elec       q    Type
REMARK                         _______ _______ _______ _____ _____    ______ ____
ROOT
ATOM      1  C   UNL     1       4.464   5.485  18.315  0.00  0.00    +0.000 A 
ATOM      2  C   UNL     1       3.661   5.624  19.465  0.00  0.00    +0.000 A 
ATOM      3  C   UNL     1       2.733   6.661  19.582  0.00  0.00    +0.000 A 
ATOM      4  C   UNL     1       2.582   7.592  18.558  0.00  0.00    +0.000 A 
ATOM      5  C   UNL     1       3.407   7.470  17.434  0.00  0.00    +0.000 A 
ATOM      6  C   UNL     1       4.362   6.430  17.281  0.00  0.00    +0.000 A 
ENDROOT
BRANCH   6   7
ATOM      7  C   UNL     1       5.127   6.466  15.976  0.00  0.00    +0.000 C 
ATOM      8  F   UNL     1       5.167   5.330  15.250  0.00  0.00    +0.000 F 
ATOM      9  F   UNL     1       4.684   7.459  15.154  0.00  0.00    +0.000 F 
ATOM     10  F   UNL     1       6.447   6.753  16.200  0.00  0.00    +0.000 F 
ENDBRANCH   6   7
BRANCH   1  12
ATOM     11  O   UNL     1       6.834   4.348  18.182  0.00  0.00    +0.000 OA
ATOM     12  S   UNL     1       5.436   3.980  18.231  0.00  0.00    +0.000 S 
ATOM     13  O   UNL     1       4.872   3.171  17.172  0.00  0.00    +0.000 OA
BRANCH  12  14
ATOM     14  N   UNL     1       5.087   3.226  19.709  0.00  0.00    +0.000 NA
ATOM     15  H   UNL     1       4.726   3.870  20.413  0.00  0.00    +0.000 HD
BRANCH  14  16
ATOM     16  C   UNL     1       4.231   2.029  19.568  0.00  0.00    +0.000 C 
BRANCH  16  17
ATOM     17  C   UNL     1       2.810   2.373  19.833  0.00  0.00    +0.000 A 
ATOM     18  C   UNL     1       1.709   2.541  19.018  0.00  0.00    +0.000 A 
ATOM     19  C   UNL     1       0.660   2.997  19.852  0.00  0.00    +0.000 A 
ATOM     20  C   UNL     1       1.181   3.065  21.122  0.00  0.00    +0.000 A 
ATOM     21  O   UNL     1       2.484   2.677  21.124  0.00  0.00    +0.000 OA
ENDBRANCH  16  17
ENDBRANCH  14  16
ENDBRANCH  12  14
ENDBRANCH   1  12
BRANCH   4  22
ATOM     22  N   UNL     1       1.586   8.581  18.643  0.00  0.00    +0.000 N 
ATOM     23  H   UNL     1       0.925   8.563  17.871  0.00  0.00    +0.000 HD
BRANCH  22  24
ATOM     24  C   UNL     1       1.011   9.160  19.795  0.00  0.00    +0.000 A 
ATOM     25  C   UNL     1       1.173   8.497  21.023  0.00  0.00    +0.000 A 
ATOM     26  C   UNL     1       0.646   9.037  22.199  0.00  0.00    +0.000 A 
ATOM     27  C   UNL     1      -0.032  10.250  22.155  0.00  0.00    +0.000 A 
ATOM     28  F   UNL     1      -0.524  10.771  23.285  0.00  0.00    +0.000 F 
ATOM     29  C   UNL     1      -0.199  10.932  20.959  0.00  0.00    +0.000 A 
ATOM     30  C   UNL     1       0.321  10.385  19.791  0.00  0.00    +0.000 A 
ATOM     31  F   UNL     1       0.182  11.085  18.655  0.00  0.00    +0.000 F 
ENDBRANCH  22  24
ENDBRANCH   4  22
TORSDOF 7
ENDMDL
MODEL 9
REMARK VINA RESULT:      -8.3      2.984      4.532
REMARK  Name = 
REMARK  7 active torsions:
REMARK  status: ('A' for Active; 'I' for Inactive)
REMARK    1  A    between atoms: S_2  and  N_4
REMARK    2  A    between atoms: S_2  and  C_11
REMARK    3  A    between atoms: N_4  and  C_5
REMARK    4  A    between atoms: C_5  and  C_6
REMARK    5  A    between atoms: C_14  and  N_15
REMARK    6  A    between atoms: N_15  and  C_16
REMARK    7  A    between atoms: C_25  and  C_26
REMARK                            x       y       z     vdW  Elec       q    Type
REMARK                         _______ _______ _______ _____ _____    ______ ____
ROOT
ATOM      1  C   UNL     1       4.327   5.518  18.464  0.00  0.00    +0.000 A 
ATOM      2  C   UNL     1       3.447   5.814  19.524  0.00  0.00    +0.000 A 
ATOM      3  C   UNL     1       2.535   6.867  19.438  0.00  0.00    +0.000 A 
ATOM      4  C   UNL     1       2.476   7.659  18.294  0.00  0.00    +0.000 A 
ATOM      5  C   UNL     1       3.377   7.382  17.259  0.00  0.00    +0.000 A 
ATOM      6  C   UNL     1       4.319   6.321  17.312  0.00  0.00    +0.000 A 
ENDROOT
BRANCH   6   7
ATOM      7  C   UNL     1       5.176   6.178  16.073  0.00  0.00    +0.000 C 
ATOM      8  F   UNL     1       5.221   4.964  15.488  0.00  0.00    +0.000 F 
ATOM      9  F   UNL     1       4.834   7.081  15.112  0.00  0.00    +0.000 F 
ATOM     10  F   UNL     1       6.487   6.446  16.363  0.00  0.00    +0.000 F 
ENDBRANCH   6   7
BRANCH   1  12
ATOM     11  O   UNL     1       5.183   3.581  20.028  0.00  0.00    +0.000 OA
ATOM     12  S   UNL     1       5.271   4.003  18.647  0.00  0.00    +0.000 S 
ATOM     13  O   UNL     1       6.569   4.240  18.053  0.00  0.00    +0.000 OA
BRANCH  12  14
ATOM     14  N   UNL     1       4.431   2.915  17.654  0.00  0.00    +0.000 NA
ATOM     15  H   UNL     1       5.000   2.544  16.894  0.00  0.00    +0.000 HD
BRANCH  14  16
ATOM     16  C   UNL     1       3.751   1.840  18.408  0.00  0.00    +0.000 C 
BRANCH  16  17
ATOM     17  C   UNL     1       2.482   2.342  18.997  0.00  0.00    +0.000 A 
ATOM     18  C   UNL     1       1.373   2.966  18.463  0.00  0.00    +0.000 A 
ATOM     19  C   UNL     1       0.547   3.319  19.557  0.00  0.00    +0.000 A 
ATOM     20  C   UNL     1       1.196   2.877  20.686  0.00  0.00    +0.000 A 
ATOM     21  O   UNL     1       2.368   2.272  20.356  0.00  0.00    +0.000 OA
ENDBRANCH  16  17
ENDBRANCH  14  16
ENDBRANCH  12  14
ENDBRANCH   1  12
BRANCH   4  22
ATOM     22  N   UNL     1       1.497   8.661  18.177  0.00  0.00    +0.000 N 
ATOM     23  H   UNL     1       0.584   8.311  17.899  0.00  0.00    +0.000 HD
BRANCH  22  24
ATOM     24  C   UNL     1       1.382   9.873  18.892  0.00  0.00    +0.000 A 
ATOM     25  C   UNL     1       1.910  11.038  18.311  0.00  0.00    +0.000 A 
ATOM     26  C   UNL     1       1.805  12.270  18.963  0.00  0.00    +0.000 A 
ATOM     27  C   UNL     1       1.156  12.344  20.190  0.00  0.00    +0.000 A 
ATOM     28  F   UNL     1       1.044  13.528  20.805  0.00  0.00    +0.000 F 
ATOM     29  C   UNL     1       0.616  11.213  20.783  0.00  0.00    +0.000 A 
ATOM     30  C   UNL     1       0.732   9.989  20.133  0.00  0.00    +0.000 A 
ATOM     31  F   UNL     1       0.165   8.917  20.708  0.00  0.00    +0.000 F 
ENDBRANCH  22  24
ENDBRANCH   4  22
TORSDOF 7
ENDMDL
