MODEL 1
REMARK VINA RESULT:      -6.1      0.000      0.000
REMARK  Name = 
REMARK  16 active torsions:
REMARK  status: ('A' for Active; 'I' for Inactive)
REMARK    1  A    between atoms: N_3  and  C_4
REMARK    2  A    between atoms: C_4  and  C_5
REMARK    3  A    between atoms: C_5  and  N_6
REMARK    4  A    between atoms: N_6  and  C_7
REMARK    5  A    between atoms: C_7  and  C_8
REMARK    6  A    between atoms: C_8  and  O_9
REMARK    7  A    between atoms: C_8  and  C_10
REMARK    8  A    between atoms: C_10  and  O_11
REMARK    9  A    between atoms: O_11  and  C_12
REMARK   10  A    between atoms: C_15  and  O_16
REMARK   11  A    between atoms: N_19  and  C_20
REMARK   12  A    between atoms: N_19  and  C_23
REMARK   13  A    between atoms: C_20  and  C_21
REMARK   14  A    between atoms: C_21  and  O_22
REMARK   15  A    between atoms: C_23  and  C_24
REMARK   16  A    between atoms: C_24  and  O_25
REMARK                            x       y       z     vdW  Elec       q    Type
REMARK                         _______ _______ _______ _____ _____    ______ ____
ROOT
ATOM      1  N   UNL     1       1.282   2.673  18.722  0.00  0.00    +0.000 NA
ATOM      2  H   UNL     1       0.398   2.160  18.750  0.00  0.00    +0.000 HD
ENDROOT
BRANCH   1   3
ATOM      3  C   UNL     1       1.996   2.449  19.988  0.00  0.00    +0.000 C 
BRANCH   3   4
ATOM      4  C   UNL     1       1.372   3.225  21.157  0.00  0.00    +0.000 C 
BRANCH   4   5
ATOM      5  O   UNL     1       1.549   2.455  22.363  0.00  0.00    +0.000 OA
ATOM      6  H   UNL     1       2.390   1.974  22.293  0.00  0.00    +0.000 HD
ENDBRANCH   4   5
BRANCH   4   7
ATOM      7  C   UNL     1       2.058   4.604  21.284  0.00  0.00    +0.000 C 
BRANCH   7   8
ATOM      8  O   UNL     1       2.609   4.969  20.021  0.00  0.00    +0.000 OA
BRANCH   8   9
ATOM      9  C   UNL     1       2.324   6.222  19.554  0.00  0.00    +0.000 A 
ATOM     10  C   UNL     1       1.805   7.093  20.520  0.00  0.00    +0.000 A 
ATOM     11  C   UNL     1       1.489   8.415  20.199  0.00  0.00    +0.000 A 
ATOM     12  C   UNL     1       1.717   8.871  18.907  0.00  0.00    +0.000 A 
ATOM     13  C   UNL     1       2.245   8.024  17.938  0.00  0.00    +0.000 A 
ATOM     14  C   UNL     1       2.545   6.693  18.258  0.00  0.00    +0.000 A 
BRANCH  12  15
ATOM     15  O   UNL     1       1.433  10.155  18.544  0.00  0.00    +0.000 OA
ATOM     16  H   UNL     1       2.097  10.743  18.943  0.00  0.00    +0.000 HD
ENDBRANCH  12  15
ENDBRANCH   8   9
ENDBRANCH   7   8
ENDBRANCH   4   7
ENDBRANCH   3   4
ENDBRANCH   1   3
BRANCH   1  17
ATOM     17  C   UNL     1       2.090   2.269  17.565  0.00  0.00    +0.000 C 
BRANCH  17  18
ATOM     18  C   UNL     1       3.598   2.244  17.855  0.00  0.00    +0.000 C 
BRANCH  18  21
ATOM     19  O   UNL     1       5.398   3.899  19.138  0.00  0.00    +0.000 OA
ATOM     20  C   UNL     1       5.217   4.083  17.945  0.00  0.00    +0.000 C 
ATOM     21  N   UNL     1       4.326   3.319  17.225  0.00  0.00    +0.000 N 
ATOM     22  N   UNL     1       5.918   5.032  17.229  0.00  0.00    +0.000 N 
ATOM     23  H   UNL     1       4.223   3.424  16.227  0.00  0.00    +0.000 HD
BRANCH  22  24
ATOM     24  C   UNL     1       5.635   5.393  15.829  0.00  0.00    +0.000 C 
BRANCH  24  25
ATOM     25  C   UNL     1       6.612   4.761  14.834  0.00  0.00    +0.000 C 
BRANCH  25  26
ATOM     26  O   UNL     1       6.251   3.415  14.537  0.00  0.00    +0.000 OA
ATOM     27  H   UNL     1       6.437   2.895  15.340  0.00  0.00    +0.000 HD
ENDBRANCH  25  26
ENDBRANCH  24  25
ENDBRANCH  22  24
BRANCH  22  28
ATOM     28  C   UNL     1       6.823   5.930  17.980  0.00  0.00    +0.000 C 
BRANCH  28  29
ATOM     29  C   UNL     1       8.080   5.279  18.574  0.00  0.00    +0.000 C 
BRANCH  29  30
ATOM     30  O   UNL     1       8.406   4.084  17.870  0.00  0.00    +0.000 OA
ATOM     31  H   UNL     1       9.295   3.832  18.180  0.00  0.00    +0.000 HD
ENDBRANCH  29  30
ENDBRANCH  28  29
ENDBRANCH  22  28
ENDBRANCH  18  21
ENDBRANCH  17  18
ENDBRANCH   1  17
TORSDOF 16
ENDMDL
MODEL 2
REMARK VINA RESULT:      -5.7      1.374      1.438
REMARK  Name = 
REMARK  16 active torsions:
REMARK  status: ('A' for Active; 'I' for Inactive)
REMARK    1  A    between atoms: N_3  and  C_4
REMARK    2  A    between atoms: C_4  and  C_5
REMARK    3  A    between atoms: C_5  and  N_6
REMARK    4  A    between atoms: N_6  and  C_7
REMARK    5  A    between atoms: C_7  and  C_8
REMARK    6  A    between atoms: C_8  and  O_9
REMARK    7  A    between atoms: C_8  and  C_10
REMARK    8  A    between atoms: C_10  and  O_11
REMARK    9  A    between atoms: O_11  and  C_12
REMARK   10  A    between atoms: C_15  and  O_16
REMARK   11  A    between atoms: N_19  and  C_20
REMARK   12  A    between atoms: N_19  and  C_23
REMARK   13  A    between atoms: C_20  and  C_21
REMARK   14  A    between atoms: C_21  and  O_22
REMARK   15  A    between atoms: C_23  and  C_24
REMARK   16  A    between atoms: C_24  and  O_25
REMARK                            x       y       z     vdW  Elec       q    Type
REMARK                         _______ _______ _______ _____ _____    ______ ____
ROOT
ATOM      1  N   UNL     1       2.039   4.091  18.003  0.00  0.00    +0.000 NA
ATOM      2  H   UNL     1       1.036   4.089  17.808  0.00  0.00    +0.000 HD
ENDROOT
BRANCH   1   3
ATOM      3  C   UNL     1       2.251   3.648  19.389  0.00  0.00    +0.000 C 
BRANCH   3   4
ATOM      4  C   UNL     1       1.155   4.154  20.338  0.00  0.00    +0.000 C 
BRANCH   4   5
ATOM      5  O   UNL     1       0.888   3.128  21.316  0.00  0.00    +0.000 OA
ATOM      6  H   UNL     1       1.296   2.303  21.005  0.00  0.00    +0.000 HD
ENDBRANCH   4   5
BRANCH   4   7
ATOM      7  C   UNL     1       1.630   5.454  21.026  0.00  0.00    +0.000 C 
BRANCH   7   8
ATOM      8  O   UNL     1       2.547   6.129  20.167  0.00  0.00    +0.000 OA
BRANCH   8   9
ATOM      9  C   UNL     1       2.128   7.303  19.607  0.00  0.00    +0.000 A 
ATOM     10  C   UNL     1       1.397   8.126  20.471  0.00  0.00    +0.000 A 
ATOM     11  C   UNL     1       0.923   9.370  20.048  0.00  0.00    +0.000 A 
ATOM     12  C   UNL     1       1.207   9.800  18.758  0.00  0.00    +0.000 A 
ATOM     13  C   UNL     1       1.944   9.001  17.890  0.00  0.00    +0.000 A 
ATOM     14  C   UNL     1       2.402   7.746  18.311  0.00  0.00    +0.000 A 
BRANCH  12  15
ATOM     15  O   UNL     1       0.775  11.009  18.299  0.00  0.00    +0.000 OA
ATOM     16  H   UNL     1       0.447  11.527  19.053  0.00  0.00    +0.000 HD
ENDBRANCH  12  15
ENDBRANCH   8   9
ENDBRANCH   7   8
ENDBRANCH   4   7
ENDBRANCH   3   4
ENDBRANCH   1   3
BRANCH   1  17
ATOM     17  C   UNL     1       2.763   3.244  17.047  0.00  0.00    +0.000 C 
BRANCH  17  18
ATOM     18  C   UNL     1       4.136   2.784  17.559  0.00  0.00    +0.000 C 
BRANCH  18  21
ATOM     19  O   UNL     1       4.952   5.315  18.304  0.00  0.00    +0.000 OA
ATOM     20  C   UNL     1       5.584   4.757  17.421  0.00  0.00    +0.000 C 
ATOM     21  N   UNL     1       5.241   3.501  16.971  0.00  0.00    +0.000 N 
ATOM     22  N   UNL     1       6.705   5.321  16.846  0.00  0.00    +0.000 N 
ATOM     23  H   UNL     1       5.801   3.012  16.289  0.00  0.00    +0.000 HD
BRANCH  22  24
ATOM     24  C   UNL     1       7.413   4.760  15.682  0.00  0.00    +0.000 C 
BRANCH  24  25
ATOM     25  C   UNL     1       6.563   4.745  14.409  0.00  0.00    +0.000 C 
BRANCH  25  26
ATOM     26  O   UNL     1       6.285   3.412  13.988  0.00  0.00    +0.000 OA
ATOM     27  H   UNL     1       6.850   3.244  13.213  0.00  0.00    +0.000 HD
ENDBRANCH  25  26
ENDBRANCH  24  25
ENDBRANCH  22  24
BRANCH  22  28
ATOM     28  C   UNL     1       7.058   6.703  17.241  0.00  0.00    +0.000 C 
BRANCH  28  29
ATOM     29  C   UNL     1       7.952   6.843  18.481  0.00  0.00    +0.000 C 
BRANCH  29  30
ATOM     30  O   UNL     1       8.531   8.144  18.536  0.00  0.00    +0.000 OA
ATOM     31  H   UNL     1       9.320   8.055  19.102  0.00  0.00    +0.000 HD
ENDBRANCH  29  30
ENDBRANCH  28  29
ENDBRANCH  22  28
ENDBRANCH  18  21
ENDBRANCH  17  18
ENDBRANCH   1  17
TORSDOF 16
ENDMDL
MODEL 3
REMARK VINA RESULT:      -5.7      2.618      6.973
REMARK  Name = 
REMARK  16 active torsions:
REMARK  status: ('A' for Active; 'I' for Inactive)
REMARK    1  A    between atoms: N_3  and  C_4
REMARK    2  A    between atoms: C_4  and  C_5
REMARK    3  A    between atoms: C_5  and  N_6
REMARK    4  A    between atoms: N_6  and  C_7
REMARK    5  A    between atoms: C_7  and  C_8
REMARK    6  A    between atoms: C_8  and  O_9
REMARK    7  A    between atoms: C_8  and  C_10
REMARK    8  A    between atoms: C_10  and  O_11
REMARK    9  A    between atoms: O_11  and  C_12
REMARK   10  A    between atoms: C_15  and  O_16
REMARK   11  A    between atoms: N_19  and  C_20
REMARK   12  A    between atoms: N_19  and  C_23
REMARK   13  A    between atoms: C_20  and  C_21
REMARK   14  A    between atoms: C_21  and  O_22
REMARK   15  A    between atoms: C_23  and  C_24
REMARK   16  A    between atoms: C_24  and  O_25
REMARK                            x       y       z     vdW  Elec       q    Type
REMARK                         _______ _______ _______ _____ _____    ______ ____
ROOT
ATOM      1  N   UNL     1       2.146   3.221  20.362  0.00  0.00    +0.000 NA
ATOM      2  H   UNL     1       2.316   2.770  21.264  0.00  0.00    +0.000 HD
ENDROOT
BRANCH   1   3
ATOM      3  C   UNL     1       1.523   2.243  19.457  0.00  0.00    +0.000 C 
BRANCH   3   4
ATOM      4  C   UNL     1       2.103   2.307  18.037  0.00  0.00    +0.000 C 
BRANCH   4   5
ATOM      5  O   UNL     1       1.560   3.467  17.374  0.00  0.00    +0.000 OA
ATOM      6  H   UNL     1       1.047   3.973  18.025  0.00  0.00    +0.000 HD
ENDBRANCH   4   5
BRANCH   4   7
ATOM      7  C   UNL     1       3.645   2.394  18.115  0.00  0.00    +0.000 C 
BRANCH   7   8
ATOM      8  O   UNL     1       4.032   3.764  18.194  0.00  0.00    +0.000 OA
BRANCH   8   9
ATOM      9  C   UNL     1       5.063   4.168  17.392  0.00  0.00    +0.000 A 
ATOM     10  C   UNL     1       4.730   4.283  16.038  0.00  0.00    +0.000 A 
ATOM     11  C   UNL     1       5.674   4.710  15.101  0.00  0.00    +0.000 A 
ATOM     12  C   UNL     1       6.951   5.046  15.530  0.00  0.00    +0.000 A 
ATOM     13  C   UNL     1       7.295   4.950  16.875  0.00  0.00    +0.000 A 
ATOM     14  C   UNL     1       6.352   4.504  17.810  0.00  0.00    +0.000 A 
BRANCH  12  15
ATOM     15  O   UNL     1       7.906   5.476  14.657  0.00  0.00    +0.000 OA
ATOM     16  H   UNL     1       8.779   5.231  15.007  0.00  0.00    +0.000 HD
ENDBRANCH  12  15
ENDBRANCH   8   9
ENDBRANCH   7   8
ENDBRANCH   4   7
ENDBRANCH   3   4
ENDBRANCH   1   3
BRANCH   1  17
ATOM     17  C   UNL     1       1.314   4.420  20.521  0.00  0.00    +0.000 C 
BRANCH  17  18
ATOM     18  C   UNL     1       2.132   5.708  20.695  0.00  0.00    +0.000 C 
BRANCH  18  21
ATOM     19  O   UNL     1       2.302   8.117  19.356  0.00  0.00    +0.000 OA
ATOM     20  C   UNL     1       1.471   8.026  20.245  0.00  0.00    +0.000 C 
ATOM     21  N   UNL     1       1.324   6.871  20.980  0.00  0.00    +0.000 N 
ATOM     22  N   UNL     1       0.596   9.050  20.546  0.00  0.00    +0.000 N 
ATOM     23  H   UNL     1       0.595   6.770  21.670  0.00  0.00    +0.000 HD
BRANCH  22  24
ATOM     24  C   UNL     1      -0.322   9.047  21.699  0.00  0.00    +0.000 C 
BRANCH  24  25
ATOM     25  C   UNL     1      -0.024  10.158  22.709  0.00  0.00    +0.000 C 
BRANCH  25  26
ATOM     26  O   UNL     1       0.449   9.624  23.942  0.00  0.00    +0.000 OA
ATOM     27  H   UNL     1       0.129  10.221  24.642  0.00  0.00    +0.000 HD
ENDBRANCH  25  26
ENDBRANCH  24  25
ENDBRANCH  22  24
BRANCH  22  28
ATOM     28  C   UNL     1       0.774  10.337  19.838  0.00  0.00    +0.000 C 
BRANCH  28  29
ATOM     29  C   UNL     1      -0.149  10.580  18.635  0.00  0.00    +0.000 C 
BRANCH  29  30
ATOM     30  O   UNL     1       0.158  11.825  18.013  0.00  0.00    +0.000 OA
ATOM     31  H   UNL     1       0.385  11.606  17.090  0.00  0.00    +0.000 HD
ENDBRANCH  29  30
ENDBRANCH  28  29
ENDBRANCH  22  28
ENDBRANCH  18  21
ENDBRANCH  17  18
ENDBRANCH   1  17
TORSDOF 16
ENDMDL
MODEL 4
REMARK VINA RESULT:      -5.7      2.656      7.069
REMARK  Name = 
REMARK  16 active torsions:
REMARK  status: ('A' for Active; 'I' for Inactive)
REMARK    1  A    between atoms: N_3  and  C_4
REMARK    2  A    between atoms: C_4  and  C_5
REMARK    3  A    between atoms: C_5  and  N_6
REMARK    4  A    between atoms: N_6  and  C_7
REMARK    5  A    between atoms: C_7  and  C_8
REMARK    6  A    between atoms: C_8  and  O_9
REMARK    7  A    between atoms: C_8  and  C_10
REMARK    8  A    between atoms: C_10  and  O_11
REMARK    9  A    between atoms: O_11  and  C_12
REMARK   10  A    between atoms: C_15  and  O_16
REMARK   11  A    between atoms: N_19  and  C_20
REMARK   12  A    between atoms: N_19  and  C_23
REMARK   13  A    between atoms: C_20  and  C_21
REMARK   14  A    between atoms: C_21  and  O_22
REMARK   15  A    between atoms: C_23  and  C_24
REMARK   16  A    between atoms: C_24  and  O_25
REMARK                            x       y       z     vdW  Elec       q    Type
REMARK                         _______ _______ _______ _____ _____    ______ ____
ROOT
ATOM      1  N   UNL     1       4.903   6.617  16.590  0.00  0.00    +0.000 NA
ATOM      2  H   UNL     1       4.832   7.238  15.781  0.00  0.00    +0.000 HD
ENDROOT
BRANCH   1   3
ATOM      3  C   UNL     1       6.315   6.248  16.777  0.00  0.00    +0.000 C 
BRANCH   3   4
ATOM      4  C   UNL     1       6.548   4.737  16.627  0.00  0.00    +0.000 C 
BRANCH   4   5
ATOM      5  O   UNL     1       7.023   4.222  17.888  0.00  0.00    +0.000 OA
ATOM      6  H   UNL     1       6.377   3.572  18.210  0.00  0.00    +0.000 HD
ENDBRANCH   4   5
BRANCH   4   7
ATOM      7  C   UNL     1       5.226   4.050  16.219  0.00  0.00    +0.000 C 
BRANCH   7   8
ATOM      8  O   UNL     1       4.896   3.059  17.190  0.00  0.00    +0.000 OA
BRANCH   8   9
ATOM      9  C   UNL     1       3.736   3.236  17.892  0.00  0.00    +0.000 A 
ATOM     10  C   UNL     1       3.911   3.360  19.274  0.00  0.00    +0.000 A 
ATOM     11  C   UNL     1       2.821   3.571  20.121  0.00  0.00    +0.000 A 
ATOM     12  C   UNL     1       1.549   3.681  19.572  0.00  0.00    +0.000 A 
ATOM     13  C   UNL     1       1.358   3.575  18.199  0.00  0.00    +0.000 A 
ATOM     14  C   UNL     1       2.452   3.345  17.354  0.00  0.00    +0.000 A 
BRANCH  12  15
ATOM     15  O   UNL     1       0.452   3.895  20.354  0.00  0.00    +0.000 OA
ATOM     16  H   UNL     1       0.519   4.783  20.744  0.00  0.00    +0.000 HD
ENDBRANCH  12  15
ENDBRANCH   8   9
ENDBRANCH   7   8
ENDBRANCH   4   7
ENDBRANCH   3   4
ENDBRANCH   1   3
BRANCH   1  17
ATOM     17  C   UNL     1       4.344   7.250  17.791  0.00  0.00    +0.000 C 
BRANCH  17  18
ATOM     18  C   UNL     1       2.857   6.936  18.007  0.00  0.00    +0.000 C 
BRANCH  18  21
ATOM     19  O   UNL     1       1.490   9.330  17.834  0.00  0.00    +0.000 OA
ATOM     20  C   UNL     1       1.597   8.822  18.939  0.00  0.00    +0.000 C 
ATOM     21  N   UNL     1       2.275   7.638  19.126  0.00  0.00    +0.000 N 
ATOM     22  N   UNL     1       1.013   9.369  20.063  0.00  0.00    +0.000 N 
ATOM     23  H   UNL     1       2.309   7.183  20.026  0.00  0.00    +0.000 HD
BRANCH  22  24
ATOM     24  C   UNL     1       1.233   8.881  21.435  0.00  0.00    +0.000 C 
BRANCH  24  25
ATOM     25  C   UNL     1       0.003   9.034  22.334  0.00  0.00    +0.000 C 
BRANCH  25  26
ATOM     26  O   UNL     1       0.242   9.966  23.385  0.00  0.00    +0.000 OA
ATOM     27  H   UNL     1       0.881   9.545  23.988  0.00  0.00    +0.000 HD
ENDBRANCH  25  26
ENDBRANCH  24  25
ENDBRANCH  22  24
BRANCH  22  28
ATOM     28  C   UNL     1       0.346  10.683  19.921  0.00  0.00    +0.000 C 
BRANCH  28  29
ATOM     29  C   UNL     1       1.179  11.910  20.317  0.00  0.00    +0.000 C 
BRANCH  29  30
ATOM     30  O   UNL     1       0.816  12.363  21.618  0.00  0.00    +0.000 OA
ATOM     31  H   UNL     1       1.491  11.999  22.219  0.00  0.00    +0.000 HD
ENDBRANCH  29  30
ENDBRANCH  28  29
ENDBRANCH  22  28
ENDBRANCH  18  21
ENDBRANCH  17  18
ENDBRANCH   1  17
TORSDOF 16
ENDMDL
MODEL 5
REMARK VINA RESULT:      -5.6      0.863      1.311
REMARK  Name = 
REMARK  16 active torsions:
REMARK  status: ('A' for Active; 'I' for Inactive)
REMARK    1  A    between atoms: N_3  and  C_4
REMARK    2  A    between atoms: C_4  and  C_5
REMARK    3  A    between atoms: C_5  and  N_6
REMARK    4  A    between atoms: N_6  and  C_7
REMARK    5  A    between atoms: C_7  and  C_8
REMARK    6  A    between atoms: C_8  and  O_9
REMARK    7  A    between atoms: C_8  and  C_10
REMARK    8  A    between atoms: C_10  and  O_11
REMARK    9  A    between atoms: O_11  and  C_12
REMARK   10  A    between atoms: C_15  and  O_16
REMARK   11  A    between atoms: N_19  and  C_20
REMARK   12  A    between atoms: N_19  and  C_23
REMARK   13  A    between atoms: C_20  and  C_21
REMARK   14  A    between atoms: C_21  and  O_22
REMARK   15  A    between atoms: C_23  and  C_24
REMARK   16  A    between atoms: C_24  and  O_25
REMARK                            x       y       z     vdW  Elec       q    Type
REMARK                         _______ _______ _______ _____ _____    ______ ____
ROOT
ATOM      1  N   UNL     1       2.032   3.229  18.438  0.00  0.00    +0.000 NA
ATOM      2  H   UNL     1       1.854   3.316  17.435  0.00  0.00    +0.000 HD
ENDROOT
BRANCH   1   3
ATOM      3  C   UNL     1       0.751   3.324  19.155  0.00  0.00    +0.000 C 
BRANCH   3   4
ATOM      4  C   UNL     1       0.893   4.021  20.516  0.00  0.00    +0.000 C 
BRANCH   4   5
ATOM      5  O   UNL     1       0.994   3.009  21.538  0.00  0.00    +0.000 OA
ATOM      6  H   UNL     1       1.811   3.166  22.039  0.00  0.00    +0.000 HD
ENDBRANCH   4   5
BRANCH   4   7
ATOM      7  C   UNL     1       2.154   4.916  20.507  0.00  0.00    +0.000 C 
BRANCH   7   8
ATOM      8  O   UNL     1       1.831   6.181  21.079  0.00  0.00    +0.000 OA
BRANCH   8   9
ATOM      9  C   UNL     1       1.800   7.257  20.235  0.00  0.00    +0.000 A 
ATOM     10  C   UNL     1       2.352   7.015  18.972  0.00  0.00    +0.000 A 
ATOM     11  C   UNL     1       2.369   8.012  17.994  0.00  0.00    +0.000 A 
ATOM     12  C   UNL     1       1.807   9.250  18.278  0.00  0.00    +0.000 A 
ATOM     13  C   UNL     1       1.242   9.503  19.523  0.00  0.00    +0.000 A 
ATOM     14  C   UNL     1       1.242   8.507  20.509  0.00  0.00    +0.000 A 
BRANCH  12  15
ATOM     15  O   UNL     1       1.791  10.254  17.355  0.00  0.00    +0.000 OA
ATOM     16  H   UNL     1       2.680  10.643  17.305  0.00  0.00    +0.000 HD
ENDBRANCH  12  15
ENDBRANCH   8   9
ENDBRANCH   7   8
ENDBRANCH   4   7
ENDBRANCH   3   4
ENDBRANCH   1   3
BRANCH   1  17
ATOM     17  C   UNL     1       2.731   1.974  18.743  0.00  0.00    +0.000 C 
BRANCH  17  18
ATOM     18  C   UNL     1       3.948   1.722  17.841  0.00  0.00    +0.000 C 
BRANCH  18  21
ATOM     19  O   UNL     1       5.144   3.745  19.290  0.00  0.00    +0.000 OA
ATOM     20  C   UNL     1       5.097   3.874  18.077  0.00  0.00    +0.000 C 
ATOM     21  N   UNL     1       4.506   2.926  17.273  0.00  0.00    +0.000 N 
ATOM     22  N   UNL     1       5.668   4.949  17.426  0.00  0.00    +0.000 N 
ATOM     23  H   UNL     1       4.524   2.998  16.267  0.00  0.00    +0.000 HD
BRANCH  22  24
ATOM     24  C   UNL     1       5.514   5.227  15.987  0.00  0.00    +0.000 C 
BRANCH  24  25
ATOM     25  C   UNL     1       6.623   4.610  15.131  0.00  0.00    +0.000 C 
BRANCH  25  26
ATOM     26  O   UNL     1       6.260   3.312  14.669  0.00  0.00    +0.000 OA
ATOM     27  H   UNL     1       5.394   3.406  14.234  0.00  0.00    +0.000 HD
ENDBRANCH  25  26
ENDBRANCH  24  25
ENDBRANCH  22  24
BRANCH  22  28
ATOM     28  C   UNL     1       6.241   6.031  18.257  0.00  0.00    +0.000 C 
BRANCH  28  29
ATOM     29  C   UNL     1       7.658   5.793  18.795  0.00  0.00    +0.000 C 
BRANCH  29  30
ATOM     30  O   UNL     1       8.150   4.526  18.367  0.00  0.00    +0.000 OA
ATOM     31  H   UNL     1       8.007   4.503  17.402  0.00  0.00    +0.000 HD
ENDBRANCH  29  30
ENDBRANCH  28  29
ENDBRANCH  22  28
ENDBRANCH  18  21
ENDBRANCH  17  18
ENDBRANCH   1  17
TORSDOF 16
ENDMDL
MODEL 6
REMARK VINA RESULT:      -5.6      2.959      6.912
REMARK  Name = 
REMARK  16 active torsions:
REMARK  status: ('A' for Active; 'I' for Inactive)
REMARK    1  A    between atoms: N_3  and  C_4
REMARK    2  A    between atoms: C_4  and  C_5
REMARK    3  A    between atoms: C_5  and  N_6
REMARK    4  A    between atoms: N_6  and  C_7
REMARK    5  A    between atoms: C_7  and  C_8
REMARK    6  A    between atoms: C_8  and  O_9
REMARK    7  A    between atoms: C_8  and  C_10
REMARK    8  A    between atoms: C_10  and  O_11
REMARK    9  A    between atoms: O_11  and  C_12
REMARK   10  A    between atoms: C_15  and  O_16
REMARK   11  A    between atoms: N_19  and  C_20
REMARK   12  A    between atoms: N_19  and  C_23
REMARK   13  A    between atoms: C_20  and  C_21
REMARK   14  A    between atoms: C_21  and  O_22
REMARK   15  A    between atoms: C_23  and  C_24
REMARK   16  A    between atoms: C_24  and  O_25
REMARK                            x       y       z     vdW  Elec       q    Type
REMARK                         _______ _______ _______ _____ _____    ______ ____
ROOT
ATOM      1  N   UNL     1       1.670   3.786  19.833  0.00  0.00    +0.000 NA
ATOM      2  H   UNL     1       1.639   4.134  18.872  0.00  0.00    +0.000 HD
ENDROOT
BRANCH   1   3
ATOM      3  C   UNL     1       2.871   2.952  19.995  0.00  0.00    +0.000 C 
BRANCH   3   4
ATOM      4  C   UNL     1       3.045   1.949  18.845  0.00  0.00    +0.000 C 
BRANCH   4   5
ATOM      5  O   UNL     1       1.739   1.496  18.433  0.00  0.00    +0.000 OA
ATOM      6  H   UNL     1       1.425   0.849  19.085  0.00  0.00    +0.000 HD
ENDBRANCH   4   5
BRANCH   4   7
ATOM      7  C   UNL     1       3.781   2.634  17.672  0.00  0.00    +0.000 C 
BRANCH   7   8
ATOM      8  O   UNL     1       3.471   4.025  17.674  0.00  0.00    +0.000 OA
BRANCH   8   9
ATOM      9  C   UNL     1       4.501   4.895  17.450  0.00  0.00    +0.000 A 
ATOM     10  C   UNL     1       5.770   4.307  17.487  0.00  0.00    +0.000 A 
ATOM     11  C   UNL     1       6.920   5.065  17.251  0.00  0.00    +0.000 A 
ATOM     12  C   UNL     1       6.792   6.416  16.953  0.00  0.00    +0.000 A 
ATOM     13  C   UNL     1       5.537   7.013  16.899  0.00  0.00    +0.000 A 
ATOM     14  C   UNL     1       4.387   6.255  17.153  0.00  0.00    +0.000 A 
BRANCH  12  15
ATOM     15  O   UNL     1       7.881   7.197  16.707  0.00  0.00    +0.000 OA
ATOM     16  H   UNL     1       8.175   7.041  15.794  0.00  0.00    +0.000 HD
ENDBRANCH  12  15
ENDBRANCH   8   9
ENDBRANCH   7   8
ENDBRANCH   4   7
ENDBRANCH   3   4
ENDBRANCH   1   3
BRANCH   1  17
ATOM     17  C   UNL     1       1.646   4.894  20.796  0.00  0.00    +0.000 C 
BRANCH  17  18
ATOM     18  C   UNL     1       2.211   6.204  20.230  0.00  0.00    +0.000 C 
BRANCH  18  21
ATOM     19  O   UNL     1       1.534   8.574  18.983  0.00  0.00    +0.000 OA
ATOM     20  C   UNL     1       1.396   8.516  20.194  0.00  0.00    +0.000 C 
ATOM     21  N   UNL     1       1.723   7.383  20.905  0.00  0.00    +0.000 N 
ATOM     22  N   UNL     1       0.865   9.558  20.928  0.00  0.00    +0.000 N 
ATOM     23  H   UNL     1       1.549   7.310  21.896  0.00  0.00    +0.000 HD
BRANCH  22  24
ATOM     24  C   UNL     1       0.814   9.597  22.400  0.00  0.00    +0.000 C 
BRANCH  24  25
ATOM     25  C   UNL     1      -0.580   9.911  22.947  0.00  0.00    +0.000 C 
BRANCH  25  26
ATOM     26  O   UNL     1      -0.681  11.272  23.357  0.00  0.00    +0.000 OA
ATOM     27  H   UNL     1      -0.070  11.380  24.108  0.00  0.00    +0.000 HD
ENDBRANCH  25  26
ENDBRANCH  24  25
ENDBRANCH  22  24
BRANCH  22  28
ATOM     28  C   UNL     1       0.578  10.823  20.216  0.00  0.00    +0.000 C 
BRANCH  28  29
ATOM     29  C   UNL     1       1.487  12.012  20.557  0.00  0.00    +0.000 C 
BRANCH  29  30
ATOM     30  O   UNL     1       0.854  12.871  21.502  0.00  0.00    +0.000 OA
ATOM     31  H   UNL     1      -0.077  12.927  21.220  0.00  0.00    +0.000 HD
ENDBRANCH  29  30
ENDBRANCH  28  29
ENDBRANCH  22  28
ENDBRANCH  18  21
ENDBRANCH  17  18
ENDBRANCH   1  17
TORSDOF 16
ENDMDL
MODEL 7
REMARK VINA RESULT:      -5.6      3.018      7.719
REMARK  Name = 
REMARK  16 active torsions:
REMARK  status: ('A' for Active; 'I' for Inactive)
REMARK    1  A    between atoms: N_3  and  C_4
REMARK    2  A    between atoms: C_4  and  C_5
REMARK    3  A    between atoms: C_5  and  N_6
REMARK    4  A    between atoms: N_6  and  C_7
REMARK    5  A    between atoms: C_7  and  C_8
REMARK    6  A    between atoms: C_8  and  O_9
REMARK    7  A    between atoms: C_8  and  C_10
REMARK    8  A    between atoms: C_10  and  O_11
REMARK    9  A    between atoms: O_11  and  C_12
REMARK   10  A    between atoms: C_15  and  O_16
REMARK   11  A    between atoms: N_19  and  C_20
REMARK   12  A    between atoms: N_19  and  C_23
REMARK   13  A    between atoms: C_20  and  C_21
REMARK   14  A    between atoms: C_21  and  O_22
REMARK   15  A    between atoms: C_23  and  C_24
REMARK   16  A    between atoms: C_24  and  O_25
REMARK                            x       y       z     vdW  Elec       q    Type
REMARK                         _______ _______ _______ _____ _____    ______ ____
ROOT
ATOM      1  N   UNL     1       4.475   6.674  17.896  0.00  0.00    +0.000 NA
ATOM      2  H   UNL     1       4.705   5.782  18.341  0.00  0.00    +0.000 HD
ENDROOT
BRANCH   1   3
ATOM      3  C   UNL     1       4.921   6.630  16.495  0.00  0.00    +0.000 C 
BRANCH   3   4
ATOM      4  C   UNL     1       5.880   5.461  16.223  0.00  0.00    +0.000 C 
BRANCH   4   5
ATOM      5  O   UNL     1       7.212   5.990  16.067  0.00  0.00    +0.000 OA
ATOM      6  H   UNL     1       7.138   6.940  15.879  0.00  0.00    +0.000 HD
ENDBRANCH   4   5
BRANCH   4   7
ATOM      7  C   UNL     1       5.823   4.464  17.402  0.00  0.00    +0.000 C 
BRANCH   7   8
ATOM      8  O   UNL     1       4.794   3.508  17.156  0.00  0.00    +0.000 OA
BRANCH   8   9
ATOM      9  C   UNL     1       3.793   3.416  18.082  0.00  0.00    +0.000 A 
ATOM     10  C   UNL     1       2.505   3.372  17.537  0.00  0.00    +0.000 A 
ATOM     11  C   UNL     1       1.381   3.253  18.358  0.00  0.00    +0.000 A 
ATOM     12  C   UNL     1       1.554   3.153  19.733  0.00  0.00    +0.000 A 
ATOM     13  C   UNL     1       2.828   3.180  20.291  0.00  0.00    +0.000 A 
ATOM     14  C   UNL     1       3.952   3.318  19.466  0.00  0.00    +0.000 A 
BRANCH  12  15
ATOM     15  O   UNL     1       0.491   3.026  20.577  0.00  0.00    +0.000 OA
ATOM     16  H   UNL     1       0.084   3.901  20.695  0.00  0.00    +0.000 HD
ENDBRANCH  12  15
ENDBRANCH   8   9
ENDBRANCH   7   8
ENDBRANCH   4   7
ENDBRANCH   3   4
ENDBRANCH   1   3
BRANCH   1  17
ATOM     17  C   UNL     1       3.039   6.960  17.999  0.00  0.00    +0.000 C 
BRANCH  17  18
ATOM     18  C   UNL     1       2.710   8.458  17.920  0.00  0.00    +0.000 C 
BRANCH  18  21
ATOM     19  O   UNL     1       1.597  10.983  18.021  0.00  0.00    +0.000 OA
ATOM     20  C   UNL     1       1.188  10.156  18.820  0.00  0.00    +0.000 C 
ATOM     21  N   UNL     1       1.695   8.876  18.857  0.00  0.00    +0.000 N 
ATOM     22  N   UNL     1       0.166  10.428  19.707  0.00  0.00    +0.000 N 
ATOM     23  H   UNL     1       1.313   8.172  19.471  0.00  0.00    +0.000 HD
BRANCH  22  24
ATOM     24  C   UNL     1      -0.262   9.520  20.785  0.00  0.00    +0.000 C 
BRANCH  24  25
ATOM     25  C   UNL     1      -0.088  10.119  22.183  0.00  0.00    +0.000 C 
BRANCH  25  26
ATOM     26  O   UNL     1      -0.798   9.366  23.162  0.00  0.00    +0.000 OA
ATOM     27  H   UNL     1      -0.501   9.692  24.031  0.00  0.00    +0.000 HD
ENDBRANCH  25  26
ENDBRANCH  24  25
ENDBRANCH  22  24
BRANCH  22  28
ATOM     28  C   UNL     1      -0.349  11.814  19.758  0.00  0.00    +0.000 C 
BRANCH  28  29
ATOM     29  C   UNL     1      -1.506  12.141  18.804  0.00  0.00    +0.000 C 
BRANCH  29  30
ATOM     30  O   UNL     1      -1.020  12.776  17.625  0.00  0.00    +0.000 OA
ATOM     31  H   UNL     1      -1.811  13.108  17.162  0.00  0.00    +0.000 HD
ENDBRANCH  29  30
ENDBRANCH  28  29
ENDBRANCH  22  28
ENDBRANCH  18  21
ENDBRANCH  17  18
ENDBRANCH   1  17
TORSDOF 16
ENDMDL
MODEL 8
REMARK VINA RESULT:      -5.6      1.501      2.528
REMARK  Name = 
REMARK  16 active torsions:
REMARK  status: ('A' for Active; 'I' for Inactive)
REMARK    1  A    between atoms: N_3  and  C_4
REMARK    2  A    between atoms: C_4  and  C_5
REMARK    3  A    between atoms: C_5  and  N_6
REMARK    4  A    between atoms: N_6  and  C_7
REMARK    5  A    between atoms: C_7  and  C_8
REMARK    6  A    between atoms: C_8  and  O_9
REMARK    7  A    between atoms: C_8  and  C_10
REMARK    8  A    between atoms: C_10  and  O_11
REMARK    9  A    between atoms: O_11  and  C_12
REMARK   10  A    between atoms: C_15  and  O_16
REMARK   11  A    between atoms: N_19  and  C_20
REMARK   12  A    between atoms: N_19  and  C_23
REMARK   13  A    between atoms: C_20  and  C_21
REMARK   14  A    between atoms: C_21  and  O_22
REMARK   15  A    between atoms: C_23  and  C_24
REMARK   16  A    between atoms: C_24  and  O_25
REMARK                            x       y       z     vdW  Elec       q    Type
REMARK                         _______ _______ _______ _____ _____    ______ ____
ROOT
ATOM      1  N   UNL     1       1.714   3.279  18.580  0.00  0.00    +0.000 NA
ATOM      2  H   UNL     1       1.103   3.749  17.909  0.00  0.00    +0.000 HD
ENDROOT
BRANCH   1   3
ATOM      3  C   UNL     1       0.989   3.126  19.850  0.00  0.00    +0.000 C 
BRANCH   3   4
ATOM      4  C   UNL     1       1.586   3.991  20.971  0.00  0.00    +0.000 C 
BRANCH   4   5
ATOM      5  O   UNL     1       3.021   3.859  20.934  0.00  0.00    +0.000 OA
ATOM      6  H   UNL     1       3.237   3.058  20.429  0.00  0.00    +0.000 HD
ENDBRANCH   4   5
BRANCH   4   7
ATOM      7  C   UNL     1       1.167   5.464  20.762  0.00  0.00    +0.000 C 
BRANCH   7   8
ATOM      8  O   UNL     1       2.257   6.183  20.190  0.00  0.00    +0.000 OA
BRANCH   8   9
ATOM      9  C   UNL     1       2.010   7.460  19.769  0.00  0.00    +0.000 A 
ATOM     10  C   UNL     1       2.447   7.732  18.468  0.00  0.00    +0.000 A 
ATOM     11  C   UNL     1       2.242   8.987  17.890  0.00  0.00    +0.000 A 
ATOM     12  C   UNL     1       1.574   9.966  18.616  0.00  0.00    +0.000 A 
ATOM     13  C   UNL     1       1.121   9.708  19.905  0.00  0.00    +0.000 A 
ATOM     14  C   UNL     1       1.344   8.454  20.488  0.00  0.00    +0.000 A 
BRANCH  12  15
ATOM     15  O   UNL     1       1.341  11.204  18.094  0.00  0.00    +0.000 OA
ATOM     16  H   UNL     1       0.864  11.102  17.254  0.00  0.00    +0.000 HD
ENDBRANCH  12  15
ENDBRANCH   8   9
ENDBRANCH   7   8
ENDBRANCH   4   7
ENDBRANCH   3   4
ENDBRANCH   1   3
BRANCH   1  17
ATOM     17  C   UNL     1       2.173   1.985  18.058  0.00  0.00    +0.000 C 
BRANCH  17  18
ATOM     18  C   UNL     1       3.701   1.831  18.072  0.00  0.00    +0.000 C 
BRANCH  18  21
ATOM     19  O   UNL     1       4.105   4.060  16.492  0.00  0.00    +0.000 OA
ATOM     20  C   UNL     1       4.536   4.094  17.634  0.00  0.00    +0.000 C 
ATOM     21  N   UNL     1       4.397   3.024  18.489  0.00  0.00    +0.000 N 
ATOM     22  N   UNL     1       5.149   5.214  18.159  0.00  0.00    +0.000 N 
ATOM     23  H   UNL     1       4.694   3.074  19.453  0.00  0.00    +0.000 HD
BRANCH  22  24
ATOM     24  C   UNL     1       5.814   5.258  19.473  0.00  0.00    +0.000 C 
BRANCH  24  25
ATOM     25  C   UNL     1       7.328   5.463  19.375  0.00  0.00    +0.000 C 
BRANCH  25  26
ATOM     26  O   UNL     1       7.954   5.318  20.647  0.00  0.00    +0.000 OA
ATOM     27  H   UNL     1       8.913   5.284  20.481  0.00  0.00    +0.000 HD
ENDBRANCH  25  26
ENDBRANCH  24  25
ENDBRANCH  22  24
BRANCH  22  28
ATOM     28  C   UNL     1       5.393   6.355  17.248  0.00  0.00    +0.000 C 
BRANCH  28  29
ATOM     29  C   UNL     1       6.207   6.048  15.984  0.00  0.00    +0.000 C 
BRANCH  29  30
ATOM     30  O   UNL     1       7.573   6.407  16.169  0.00  0.00    +0.000 OA
ATOM     31  H   UNL     1       8.037   6.087  15.373  0.00  0.00    +0.000 HD
ENDBRANCH  29  30
ENDBRANCH  28  29
ENDBRANCH  22  28
ENDBRANCH  18  21
ENDBRANCH  17  18
ENDBRANCH   1  17
TORSDOF 16
ENDMDL
MODEL 9
REMARK VINA RESULT:      -5.5      1.295      2.517
REMARK  Name = 
REMARK  16 active torsions:
REMARK  status: ('A' for Active; 'I' for Inactive)
REMARK    1  A    between atoms: N_3  and  C_4
REMARK    2  A    between atoms: C_4  and  C_5
REMARK    3  A    between atoms: C_5  and  N_6
REMARK    4  A    between atoms: N_6  and  C_7
REMARK    5  A    between atoms: C_7  and  C_8
REMARK    6  A    between atoms: C_8  and  O_9
REMARK    7  A    between atoms: C_8  and  C_10
REMARK    8  A    between atoms: C_10  and  O_11
REMARK    9  A    between atoms: O_11  and  C_12
REMARK   10  A    between atoms: C_15  and  O_16
REMARK   11  A    between atoms: N_19  and  C_20
REMARK   12  A    between atoms: N_19  and  C_23
REMARK   13  A    between atoms: C_20  and  C_21
REMARK   14  A    between atoms: C_21  and  O_22
REMARK   15  A    between atoms: C_23  and  C_24
REMARK   16  A    between atoms: C_24  and  O_25
REMARK                            x       y       z     vdW  Elec       q    Type
REMARK                         _______ _______ _______ _____ _____    ______ ____
ROOT
ATOM      1  N   UNL     1       3.468   2.517  19.097  0.00  0.00    +0.000 NA
ATOM      2  H   UNL     1       4.323   3.055  18.940  0.00  0.00    +0.000 HD
ENDROOT
BRANCH   1   3
ATOM      3  C   UNL     1       2.970   2.809  20.450  0.00  0.00    +0.000 C 
BRANCH   3   4
ATOM      4  C   UNL     1       1.629   3.556  20.431  0.00  0.00    +0.000 C 
BRANCH   4   5
ATOM      5  O   UNL     1       0.688   2.825  21.243  0.00  0.00    +0.000 OA
ATOM      6  H   UNL     1      -0.045   2.541  20.673  0.00  0.00    +0.000 HD
ENDBRANCH   4   5
BRANCH   4   7
ATOM      7  C   UNL     1       1.829   4.987  20.980  0.00  0.00    +0.000 C 
BRANCH   7   8
ATOM      8  O   UNL     1       2.813   5.655  20.194  0.00  0.00    +0.000 OA
BRANCH   8   9
ATOM      9  C   UNL     1       2.453   6.841  19.618  0.00  0.00    +0.000 A 
ATOM     10  C   UNL     1       2.807   6.959  18.270  0.00  0.00    +0.000 A 
ATOM     11  C   UNL     1       2.483   8.105  17.540  0.00  0.00    +0.000 A 
ATOM     12  C   UNL     1       1.778   9.128  18.162  0.00  0.00    +0.000 A 
ATOM     13  C   UNL     1       1.405   9.021  19.498  0.00  0.00    +0.000 A 
ATOM     14  C   UNL     1       1.747   7.878  20.232  0.00  0.00    +0.000 A 
BRANCH  12  15
ATOM     15  O   UNL     1       1.429  10.263  17.492  0.00  0.00    +0.000 OA
ATOM     16  H   UNL     1       1.596  11.027  18.069  0.00  0.00    +0.000 HD
ENDBRANCH  12  15
ENDBRANCH   8   9
ENDBRANCH   7   8
ENDBRANCH   4   7
ENDBRANCH   3   4
ENDBRANCH   1   3
BRANCH   1  17
ATOM     17  C   UNL     1       2.460   2.815  18.072  0.00  0.00    +0.000 C 
BRANCH  17  18
ATOM     18  C   UNL     1       3.067   3.280  16.740  0.00  0.00    +0.000 C 
BRANCH  18  21
ATOM     19  O   UNL     1       5.411   3.240  15.281  0.00  0.00    +0.000 OA
ATOM     20  C   UNL     1       5.279   4.127  16.109  0.00  0.00    +0.000 C 
ATOM     21  N   UNL     1       4.153   4.218  16.896  0.00  0.00    +0.000 N 
ATOM     22  N   UNL     1       6.222   5.120  16.285  0.00  0.00    +0.000 N 
ATOM     23  H   UNL     1       4.013   4.987  17.534  0.00  0.00    +0.000 HD
BRANCH  22  24
ATOM     24  C   UNL     1       6.182   6.122  17.364  0.00  0.00    +0.000 C 
BRANCH  24  25
ATOM     25  C   UNL     1       6.628   5.566  18.720  0.00  0.00    +0.000 C 
BRANCH  25  26
ATOM     26  O   UNL     1       5.516   5.112  19.485  0.00  0.00    +0.000 OA
ATOM     27  H   UNL     1       5.882   4.581  20.215  0.00  0.00    +0.000 HD
ENDBRANCH  25  26
ENDBRANCH  24  25
ENDBRANCH  22  24
BRANCH  22  28
ATOM     28  C   UNL     1       7.484   5.012  15.520  0.00  0.00    +0.000 C 
BRANCH  28  29
ATOM     29  C   UNL     1       7.362   5.138  13.995  0.00  0.00    +0.000 C 
BRANCH  29  30
ATOM     30  O   UNL     1       8.492   5.819  13.456  0.00  0.00    +0.000 OA
ATOM     31  H   UNL     1       8.501   6.692  13.889  0.00  0.00    +0.000 HD
ENDBRANCH  29  30
ENDBRANCH  28  29
ENDBRANCH  22  28
ENDBRANCH  18  21
ENDBRANCH  17  18
ENDBRANCH   1  17
TORSDOF 16
ENDMDL
