MODEL 1
REMARK VINA RESULT:      -7.7      0.000      0.000
REMARK  Name = 
REMARK  2 active torsions:
REMARK  status: ('A' for Active; 'I' for Inactive)
REMARK    1  A    between atoms: C_4  and  C_5
REMARK    2  A    between atoms: C_17  and  C_18
REMARK                            x       y       z     vdW  Elec       q    Type
REMARK                         _______ _______ _______ _____ _____    ______ ____
ROOT
ATOM      1  O   UNL     1       1.277   7.944  21.222  0.00  0.00    +0.000 OA
ATOM      2  C   UNL     1       1.392   8.498  20.131  0.00  0.00    +0.000 C 
ATOM      3  C   UNL     1       2.126   7.845  18.998  0.00  0.00    +0.000 C 
ATOM      4  C   UNL     1       2.832   6.732  19.280  0.00  0.00    +0.000 C 
ATOM      5  C   UNL     1       2.023   8.491  17.652  0.00  0.00    +0.000 C 
ATOM      6  N   UNL     1       2.026   9.945  17.755  0.00  0.00    +0.000 NA
ATOM      7  C   UNL     1       0.831  10.377  18.473  0.00  0.00    +0.000 C 
ATOM      8  C   UNL     1       0.793   9.848  19.873  0.00  0.00    +0.000 C 
ATOM      9  C   UNL     1       0.260  10.496  20.929  0.00  0.00    +0.000 C 
ATOM     10  H   UNL     1       2.014  10.346  16.818  0.00  0.00    +0.000 HD
ENDROOT
BRANCH   4  11
ATOM     11  C   UNL     1       3.610   5.986  18.286  0.00  0.00    +0.000 A 
ATOM     12  C   UNL     1       3.081   4.826  17.712  0.00  0.00    +0.000 A 
ATOM     13  C   UNL     1       3.839   4.081  16.806  0.00  0.00    +0.000 A 
ATOM     14  C   UNL     1       5.129   4.492  16.465  0.00  0.00    +0.000 A 
ATOM     15 CL   UNL     1       6.020   3.512  15.356  0.00  0.00    +0.000 Cl
ATOM     16  C   UNL     1       5.659   5.660  17.027  0.00  0.00    +0.000 A 
ATOM     17 CL   UNL     1       7.246   6.230  16.653  0.00  0.00    +0.000 Cl
ATOM     18  C   UNL     1       4.898   6.404  17.937  0.00  0.00    +0.000 A 
ENDBRANCH   4  11
BRANCH   9  19
ATOM     19  C   UNL     1      -0.388  11.807  20.852  0.00  0.00    +0.000 A 
ATOM     20  C   UNL     1       0.363  12.976  21.014  0.00  0.00    +0.000 A 
ATOM     21  C   UNL     1      -0.258  14.226  20.935  0.00  0.00    +0.000 A 
ATOM     22  C   UNL     1      -1.632  14.315  20.696  0.00  0.00    +0.000 A 
ATOM     23 CL   UNL     1      -2.335  15.892  20.621  0.00  0.00    +0.000 Cl
ATOM     24  C   UNL     1      -2.385  13.147  20.527  0.00  0.00    +0.000 A 
ATOM     25 CL   UNL     1      -4.085  13.179  20.219  0.00  0.00    +0.000 Cl
ATOM     26  C   UNL     1      -1.762  11.897  20.605  0.00  0.00    +0.000 A 
ENDBRANCH   9  19
TORSDOF 2
ENDMDL
MODEL 2
REMARK VINA RESULT:      -7.6      2.338      2.888
REMARK  Name = 
REMARK  2 active torsions:
REMARK  status: ('A' for Active; 'I' for Inactive)
REMARK    1  A    between atoms: C_4  and  C_5
REMARK    2  A    between atoms: C_17  and  C_18
REMARK                            x       y       z     vdW  Elec       q    Type
REMARK                         _______ _______ _______ _____ _____    ______ ____
ROOT
ATOM      1  O   UNL     1       1.714   9.788  17.599  0.00  0.00    +0.000 OA
ATOM      2  C   UNL     1       1.564   9.298  18.716  0.00  0.00    +0.000 C 
ATOM      3  C   UNL     1       1.939   7.873  18.999  0.00  0.00    +0.000 C 
ATOM      4  C   UNL     1       2.243   7.093  17.943  0.00  0.00    +0.000 C 
ATOM      5  C   UNL     1       1.930   7.435  20.430  0.00  0.00    +0.000 C 
ATOM      6  N   UNL     1       0.828   8.039  21.168  0.00  0.00    +0.000 NA
ATOM      7  C   UNL     1       1.021   9.485  21.219  0.00  0.00    +0.000 C 
ATOM      8  C   UNL     1       1.013  10.103  19.855  0.00  0.00    +0.000 C 
ATOM      9  C   UNL     1       0.543  11.333  19.566  0.00  0.00    +0.000 C 
ATOM     10  H   UNL     1       0.822   7.672  22.119  0.00  0.00    +0.000 HD
ENDROOT
BRANCH   4  11
ATOM     11  C   UNL     1       2.617   5.680  18.054  0.00  0.00    +0.000 A 
ATOM     12  C   UNL     1       3.947   5.293  17.865  0.00  0.00    +0.000 A 
ATOM     13  C   UNL     1       4.300   3.942  17.915  0.00  0.00    +0.000 A 
ATOM     14  C   UNL     1       3.327   2.970  18.158  0.00  0.00    +0.000 A 
ATOM     15 CL   UNL     1       3.829   1.318  18.183  0.00  0.00    +0.000 Cl
ATOM     16  C   UNL     1       1.995   3.354  18.359  0.00  0.00    +0.000 A 
ATOM     17 CL   UNL     1       0.738   2.209  18.663  0.00  0.00    +0.000 Cl
ATOM     18  C   UNL     1       1.644   4.708  18.307  0.00  0.00    +0.000 A 
ENDBRANCH   4  11
BRANCH   9  19
ATOM     19  C   UNL     1      -0.004  12.261  20.559  0.00  0.00    +0.000 A 
ATOM     20  C   UNL     1       0.786  13.296  21.069  0.00  0.00    +0.000 A 
ATOM     21  C   UNL     1       0.259  14.182  22.014  0.00  0.00    +0.000 A 
ATOM     22  C   UNL     1      -1.059  14.038  22.454  0.00  0.00    +0.000 A 
ATOM     23 CL   UNL     1      -1.643  15.163  23.629  0.00  0.00    +0.000 Cl
ATOM     24  C   UNL     1      -1.855  13.008  21.940  0.00  0.00    +0.000 A 
ATOM     25 CL   UNL     1      -3.496  12.774  22.429  0.00  0.00    +0.000 Cl
ATOM     26  C   UNL     1      -1.327  12.122  20.994  0.00  0.00    +0.000 A 
ENDBRANCH   9  19
TORSDOF 2
ENDMDL
MODEL 3
REMARK VINA RESULT:      -7.6      0.659      1.474
REMARK  Name = 
REMARK  2 active torsions:
REMARK  status: ('A' for Active; 'I' for Inactive)
REMARK    1  A    between atoms: C_4  and  C_5
REMARK    2  A    between atoms: C_17  and  C_18
REMARK                            x       y       z     vdW  Elec       q    Type
REMARK                         _______ _______ _______ _____ _____    ______ ____
ROOT
ATOM      1  O   UNL     1       1.221   7.983  21.220  0.00  0.00    +0.000 OA
ATOM      2  C   UNL     1       1.364   8.542  20.135  0.00  0.00    +0.000 C 
ATOM      3  C   UNL     1       2.108   7.885  19.011  0.00  0.00    +0.000 C 
ATOM      4  C   UNL     1       2.793   6.760  19.298  0.00  0.00    +0.000 C 
ATOM      5  C   UNL     1       2.038   8.541  17.668  0.00  0.00    +0.000 C 
ATOM      6  N   UNL     1       2.061   9.994  17.780  0.00  0.00    +0.000 NA
ATOM      7  C   UNL     1       0.860  10.439  18.479  0.00  0.00    +0.000 C 
ATOM      8  C   UNL     1       0.788   9.902  19.875  0.00  0.00    +0.000 C 
ATOM      9  C   UNL     1       0.247  10.551  20.926  0.00  0.00    +0.000 C 
ATOM     10  H   UNL     1       2.071  10.400  16.845  0.00  0.00    +0.000 HD
ENDROOT
BRANCH   4  11
ATOM     11  C   UNL     1       3.578   6.009  18.314  0.00  0.00    +0.000 A 
ATOM     12  C   UNL     1       3.044   4.857  17.729  0.00  0.00    +0.000 A 
ATOM     13  C   UNL     1       3.809   4.106  16.831  0.00  0.00    +0.000 A 
ATOM     14  C   UNL     1       5.108   4.504  16.511  0.00  0.00    +0.000 A 
ATOM     15 CL   UNL     1       6.004   3.518  15.412  0.00  0.00    +0.000 Cl
ATOM     16  C   UNL     1       5.642   5.665  17.085  0.00  0.00    +0.000 A 
ATOM     17 CL   UNL     1       7.241   6.218  16.737  0.00  0.00    +0.000 Cl
ATOM     18  C   UNL     1       4.876   6.414  17.986  0.00  0.00    +0.000 A 
ENDBRANCH   4  11
BRANCH   9  19
ATOM     19  C   UNL     1      -0.381  11.872  20.845  0.00  0.00    +0.000 A 
ATOM     20  C   UNL     1      -1.712  11.997  20.436  0.00  0.00    +0.000 A 
ATOM     21  C   UNL     1      -2.309  13.260  20.365  0.00  0.00    +0.000 A 
ATOM     22  C   UNL     1      -1.579  14.403  20.700  0.00  0.00    +0.000 A 
ATOM     23 CL   UNL     1      -2.377  15.931  20.580  0.00  0.00    +0.000 Cl
ATOM     24  C   UNL     1      -0.249  14.281  21.116  0.00  0.00    +0.000 A 
ATOM     25 CL   UNL     1       0.713  15.647  21.557  0.00  0.00    +0.000 Cl
ATOM     26  C   UNL     1       0.348  13.017  21.189  0.00  0.00    +0.000 A 
ENDBRANCH   9  19
TORSDOF 2
ENDMDL
MODEL 4
REMARK VINA RESULT:      -7.5      2.300      2.811
REMARK  Name = 
REMARK  2 active torsions:
REMARK  status: ('A' for Active; 'I' for Inactive)
REMARK    1  A    between atoms: C_4  and  C_5
REMARK    2  A    between atoms: C_17  and  C_18
REMARK                            x       y       z     vdW  Elec       q    Type
REMARK                         _______ _______ _______ _____ _____    ______ ____
ROOT
ATOM      1  O   UNL     1       1.869   9.730  17.368  0.00  0.00    +0.000 OA
ATOM      2  C   UNL     1       1.566   9.400  18.512  0.00  0.00    +0.000 C 
ATOM      3  C   UNL     1       1.983   8.076  19.079  0.00  0.00    +0.000 C 
ATOM      4  C   UNL     1       2.516   7.179  18.225  0.00  0.00    +0.000 C 
ATOM      5  C   UNL     1       1.762   7.858  20.543  0.00  0.00    +0.000 C 
ATOM      6  N   UNL     1       0.513   8.459  20.991  0.00  0.00    +0.000 NA
ATOM      7  C   UNL     1       0.595   9.908  20.835  0.00  0.00    +0.000 C 
ATOM      8  C   UNL     1       0.776  10.311  19.404  0.00  0.00    +0.000 C 
ATOM      9  C   UNL     1       0.279  11.435  18.849  0.00  0.00    +0.000 C 
ATOM     10  H   UNL     1       0.370   8.239  21.976  0.00  0.00    +0.000 HD
ENDROOT
BRANCH   4  11
ATOM     11  C   UNL     1       2.961   5.841  18.622  0.00  0.00    +0.000 A 
ATOM     12  C   UNL     1       4.296   5.626  18.978  0.00  0.00    +0.000 A 
ATOM     13  C   UNL     1       4.739   4.341  19.304  0.00  0.00    +0.000 A 
ATOM     14  C   UNL     1       3.850   3.265  19.280  0.00  0.00    +0.000 A 
ATOM     15 CL   UNL     1       4.469   1.701  19.672  0.00  0.00    +0.000 Cl
ATOM     16  C   UNL     1       2.509   3.477  18.936  0.00  0.00    +0.000 A 
ATOM     17 CL   UNL     1       1.353   2.194  18.885  0.00  0.00    +0.000 Cl
ATOM     18  C   UNL     1       2.068   4.764  18.608  0.00  0.00    +0.000 A 
ENDBRANCH   4  11
BRANCH   9  19
ATOM     19  C   UNL     1      -0.491  12.445  19.579  0.00  0.00    +0.000 A 
ATOM     20  C   UNL     1       0.150  13.558  20.131  0.00  0.00    +0.000 A 
ATOM     21  C   UNL     1      -0.589  14.522  20.824  0.00  0.00    +0.000 A 
ATOM     22  C   UNL     1      -1.971  14.379  20.969  0.00  0.00    +0.000 A 
ATOM     23 CL   UNL     1      -2.820  15.603  21.845  0.00  0.00    +0.000 Cl
ATOM     24  C   UNL     1      -2.617  13.269  20.411  0.00  0.00    +0.000 A 
ATOM     25 CL   UNL     1      -4.324  13.030  20.541  0.00  0.00    +0.000 Cl
ATOM     26  C   UNL     1      -1.877  12.306  19.718  0.00  0.00    +0.000 A 
ENDBRANCH   9  19
TORSDOF 2
ENDMDL
MODEL 5
REMARK VINA RESULT:      -7.5      2.427      3.265
REMARK  Name = 
REMARK  2 active torsions:
REMARK  status: ('A' for Active; 'I' for Inactive)
REMARK    1  A    between atoms: C_4  and  C_5
REMARK    2  A    between atoms: C_17  and  C_18
REMARK                            x       y       z     vdW  Elec       q    Type
REMARK                         _______ _______ _______ _____ _____    ______ ____
ROOT
ATOM      1  O   UNL     1       1.898   9.695  17.435  0.00  0.00    +0.000 OA
ATOM      2  C   UNL     1       1.694   9.255  18.564  0.00  0.00    +0.000 C 
ATOM      3  C   UNL     1       2.024   7.835  18.918  0.00  0.00    +0.000 C 
ATOM      4  C   UNL     1       2.350   7.006  17.907  0.00  0.00    +0.000 C 
ATOM      5  C   UNL     1       1.950   7.456  20.364  0.00  0.00    +0.000 C 
ATOM      6  N   UNL     1       0.836   8.114  21.034  0.00  0.00    +0.000 NA
ATOM      7  C   UNL     1       1.061   9.556  21.034  0.00  0.00    +0.000 C 
ATOM      8  C   UNL     1       1.119  10.118  19.647  0.00  0.00    +0.000 C 
ATOM      9  C   UNL     1       0.690  11.345  19.292  0.00  0.00    +0.000 C 
ATOM     10  H   UNL     1       0.785   7.786  21.997  0.00  0.00    +0.000 HD
ENDROOT
BRANCH   4  11
ATOM     11  C   UNL     1       2.685   5.591  18.089  0.00  0.00    +0.000 A 
ATOM     12  C   UNL     1       4.017   5.173  18.005  0.00  0.00    +0.000 A 
ATOM     13  C   UNL     1       4.338   3.818  18.122  0.00  0.00    +0.000 A 
ATOM     14  C   UNL     1       3.330   2.873  18.328  0.00  0.00    +0.000 A 
ATOM     15 CL   UNL     1       3.794   1.213  18.442  0.00  0.00    +0.000 Cl
ATOM     16  C   UNL     1       1.996   3.288  18.425  0.00  0.00    +0.000 A 
ATOM     17 CL   UNL     1       0.697   2.178  18.678  0.00  0.00    +0.000 Cl
ATOM     18  C   UNL     1       1.677   4.646  18.305  0.00  0.00    +0.000 A 
ENDBRANCH   4  11
BRANCH   9  19
ATOM     19  C   UNL     1       0.127  12.325  20.225  0.00  0.00    +0.000 A 
ATOM     20  C   UNL     1      -1.222  12.261  20.585  0.00  0.00    +0.000 A 
ATOM     21  C   UNL     1      -1.755  13.196  21.479  0.00  0.00    +0.000 A 
ATOM     22  C   UNL     1      -0.943  14.198  22.016  0.00  0.00    +0.000 A 
ATOM     23 CL   UNL     1      -1.669  15.324  23.107  0.00  0.00    +0.000 Cl
ATOM     24  C   UNL     1       0.410  14.259  21.663  0.00  0.00    +0.000 A 
ATOM     25 CL   UNL     1       1.478  15.462  22.294  0.00  0.00    +0.000 Cl
ATOM     26  C   UNL     1       0.942  13.323  20.769  0.00  0.00    +0.000 A 
ENDBRANCH   9  19
TORSDOF 2
ENDMDL
MODEL 6
REMARK VINA RESULT:      -7.5      2.504      9.876
REMARK  Name = 
REMARK  2 active torsions:
REMARK  status: ('A' for Active; 'I' for Inactive)
REMARK    1  A    between atoms: C_4  and  C_5
REMARK    2  A    between atoms: C_17  and  C_18
REMARK                            x       y       z     vdW  Elec       q    Type
REMARK                         _______ _______ _______ _____ _____    ______ ____
ROOT
ATOM      1  O   UNL     1      -0.332  10.605  18.659  0.00  0.00    +0.000 OA
ATOM      2  C   UNL     1       0.084  10.227  19.753  0.00  0.00    +0.000 C 
ATOM      3  C   UNL     1      -0.374  10.874  21.026  0.00  0.00    +0.000 C 
ATOM      4  C   UNL     1      -1.087  12.013  20.920  0.00  0.00    +0.000 C 
ATOM      5  C   UNL     1       0.010  10.206  22.310  0.00  0.00    +0.000 C 
ATOM      6  N   UNL     1       1.355   9.648  22.240  0.00  0.00    +0.000 NA
ATOM      7  C   UNL     1       1.382   8.585  21.240  0.00  0.00    +0.000 C 
ATOM      8  C   UNL     1       1.057   9.093  19.869  0.00  0.00    +0.000 C 
ATOM      9  C   UNL     1       1.577   8.610  18.723  0.00  0.00    +0.000 C 
ATOM     10  H   UNL     1       1.600   9.255  23.148  0.00  0.00    +0.000 HD
ENDROOT
BRANCH   4  11
ATOM     11  C   UNL     1      -1.594  12.768  22.068  0.00  0.00    +0.000 A 
ATOM     12  C   UNL     1      -0.875  13.863  22.557  0.00  0.00    +0.000 A 
ATOM     13  C   UNL     1      -1.325  14.553  23.686  0.00  0.00    +0.000 A 
ATOM     14  C   UNL     1      -2.498  14.155  24.331  0.00  0.00    +0.000 A 
ATOM     15 CL   UNL     1      -2.984  15.038  25.733  0.00  0.00    +0.000 Cl
ATOM     16  C   UNL     1      -3.229  13.067  23.838  0.00  0.00    +0.000 A 
ATOM     17 CL   UNL     1      -4.688  12.519  24.582  0.00  0.00    +0.000 Cl
ATOM     18  C   UNL     1      -2.775  12.376  22.708  0.00  0.00    +0.000 A 
ENDBRANCH   4  11
BRANCH   9  19
ATOM     19  C   UNL     1       2.519   7.490  18.652  0.00  0.00    +0.000 A 
ATOM     20  C   UNL     1       2.467   6.463  19.600  0.00  0.00    +0.000 A 
ATOM     21  C   UNL     1       3.366   5.394  19.526  0.00  0.00    +0.000 A 
ATOM     22  C   UNL     1       4.320   5.346  18.507  0.00  0.00    +0.000 A 
ATOM     23 CL   UNL     1       5.404   4.000  18.482  0.00  0.00    +0.000 Cl
ATOM     24  C   UNL     1       4.370   6.369  17.553  0.00  0.00    +0.000 A 
ATOM     25 CL   UNL     1       5.515   6.372  16.258  0.00  0.00    +0.000 Cl
ATOM     26  C   UNL     1       3.470   7.437  17.627  0.00  0.00    +0.000 A 
ENDBRANCH   9  19
TORSDOF 2
ENDMDL
MODEL 7
REMARK VINA RESULT:      -7.5      0.927      9.432
REMARK  Name = 
REMARK  2 active torsions:
REMARK  status: ('A' for Active; 'I' for Inactive)
REMARK    1  A    between atoms: C_4  and  C_5
REMARK    2  A    between atoms: C_17  and  C_18
REMARK                            x       y       z     vdW  Elec       q    Type
REMARK                         _______ _______ _______ _____ _____    ______ ____
ROOT
ATOM      1  O   UNL     1       1.343   7.573  21.398  0.00  0.00    +0.000 OA
ATOM      2  C   UNL     1       1.462   8.204  20.349  0.00  0.00    +0.000 C 
ATOM      3  C   UNL     1       0.814   9.544  20.168  0.00  0.00    +0.000 C 
ATOM      4  C   UNL     1      -0.071   9.935  21.106  0.00  0.00    +0.000 C 
ATOM      5  C   UNL     1       1.196  10.329  18.952  0.00  0.00    +0.000 C 
ATOM      6  N   UNL     1       1.378   9.466  17.792  0.00  0.00    +0.000 NA
ATOM      7  C   UNL     1       2.506   8.572  18.032  0.00  0.00    +0.000 C 
ATOM      8  C   UNL     1       2.272   7.671  19.205  0.00  0.00    +0.000 C 
ATOM      9  C   UNL     1       2.732   6.408  19.314  0.00  0.00    +0.000 C 
ATOM     10  H   UNL     1       1.579  10.041  16.975  0.00  0.00    +0.000 HD
ENDROOT
BRANCH   4  11
ATOM     11  C   UNL     1      -0.794  11.208  21.064  0.00  0.00    +0.000 A 
ATOM     12  C   UNL     1      -1.597  11.520  19.962  0.00  0.00    +0.000 A 
ATOM     13  C   UNL     1      -2.245  12.756  19.891  0.00  0.00    +0.000 A 
ATOM     14  C   UNL     1      -2.098  13.686  20.922  0.00  0.00    +0.000 A 
ATOM     15 CL   UNL     1      -2.909  15.202  20.759  0.00  0.00    +0.000 Cl
ATOM     16  C   UNL     1      -1.306  13.374  22.033  0.00  0.00    +0.000 A 
ATOM     17 CL   UNL     1      -1.078  14.474  23.346  0.00  0.00    +0.000 Cl
ATOM     18  C   UNL     1      -0.656  12.136  22.102  0.00  0.00    +0.000 A 
ENDBRANCH   4  11
BRANCH   9  19
ATOM     19  C   UNL     1       3.558   5.741  18.304  0.00  0.00    +0.000 A 
ATOM     20  C   UNL     1       3.053   4.654  17.584  0.00  0.00    +0.000 A 
ATOM     21  C   UNL     1       3.843   4.023  16.618  0.00  0.00    +0.000 A 
ATOM     22  C   UNL     1       5.142   4.474  16.369  0.00  0.00    +0.000 A 
ATOM     23 CL   UNL     1       6.065   3.641  15.168  0.00  0.00    +0.000 Cl
ATOM     24  C   UNL     1       5.648   5.566  17.083  0.00  0.00    +0.000 A 
ATOM     25 CL   UNL     1       7.240   6.186  16.821  0.00  0.00    +0.000 Cl
ATOM     26  C   UNL     1       4.856   6.198  18.048  0.00  0.00    +0.000 A 
ENDBRANCH   9  19
TORSDOF 2
ENDMDL
MODEL 8
REMARK VINA RESULT:      -7.4      2.713      9.800
REMARK  Name = 
REMARK  2 active torsions:
REMARK  status: ('A' for Active; 'I' for Inactive)
REMARK    1  A    between atoms: C_4  and  C_5
REMARK    2  A    between atoms: C_17  and  C_18
REMARK                            x       y       z     vdW  Elec       q    Type
REMARK                         _______ _______ _______ _____ _____    ______ ____
ROOT
ATOM      1  O   UNL     1      -0.376  10.490  18.629  0.00  0.00    +0.000 OA
ATOM      2  C   UNL     1       0.071  10.138  19.718  0.00  0.00    +0.000 C 
ATOM      3  C   UNL     1      -0.366  10.800  20.991  0.00  0.00    +0.000 C 
ATOM      4  C   UNL     1      -1.098  11.927  20.881  0.00  0.00    +0.000 C 
ATOM      5  C   UNL     1       0.058  10.161  22.276  0.00  0.00    +0.000 C 
ATOM      6  N   UNL     1       1.409   9.621  22.184  0.00  0.00    +0.000 NA
ATOM      7  C   UNL     1       1.427   8.541  21.203  0.00  0.00    +0.000 C 
ATOM      8  C   UNL     1       1.063   9.020  19.831  0.00  0.00    +0.000 C 
ATOM      9  C   UNL     1       1.563   8.524  18.682  0.00  0.00    +0.000 C 
ATOM     10  H   UNL     1       1.682   9.249  23.093  0.00  0.00    +0.000 HD
ENDROOT
BRANCH   4  11
ATOM     11  C   UNL     1      -1.589  12.695  22.029  0.00  0.00    +0.000 A 
ATOM     12  C   UNL     1      -0.857  13.789  22.501  0.00  0.00    +0.000 A 
ATOM     13  C   UNL     1      -1.291  14.491  23.629  0.00  0.00    +0.000 A 
ATOM     14  C   UNL     1      -2.462  14.108  24.287  0.00  0.00    +0.000 A 
ATOM     15 CL   UNL     1      -2.928  15.006  25.687  0.00  0.00    +0.000 Cl
ATOM     16  C   UNL     1      -3.205  13.021  23.810  0.00  0.00    +0.000 A 
ATOM     17 CL   UNL     1      -4.661  12.489  24.573  0.00  0.00    +0.000 Cl
ATOM     18  C   UNL     1      -2.767  12.317  22.682  0.00  0.00    +0.000 A 
ENDBRANCH   4  11
BRANCH   9  19
ATOM     19  C   UNL     1       2.520   7.416  18.608  0.00  0.00    +0.000 A 
ATOM     20  C   UNL     1       3.610   7.484  17.735  0.00  0.00    +0.000 A 
ATOM     21  C   UNL     1       4.524   6.426  17.670  0.00  0.00    +0.000 A 
ATOM     22  C   UNL     1       4.351   5.298  18.475  0.00  0.00    +0.000 A 
ATOM     23 CL   UNL     1       5.513   4.026  18.337  0.00  0.00    +0.000 Cl
ATOM     24  C   UNL     1       3.265   5.231  19.355  0.00  0.00    +0.000 A 
ATOM     25 CL   UNL     1       2.993   3.873  20.389  0.00  0.00    +0.000 Cl
ATOM     26  C   UNL     1       2.352   6.290  19.420  0.00  0.00    +0.000 A 
ENDBRANCH   9  19
TORSDOF 2
ENDMDL
MODEL 9
REMARK VINA RESULT:      -7.4      2.229      2.508
REMARK  Name = 
REMARK  2 active torsions:
REMARK  status: ('A' for Active; 'I' for Inactive)
REMARK    1  A    between atoms: C_4  and  C_5
REMARK    2  A    between atoms: C_17  and  C_18
REMARK                            x       y       z     vdW  Elec       q    Type
REMARK                         _______ _______ _______ _____ _____    ______ ____
ROOT
ATOM      1  O   UNL     1       1.550  10.438  18.061  0.00  0.00    +0.000 OA
ATOM      2  C   UNL     1       1.396   9.804  19.103  0.00  0.00    +0.000 C 
ATOM      3  C   UNL     1       1.804   8.365  19.207  0.00  0.00    +0.000 C 
ATOM      4  C   UNL     1       2.145   7.735  18.065  0.00  0.00    +0.000 C 
ATOM      5  C   UNL     1       1.785   7.745  20.569  0.00  0.00    +0.000 C 
ATOM      6  N   UNL     1       0.657   8.222  21.359  0.00  0.00    +0.000 NA
ATOM      7  C   UNL     1       0.811   9.654  21.599  0.00  0.00    +0.000 C 
ATOM      8  C   UNL     1       0.808  10.442  20.326  0.00  0.00    +0.000 C 
ATOM      9  C   UNL     1       0.310  11.688  20.190  0.00  0.00    +0.000 C 
ATOM     10  H   UNL     1       0.646   7.735  22.254  0.00  0.00    +0.000 HD
ENDROOT
BRANCH   4  11
ATOM     11  C   UNL     1       2.553   6.329  18.000  0.00  0.00    +0.000 A 
ATOM     12  C   UNL     1       1.586   5.326  17.874  0.00  0.00    +0.000 A 
ATOM     13  C   UNL     1       1.965   3.981  17.867  0.00  0.00    +0.000 A 
ATOM     14  C   UNL     1       3.312   3.631  17.982  0.00  0.00    +0.000 A 
ATOM     15 CL   UNL     1       3.707   1.949  17.988  0.00  0.00    +0.000 Cl
ATOM     16  C   UNL     1       4.285   4.631  18.095  0.00  0.00    +0.000 A 
ATOM     17 CL   UNL     1       5.968   4.273  18.240  0.00  0.00    +0.000 Cl
ATOM     18  C   UNL     1       3.903   5.978  18.104  0.00  0.00    +0.000 A 
ENDBRANCH   4  11
BRANCH   9  19
ATOM     19  C   UNL     1      -0.276  12.466  21.284  0.00  0.00    +0.000 A 
ATOM     20  C   UNL     1       0.282  13.694  21.654  0.00  0.00    +0.000 A 
ATOM     21  C   UNL     1      -0.283  14.437  22.696  0.00  0.00    +0.000 A 
ATOM     22  C   UNL     1      -1.406  13.955  23.373  0.00  0.00    +0.000 A 
ATOM     23 CL   UNL     1      -2.046  14.920  24.656  0.00  0.00    +0.000 Cl
ATOM     24  C   UNL     1      -1.971  12.730  23.000  0.00  0.00    +0.000 A 
ATOM     25 CL   UNL     1      -3.366  12.077  23.784  0.00  0.00    +0.000 Cl
ATOM     26  C   UNL     1      -1.406  11.989  21.957  0.00  0.00    +0.000 A 
ENDBRANCH   9  19
TORSDOF 2
ENDMDL
