MODEL 1
REMARK VINA RESULT:      -7.0      0.000      0.000
REMARK  Name = 
REMARK  9 active torsions:
REMARK  status: ('A' for Active; 'I' for Inactive)
REMARK    1  A    between atoms: C_2  and  C_4
REMARK    2  A    between atoms: C_4  and  C_5
REMARK    3  A    between atoms: C_5  and  N_6
REMARK    4  A    between atoms: N_6  and  P_7
REMARK    5  A    between atoms: P_7  and  C_10
REMARK    6  A    between atoms: C_10  and  N_11
REMARK    7  A    between atoms: C_12  and  O_14
REMARK    8  A    between atoms: O_14  and  C_15
REMARK    9  A    between atoms: C_15  and  C_16
REMARK                            x       y       z     vdW  Elec       q    Type
REMARK                         _______ _______ _______ _____ _____    ______ ____
ROOT
ATOM      1  N   UNL     1       7.668   6.272  18.782  0.00  0.00    +0.000 N 
ATOM      2  C   UNL     1       7.844   7.360  18.006  0.00  0.00    +0.000 C 
ATOM      3  O   UNL     1       7.451   7.461  16.847  0.00  0.00    +0.000 OA
ATOM      4  H   UNL     1       8.089   6.173  19.705  0.00  0.00    +0.000 HD
ENDROOT
BRANCH   1   5
ATOM      5  C   UNL     1       6.983   5.075  18.339  0.00  0.00    +0.000 C 
BRANCH   5   6
ATOM      6  P   UNL     1       5.197   5.102  18.740  0.00  0.00    +0.000 P 
ATOM      7  O   UNL     1       5.290   3.671  19.277  0.00  0.00    +0.000 OA
ATOM      8  O   UNL     1       4.780   5.432  17.300  0.00  0.00    +0.000 OA
BRANCH   6   9
ATOM      9  N   UNL     1       3.461   5.129  19.131  0.00  0.00    +0.000 NA
ATOM     10  H   UNL     1       3.310   4.653  20.011  0.00  0.00    +0.000 HD
BRANCH   9  11
ATOM     11  C   UNL     1       2.464   5.069  18.063  0.00  0.00    +0.000 C 
BRANCH  11  12
ATOM     12  C   UNL     1       1.484   3.920  18.204  0.00  0.00    +0.000 C 
BRANCH  12  14
ATOM     13  O   UNL     1       2.180   2.374  19.850  0.00  0.00    +0.000 OA
ATOM     14  C   UNL     1       1.500   3.424  19.611  0.00  0.00    +0.000 C 
ATOM     15  O   UNL     1       0.905   4.068  20.526  0.00  0.00    +0.000 OA
ENDBRANCH  12  14
ENDBRANCH  11  12
ENDBRANCH   9  11
ENDBRANCH   6   9
ENDBRANCH   5   6
ENDBRANCH   1   5
BRANCH   2  16
ATOM     16  O   UNL     1       8.567   8.302  18.660  0.00  0.00    +0.000 OA
BRANCH  16  17
ATOM     17  C   UNL     1       8.440   9.628  18.143  0.00  0.00    +0.000 C 
BRANCH  17  18
ATOM     18  C   UNL     1       9.448  10.577  18.740  0.00  0.00    +0.000 A 
ATOM     19  C   UNL     1      10.356  11.263  17.919  0.00  0.00    +0.000 A 
ATOM     20  C   UNL     1      11.251  12.183  18.467  0.00  0.00    +0.000 A 
ATOM     21  C   UNL     1      11.265  12.411  19.843  0.00  0.00    +0.000 A 
ATOM     22  C   UNL     1      10.376  11.727  20.667  0.00  0.00    +0.000 A 
ATOM     23  C   UNL     1       9.475  10.804  20.118  0.00  0.00    +0.000 A 
ENDBRANCH  17  18
ENDBRANCH  16  17
ENDBRANCH   2  16
TORSDOF 9
ENDMDL
MODEL 2
REMARK VINA RESULT:      -6.9      4.941      8.431
REMARK  Name = 
REMARK  9 active torsions:
REMARK  status: ('A' for Active; 'I' for Inactive)
REMARK    1  A    between atoms: C_2  and  C_4
REMARK    2  A    between atoms: C_4  and  C_5
REMARK    3  A    between atoms: C_5  and  N_6
REMARK    4  A    between atoms: N_6  and  P_7
REMARK    5  A    between atoms: P_7  and  C_10
REMARK    6  A    between atoms: C_10  and  N_11
REMARK    7  A    between atoms: C_12  and  O_14
REMARK    8  A    between atoms: O_14  and  C_15
REMARK    9  A    between atoms: C_15  and  C_16
REMARK                            x       y       z     vdW  Elec       q    Type
REMARK                         _______ _______ _______ _____ _____    ______ ____
ROOT
ATOM      1  N   UNL     1       5.813   5.193  17.248  0.00  0.00    +0.000 N 
ATOM      2  C   UNL     1       6.515   4.666  18.271  0.00  0.00    +0.000 C 
ATOM      3  O   UNL     1       7.737   4.547  18.288  0.00  0.00    +0.000 OA
ATOM      4  H   UNL     1       4.793   5.190  17.214  0.00  0.00    +0.000 HD
ENDROOT
BRANCH   1   5
ATOM      5  C   UNL     1       6.420   5.694  16.032  0.00  0.00    +0.000 C 
BRANCH   5   6
ATOM      6  P   UNL     1       6.497   4.426  14.715  0.00  0.00    +0.000 P 
ATOM      7  O   UNL     1       7.378   5.348  13.869  0.00  0.00    +0.000 OA
ATOM      8  O   UNL     1       4.971   4.353  14.562  0.00  0.00    +0.000 OA
BRANCH   6   9
ATOM      9  N   UNL     1       6.572   3.192  13.434  0.00  0.00    +0.000 NA
ATOM     10  H   UNL     1       7.446   2.687  13.509  0.00  0.00    +0.000 HD
BRANCH   9  11
ATOM     11  C   UNL     1       5.959   3.444  12.131  0.00  0.00    +0.000 C 
BRANCH  11  12
ATOM     12  C   UNL     1       5.330   2.215  11.502  0.00  0.00    +0.000 C 
BRANCH  12  14
ATOM     13  O   UNL     1       7.580   1.718  10.981  0.00  0.00    +0.000 OA
ATOM     14  C   UNL     1       6.402   1.254  11.113  0.00  0.00    +0.000 C 
ATOM     15  O   UNL     1       6.141   0.020  10.982  0.00  0.00    +0.000 OA
ENDBRANCH  12  14
ENDBRANCH  11  12
ENDBRANCH   9  11
ENDBRANCH   6   9
ENDBRANCH   5   6
ENDBRANCH   1   5
BRANCH   2  16
ATOM     16  O   UNL     1       5.683   4.229  19.248  0.00  0.00    +0.000 OA
BRANCH  16  17
ATOM     17  C   UNL     1       4.555   5.068  19.501  0.00  0.00    +0.000 C 
BRANCH  17  18
ATOM     18  C   UNL     1       3.266   4.290  19.584  0.00  0.00    +0.000 A 
ATOM     19  C   UNL     1       2.194   4.764  20.355  0.00  0.00    +0.000 A 
ATOM     20  C   UNL     1       0.983   4.071  20.386  0.00  0.00    +0.000 A 
ATOM     21  C   UNL     1       0.836   2.885  19.666  0.00  0.00    +0.000 A 
ATOM     22  C   UNL     1       1.899   2.401  18.907  0.00  0.00    +0.000 A 
ATOM     23  C   UNL     1       3.115   3.096  18.874  0.00  0.00    +0.000 A 
ENDBRANCH  17  18
ENDBRANCH  16  17
ENDBRANCH   2  16
TORSDOF 9
ENDMDL
MODEL 3
REMARK VINA RESULT:      -6.7      0.918      1.625
REMARK  Name = 
REMARK  9 active torsions:
REMARK  status: ('A' for Active; 'I' for Inactive)
REMARK    1  A    between atoms: C_2  and  C_4
REMARK    2  A    between atoms: C_4  and  C_5
REMARK    3  A    between atoms: C_5  and  N_6
REMARK    4  A    between atoms: N_6  and  P_7
REMARK    5  A    between atoms: P_7  and  C_10
REMARK    6  A    between atoms: C_10  and  N_11
REMARK    7  A    between atoms: C_12  and  O_14
REMARK    8  A    between atoms: O_14  and  C_15
REMARK    9  A    between atoms: C_15  and  C_16
REMARK                            x       y       z     vdW  Elec       q    Type
REMARK                         _______ _______ _______ _____ _____    ______ ____
ROOT
ATOM      1  N   UNL     1       7.783   6.149  18.597  0.00  0.00    +0.000 N 
ATOM      2  C   UNL     1       7.890   7.296  17.898  0.00  0.00    +0.000 C 
ATOM      3  O   UNL     1       7.589   7.421  16.714  0.00  0.00    +0.000 OA
ATOM      4  H   UNL     1       8.132   6.043  19.549  0.00  0.00    +0.000 HD
ENDROOT
BRANCH   1   5
ATOM      5  C   UNL     1       7.291   4.908  18.032  0.00  0.00    +0.000 C 
BRANCH   5   6
ATOM      6  P   UNL     1       5.508   4.651  18.356  0.00  0.00    +0.000 P 
ATOM      7  O   UNL     1       5.160   5.391  17.061  0.00  0.00    +0.000 OA
ATOM      8  O   UNL     1       5.559   5.340  19.727  0.00  0.00    +0.000 OA
BRANCH   6   9
ATOM      9  N   UNL     1       3.774   4.400  18.670  0.00  0.00    +0.000 NA
ATOM     10  H   UNL     1       3.649   4.107  19.630  0.00  0.00    +0.000 HD
BRANCH   9  11
ATOM     11  C   UNL     1       2.898   3.900  17.611  0.00  0.00    +0.000 C 
BRANCH  11  12
ATOM     12  C   UNL     1       2.499   2.447  17.780  0.00  0.00    +0.000 C 
BRANCH  12  14
ATOM     13  O   UNL     1       0.283   2.055  18.499  0.00  0.00    +0.000 OA
ATOM     14  C   UNL     1       1.472   2.337  18.856  0.00  0.00    +0.000 C 
ATOM     15  O   UNL     1       1.801   2.463  20.074  0.00  0.00    +0.000 OA
ENDBRANCH  12  14
ENDBRANCH  11  12
ENDBRANCH   9  11
ENDBRANCH   6   9
ENDBRANCH   5   6
ENDBRANCH   1   5
BRANCH   2  16
ATOM     16  O   UNL     1       8.432   8.274  18.663  0.00  0.00    +0.000 OA
BRANCH  16  17
ATOM     17  C   UNL     1       8.379   9.584  18.096  0.00  0.00    +0.000 C 
BRANCH  17  18
ATOM     18  C   UNL     1       9.388  10.519  18.713  0.00  0.00    +0.000 A 
ATOM     19  C   UNL     1       9.380  10.769  20.094  0.00  0.00    +0.000 A 
ATOM     20  C   UNL     1      10.349  11.591  20.672  0.00  0.00    +0.000 A 
ATOM     21  C   UNL     1      11.323  12.191  19.873  0.00  0.00    +0.000 A 
ATOM     22  C   UNL     1      11.332  11.959  18.501  0.00  0.00    +0.000 A 
ATOM     23  C   UNL     1      10.361  11.133  17.920  0.00  0.00    +0.000 A 
ENDBRANCH  17  18
ENDBRANCH  16  17
ENDBRANCH   2  16
TORSDOF 9
ENDMDL
MODEL 4
REMARK VINA RESULT:      -6.5      2.183      8.917
REMARK  Name = 
REMARK  9 active torsions:
REMARK  status: ('A' for Active; 'I' for Inactive)
REMARK    1  A    between atoms: C_2  and  C_4
REMARK    2  A    between atoms: C_4  and  C_5
REMARK    3  A    between atoms: C_5  and  N_6
REMARK    4  A    between atoms: N_6  and  P_7
REMARK    5  A    between atoms: P_7  and  C_10
REMARK    6  A    between atoms: C_10  and  N_11
REMARK    7  A    between atoms: C_12  and  O_14
REMARK    8  A    between atoms: O_14  and  C_15
REMARK    9  A    between atoms: C_15  and  C_16
REMARK                            x       y       z     vdW  Elec       q    Type
REMARK                         _______ _______ _______ _____ _____    ______ ____
ROOT
ATOM      1  N   UNL     1       5.691   4.228  17.688  0.00  0.00    +0.000 N 
ATOM      2  C   UNL     1       4.992   3.823  16.609  0.00  0.00    +0.000 C 
ATOM      3  O   UNL     1       5.448   3.747  15.472  0.00  0.00    +0.000 OA
ATOM      4  H   UNL     1       5.265   4.379  18.602  0.00  0.00    +0.000 HD
ENDROOT
BRANCH   1   5
ATOM      5  C   UNL     1       7.084   4.624  17.639  0.00  0.00    +0.000 C 
BRANCH   5   6
ATOM      6  P   UNL     1       7.292   6.440  17.554  0.00  0.00    +0.000 P 
ATOM      7  O   UNL     1       7.823   6.318  16.123  0.00  0.00    +0.000 OA
ATOM      8  O   UNL     1       8.206   6.490  18.786  0.00  0.00    +0.000 OA
BRANCH   6   9
ATOM      9  N   UNL     1       7.493   8.207  17.470  0.00  0.00    +0.000 NA
ATOM     10  H   UNL     1       7.409   8.507  16.508  0.00  0.00    +0.000 HD
BRANCH   9  11
ATOM     11  C   UNL     1       8.398   8.890  18.394  0.00  0.00    +0.000 C 
BRANCH  11  12
ATOM     12  C   UNL     1       8.692  10.328  18.013  0.00  0.00    +0.000 C 
BRANCH  12  14
ATOM     13  O   UNL     1      10.615  11.599  18.534  0.00  0.00    +0.000 OA
ATOM     14  C   UNL     1       9.645  10.917  18.998  0.00  0.00    +0.000 C 
ATOM     15  O   UNL     1       9.448  10.782  20.243  0.00  0.00    +0.000 OA
ENDBRANCH  12  14
ENDBRANCH  11  12
ENDBRANCH   9  11
ENDBRANCH   6   9
ENDBRANCH   5   6
ENDBRANCH   1   5
BRANCH   2  16
ATOM     16  O   UNL     1       3.702   3.572  16.941  0.00  0.00    +0.000 OA
BRANCH  16  17
ATOM     17  C   UNL     1       3.498   2.397  17.727  0.00  0.00    +0.000 C 
BRANCH  17  18
ATOM     18  C   UNL     1       2.755   2.684  19.008  0.00  0.00    +0.000 A 
ATOM     19  C   UNL     1       3.334   2.390  20.251  0.00  0.00    +0.000 A 
ATOM     20  C   UNL     1       2.668   2.708  21.436  0.00  0.00    +0.000 A 
ATOM     21  C   UNL     1       1.406   3.300  21.392  0.00  0.00    +0.000 A 
ATOM     22  C   UNL     1       0.818   3.585  20.162  0.00  0.00    +0.000 A 
ATOM     23  C   UNL     1       1.486   3.268  18.972  0.00  0.00    +0.000 A 
ENDBRANCH  17  18
ENDBRANCH  16  17
ENDBRANCH   2  16
TORSDOF 9
ENDMDL
MODEL 5
REMARK VINA RESULT:      -6.4      3.985      6.082
REMARK  Name = 
REMARK  9 active torsions:
REMARK  status: ('A' for Active; 'I' for Inactive)
REMARK    1  A    between atoms: C_2  and  C_4
REMARK    2  A    between atoms: C_4  and  C_5
REMARK    3  A    between atoms: C_5  and  N_6
REMARK    4  A    between atoms: N_6  and  P_7
REMARK    5  A    between atoms: P_7  and  C_10
REMARK    6  A    between atoms: C_10  and  N_11
REMARK    7  A    between atoms: C_12  and  O_14
REMARK    8  A    between atoms: O_14  and  C_15
REMARK    9  A    between atoms: C_15  and  C_16
REMARK                            x       y       z     vdW  Elec       q    Type
REMARK                         _______ _______ _______ _____ _____    ______ ____
ROOT
ATOM      1  N   UNL     1       5.426   6.151  17.168  0.00  0.00    +0.000 N 
ATOM      2  C   UNL     1       6.670   6.634  16.976  0.00  0.00    +0.000 C 
ATOM      3  O   UNL     1       7.005   7.797  17.179  0.00  0.00    +0.000 OA
ATOM      4  H   UNL     1       5.147   5.208  16.897  0.00  0.00    +0.000 HD
ENDROOT
BRANCH   1   5
ATOM      5  C   UNL     1       4.319   6.955  17.647  0.00  0.00    +0.000 C 
BRANCH   5   6
ATOM      6  P   UNL     1       3.222   6.028  18.781  0.00  0.00    +0.000 P 
ATOM      7  O   UNL     1       2.437   7.309  19.076  0.00  0.00    +0.000 OA
ATOM      8  O   UNL     1       4.383   5.537  19.657  0.00  0.00    +0.000 OA
BRANCH   6   9
ATOM      9  N   UNL     1       2.154   5.127  19.884  0.00  0.00    +0.000 NA
ATOM     10  H   UNL     1       2.593   5.061  20.793  0.00  0.00    +0.000 HD
BRANCH   9  11
ATOM     11  C   UNL     1       1.314   4.044  19.374  0.00  0.00    +0.000 C 
BRANCH  11  12
ATOM     12  C   UNL     1       1.272   2.825  20.275  0.00  0.00    +0.000 C 
BRANCH  12  14
ATOM     13  O   UNL     1       2.332   3.118  22.367  0.00  0.00    +0.000 OA
ATOM     14  C   UNL     1       2.486   2.807  21.142  0.00  0.00    +0.000 C 
ATOM     15  O   UNL     1       3.605   2.437  20.673  0.00  0.00    +0.000 OA
ENDBRANCH  12  14
ENDBRANCH  11  12
ENDBRANCH   9  11
ENDBRANCH   6   9
ENDBRANCH   5   6
ENDBRANCH   1   5
BRANCH   2  16
ATOM     16  O   UNL     1       7.482   5.674  16.469  0.00  0.00    +0.000 OA
BRANCH  16  17
ATOM     17  C   UNL     1       6.812   4.515  15.973  0.00  0.00    +0.000 C 
BRANCH  17  18
ATOM     18  C   UNL     1       6.880   4.410  14.470  0.00  0.00    +0.000 A 
ATOM     19  C   UNL     1       6.060   3.506  13.779  0.00  0.00    +0.000 A 
ATOM     20  C   UNL     1       6.083   3.450  12.385  0.00  0.00    +0.000 A 
ATOM     21  C   UNL     1       6.943   4.281  11.666  0.00  0.00    +0.000 A 
ATOM     22  C   UNL     1       7.769   5.174  12.343  0.00  0.00    +0.000 A 
ATOM     23  C   UNL     1       7.745   5.232  13.743  0.00  0.00    +0.000 A 
ENDBRANCH  17  18
ENDBRANCH  16  17
ENDBRANCH   2  16
TORSDOF 9
ENDMDL
MODEL 6
REMARK VINA RESULT:      -6.3      4.576      6.251
REMARK  Name = 
REMARK  9 active torsions:
REMARK  status: ('A' for Active; 'I' for Inactive)
REMARK    1  A    between atoms: C_2  and  C_4
REMARK    2  A    between atoms: C_4  and  C_5
REMARK    3  A    between atoms: C_5  and  N_6
REMARK    4  A    between atoms: N_6  and  P_7
REMARK    5  A    between atoms: P_7  and  C_10
REMARK    6  A    between atoms: C_10  and  N_11
REMARK    7  A    between atoms: C_12  and  O_14
REMARK    8  A    between atoms: O_14  and  C_15
REMARK    9  A    between atoms: C_15  and  C_16
REMARK                            x       y       z     vdW  Elec       q    Type
REMARK                         _______ _______ _______ _____ _____    ______ ____
ROOT
ATOM      1  N   UNL     1       6.191   4.012  18.047  0.00  0.00    +0.000 N 
ATOM      2  C   UNL     1       7.088   4.967  17.729  0.00  0.00    +0.000 C 
ATOM      3  O   UNL     1       7.276   5.991  18.381  0.00  0.00    +0.000 OA
ATOM      4  H   UNL     1       5.983   3.221  17.438  0.00  0.00    +0.000 HD
ENDROOT
BRANCH   1   5
ATOM      5  C   UNL     1       5.332   4.075  19.212  0.00  0.00    +0.000 C 
BRANCH   5   6
ATOM      6  P   UNL     1       3.949   2.879  19.126  0.00  0.00    +0.000 P 
ATOM      7  O   UNL     1       4.723   1.910  20.023  0.00  0.00    +0.000 OA
ATOM      8  O   UNL     1       3.980   2.808  17.592  0.00  0.00    +0.000 OA
BRANCH   6   9
ATOM      9  N   UNL     1       2.603   1.717  19.042  0.00  0.00    +0.000 NA
ATOM     10  H   UNL     1       2.851   0.965  18.413  0.00  0.00    +0.000 HD
BRANCH   9  11
ATOM     11  C   UNL     1       1.221   2.182  19.152  0.00  0.00    +0.000 C 
BRANCH  11  12
ATOM     12  C   UNL     1       1.070   3.484  19.914  0.00  0.00    +0.000 C 
BRANCH  12  14
ATOM     13  O   UNL     1       2.264   4.319  21.775  0.00  0.00    +0.000 OA
ATOM     14  C   UNL     1       1.636   3.325  21.285  0.00  0.00    +0.000 C 
ATOM     15  O   UNL     1       1.439   2.259  21.942  0.00  0.00    +0.000 OA
ENDBRANCH  12  14
ENDBRANCH  11  12
ENDBRANCH   9  11
ENDBRANCH   6   9
ENDBRANCH   5   6
ENDBRANCH   1   5
BRANCH   2  16
ATOM     16  O   UNL     1       7.707   4.673  16.560  0.00  0.00    +0.000 OA
BRANCH  16  17
ATOM     17  C   UNL     1       7.383   5.537  15.470  0.00  0.00    +0.000 C 
BRANCH  17  18
ATOM     18  C   UNL     1       6.865   4.782  14.272  0.00  0.00    +0.000 A 
ATOM     19  C   UNL     1       5.632   4.115  14.326  0.00  0.00    +0.000 A 
ATOM     20  C   UNL     1       5.128   3.464  13.199  0.00  0.00    +0.000 A 
ATOM     21  C   UNL     1       5.861   3.451  12.012  0.00  0.00    +0.000 A 
ATOM     22  C   UNL     1       7.091   4.101  11.952  0.00  0.00    +0.000 A 
ATOM     23  C   UNL     1       7.598   4.756  13.083  0.00  0.00    +0.000 A 
ENDBRANCH  17  18
ENDBRANCH  16  17
ENDBRANCH   2  16
TORSDOF 9
ENDMDL
MODEL 7
REMARK VINA RESULT:      -6.3      4.349      8.215
REMARK  Name = 
REMARK  9 active torsions:
REMARK  status: ('A' for Active; 'I' for Inactive)
REMARK    1  A    between atoms: C_2  and  C_4
REMARK    2  A    between atoms: C_4  and  C_5
REMARK    3  A    between atoms: C_5  and  N_6
REMARK    4  A    between atoms: N_6  and  P_7
REMARK    5  A    between atoms: P_7  and  C_10
REMARK    6  A    between atoms: C_10  and  N_11
REMARK    7  A    between atoms: C_12  and  O_14
REMARK    8  A    between atoms: O_14  and  C_15
REMARK    9  A    between atoms: C_15  and  C_16
REMARK                            x       y       z     vdW  Elec       q    Type
REMARK                         _______ _______ _______ _____ _____    ______ ____
ROOT
ATOM      1  N   UNL     1       5.492   5.668  18.416  0.00  0.00    +0.000 N 
ATOM      2  C   UNL     1       6.242   4.666  18.915  0.00  0.00    +0.000 C 
ATOM      3  O   UNL     1       7.410   4.449  18.604  0.00  0.00    +0.000 OA
ATOM      4  H   UNL     1       4.497   5.769  18.613  0.00  0.00    +0.000 HD
ENDROOT
BRANCH   1   5
ATOM      5  C   UNL     1       5.978   6.625  17.442  0.00  0.00    +0.000 C 
BRANCH   5   6
ATOM      6  P   UNL     1       6.012   5.941  15.745  0.00  0.00    +0.000 P 
ATOM      7  O   UNL     1       7.537   6.065  15.719  0.00  0.00    +0.000 OA
ATOM      8  O   UNL     1       5.074   7.021  15.188  0.00  0.00    +0.000 OA
BRANCH   6   9
ATOM      9  N   UNL     1       6.045   5.275  14.095  0.00  0.00    +0.000 NA
ATOM     10  H   UNL     1       5.403   5.796  13.512  0.00  0.00    +0.000 HD
BRANCH   9  11
ATOM     11  C   UNL     1       6.260   3.844  13.883  0.00  0.00    +0.000 C 
BRANCH  11  12
ATOM     12  C   UNL     1       6.600   3.481  12.450  0.00  0.00    +0.000 C 
BRANCH  12  14
ATOM     13  O   UNL     1       5.557   1.659  11.364  0.00  0.00    +0.000 OA
ATOM     14  C   UNL     1       5.414   2.846  11.805  0.00  0.00    +0.000 C 
ATOM     15  O   UNL     1       4.303   3.454  11.762  0.00  0.00    +0.000 OA
ENDBRANCH  12  14
ENDBRANCH  11  12
ENDBRANCH   9  11
ENDBRANCH   6   9
ENDBRANCH   5   6
ENDBRANCH   1   5
BRANCH   2  16
ATOM     16  O   UNL     1       5.513   3.896  19.759  0.00  0.00    +0.000 OA
BRANCH  16  17
ATOM     17  C   UNL     1       4.745   2.869  19.129  0.00  0.00    +0.000 C 
BRANCH  17  18
ATOM     18  C   UNL     1       3.274   2.980  19.437  0.00  0.00    +0.000 A 
ATOM     19  C   UNL     1       2.350   3.271  18.422  0.00  0.00    +0.000 A 
ATOM     20  C   UNL     1       0.983   3.316  18.698  0.00  0.00    +0.000 A 
ATOM     21  C   UNL     1       0.524   3.096  19.997  0.00  0.00    +0.000 A 
ATOM     22  C   UNL     1       1.434   2.818  21.014  0.00  0.00    +0.000 A 
ATOM     23  C   UNL     1       2.807   2.770  20.737  0.00  0.00    +0.000 A 
ENDBRANCH  17  18
ENDBRANCH  16  17
ENDBRANCH   2  16
TORSDOF 9
ENDMDL
MODEL 8
REMARK VINA RESULT:      -6.3      4.965      8.530
REMARK  Name = 
REMARK  9 active torsions:
REMARK  status: ('A' for Active; 'I' for Inactive)
REMARK    1  A    between atoms: C_2  and  C_4
REMARK    2  A    between atoms: C_4  and  C_5
REMARK    3  A    between atoms: C_5  and  N_6
REMARK    4  A    between atoms: N_6  and  P_7
REMARK    5  A    between atoms: P_7  and  C_10
REMARK    6  A    between atoms: C_10  and  N_11
REMARK    7  A    between atoms: C_12  and  O_14
REMARK    8  A    between atoms: O_14  and  C_15
REMARK    9  A    between atoms: C_15  and  C_16
REMARK                            x       y       z     vdW  Elec       q    Type
REMARK                         _______ _______ _______ _____ _____    ______ ____
ROOT
ATOM      1  N   UNL     1       5.216   5.475  16.971  0.00  0.00    +0.000 N 
ATOM      2  C   UNL     1       4.484   6.544  17.341  0.00  0.00    +0.000 C 
ATOM      3  O   UNL     1       4.782   7.710  17.098  0.00  0.00    +0.000 OA
ATOM      4  H   UNL     1       5.001   4.523  17.270  0.00  0.00    +0.000 HD
ENDROOT
BRANCH   1   5
ATOM      5  C   UNL     1       6.458   5.570  16.230  0.00  0.00    +0.000 C 
BRANCH   5   6
ATOM      6  P   UNL     1       6.536   4.383  14.840  0.00  0.00    +0.000 P 
ATOM      7  O   UNL     1       7.524   5.295  14.109  0.00  0.00    +0.000 OA
ATOM      8  O   UNL     1       5.020   4.422  14.595  0.00  0.00    +0.000 OA
BRANCH   6   9
ATOM      9  N   UNL     1       6.612   3.228  13.488  0.00  0.00    +0.000 NA
ATOM     10  H   UNL     1       7.512   2.765  13.496  0.00  0.00    +0.000 HD
BRANCH   9  11
ATOM     11  C   UNL     1       5.928   3.520  12.229  0.00  0.00    +0.000 C 
BRANCH  11  12
ATOM     12  C   UNL     1       5.319   2.300  11.564  0.00  0.00    +0.000 C 
BRANCH  12  14
ATOM     13  O   UNL     1       7.579   1.843  11.045  0.00  0.00    +0.000 OA
ATOM     14  C   UNL     1       6.406   1.360  11.163  0.00  0.00    +0.000 C 
ATOM     15  O   UNL     1       6.164   0.125  11.010  0.00  0.00    +0.000 OA
ENDBRANCH  12  14
ENDBRANCH  11  12
ENDBRANCH   9  11
ENDBRANCH   6   9
ENDBRANCH   5   6
ENDBRANCH   1   5
BRANCH   2  16
ATOM     16  O   UNL     1       3.408   6.158  18.069  0.00  0.00    +0.000 OA
BRANCH  16  17
ATOM     17  C   UNL     1       2.919   4.849  17.778  0.00  0.00    +0.000 C 
BRANCH  17  18
ATOM     18  C   UNL     1       2.297   4.186  18.982  0.00  0.00    +0.000 A 
ATOM     19  C   UNL     1       1.331   3.181  18.824  0.00  0.00    +0.000 A 
ATOM     20  C   UNL     1       0.798   2.529  19.938  0.00  0.00    +0.000 A 
ATOM     21  C   UNL     1       1.207   2.891  21.222  0.00  0.00    +0.000 A 
ATOM     22  C   UNL     1       2.157   3.895  21.388  0.00  0.00    +0.000 A 
ATOM     23  C   UNL     1       2.694   4.549  20.271  0.00  0.00    +0.000 A 
ENDBRANCH  17  18
ENDBRANCH  16  17
ENDBRANCH   2  16
TORSDOF 9
ENDMDL
MODEL 9
REMARK VINA RESULT:      -6.2      3.825      5.984
REMARK  Name = 
REMARK  9 active torsions:
REMARK  status: ('A' for Active; 'I' for Inactive)
REMARK    1  A    between atoms: C_2  and  C_4
REMARK    2  A    between atoms: C_4  and  C_5
REMARK    3  A    between atoms: C_5  and  N_6
REMARK    4  A    between atoms: N_6  and  P_7
REMARK    5  A    between atoms: P_7  and  C_10
REMARK    6  A    between atoms: C_10  and  N_11
REMARK    7  A    between atoms: C_12  and  O_14
REMARK    8  A    between atoms: O_14  and  C_15
REMARK    9  A    between atoms: C_15  and  C_16
REMARK                            x       y       z     vdW  Elec       q    Type
REMARK                         _______ _______ _______ _____ _____    ______ ____
ROOT
ATOM      1  N   UNL     1       5.660   6.203  17.389  0.00  0.00    +0.000 N 
ATOM      2  C   UNL     1       6.796   6.837  17.035  0.00  0.00    +0.000 C 
ATOM      3  O   UNL     1       7.059   8.003  17.314  0.00  0.00    +0.000 OA
ATOM      4  H   UNL     1       5.420   5.268  17.061  0.00  0.00    +0.000 HD
ENDROOT
BRANCH   1   5
ATOM      5  C   UNL     1       4.600   6.826  18.156  0.00  0.00    +0.000 C 
BRANCH   5   6
ATOM      6  P   UNL     1       3.740   5.640  19.252  0.00  0.00    +0.000 P 
ATOM      7  O   UNL     1       4.261   4.474  18.409  0.00  0.00    +0.000 OA
ATOM      8  O   UNL     1       2.364   6.285  19.031  0.00  0.00    +0.000 OA
BRANCH   6   9
ATOM      9  N   UNL     1       2.905   4.486  20.319  0.00  0.00    +0.000 NA
ATOM     10  H   UNL     1       3.334   3.575  20.226  0.00  0.00    +0.000 HD
BRANCH   9  11
ATOM     11  C   UNL     1       1.470   4.619  20.569  0.00  0.00    +0.000 C 
BRANCH  11  12
ATOM     12  C   UNL     1       0.661   3.403  20.159  0.00  0.00    +0.000 C 
BRANCH  12  14
ATOM     13  O   UNL     1       1.158   3.316  17.850  0.00  0.00    +0.000 OA
ATOM     14  C   UNL     1       1.307   2.752  18.982  0.00  0.00    +0.000 C 
ATOM     15  O   UNL     1       2.020   1.715  19.133  0.00  0.00    +0.000 OA
ENDBRANCH  12  14
ENDBRANCH  11  12
ENDBRANCH   9  11
ENDBRANCH   6   9
ENDBRANCH   5   6
ENDBRANCH   1   5
BRANCH   2  16
ATOM     16  O   UNL     1       7.577   6.030  16.276  0.00  0.00    +0.000 OA
BRANCH  16  17
ATOM     17  C   UNL     1       6.996   4.771  15.937  0.00  0.00    +0.000 C 
BRANCH  17  18
ATOM     18  C   UNL     1       6.960   4.535  14.448  0.00  0.00    +0.000 A 
ATOM     19  C   UNL     1       6.070   3.604  13.893  0.00  0.00    +0.000 A 
ATOM     20  C   UNL     1       5.999   3.428  12.510  0.00  0.00    +0.000 A 
ATOM     21  C   UNL     1       6.833   4.163  11.667  0.00  0.00    +0.000 A 
ATOM     22  C   UNL     1       7.728   5.082  12.210  0.00  0.00    +0.000 A 
ATOM     23  C   UNL     1       7.800   5.260  13.598  0.00  0.00    +0.000 A 
ENDBRANCH  17  18
ENDBRANCH  16  17
ENDBRANCH   2  16
TORSDOF 9
ENDMDL
