MODEL 1
REMARK VINA RESULT:      -6.6      0.000      0.000
REMARK  Name = 
REMARK  6 active torsions:
REMARK  status: ('A' for Active; 'I' for Inactive)
REMARK    1  A    between atoms: C_1  and  C_2
REMARK    2  A    between atoms: C_2  and  S_3
REMARK    3  A    between atoms: S_3  and  N_6
REMARK    4  A    between atoms: C_9  and  C_10
REMARK    5  A    between atoms: N_12  and  C_13
REMARK    6  A    between atoms: C_13  and  C_14
REMARK                            x       y       z     vdW  Elec       q    Type
REMARK                         _______ _______ _______ _____ _____    ______ ____
ROOT
ATOM      1  N   UNL     1       3.897   4.531  18.441  0.00  0.00    +0.000 NA
ATOM      2  C   UNL     1       5.205   4.047  18.970  0.00  0.00    +0.000 C 
ATOM      3  C   UNL     1       6.145   5.229  19.208  0.00  0.00    +0.000 C 
ATOM      4  C   UNL     1       6.352   6.060  17.935  0.00  0.00    +0.000 C 
ATOM      5  C   UNL     1       4.984   6.513  17.415  0.00  0.00    +0.000 C 
ATOM      6  C   UNL     1       4.041   5.332  17.191  0.00  0.00    +0.000 C 
ENDROOT
BRANCH   4   7
ATOM      7  C   UNL     1       7.157   5.275  16.896  0.00  0.00    +0.000 C 
ATOM      8  O   UNL     1       7.942   4.381  17.201  0.00  0.00    +0.000 OA
ATOM      9  N   UNL     1       6.948   5.653  15.589  0.00  0.00    +0.000 N 
ATOM     10  H   UNL     1       6.500   6.537  15.392  0.00  0.00    +0.000 HD
BRANCH   9  11
ATOM     11  C   UNL     1       7.651   5.002  14.504  0.00  0.00    +0.000 C 
BRANCH  11  12
ATOM     12  C   UNL     1       6.669   4.305  13.617  0.00  0.00    +0.000 A 
ATOM     13  C   UNL     1       5.333   4.046  13.866  0.00  0.00    +0.000 A 
ATOM     14  C   UNL     1       4.698   3.370  12.787  0.00  0.00    +0.000 A 
ATOM     15  C   UNL     1       5.567   3.138  11.745  0.00  0.00    +0.000 A 
ATOM     16  S   UNL     1       7.138   3.732  12.072  0.00  0.00    +0.000 S 
ENDBRANCH  11  12
ENDBRANCH   9  11
ENDBRANCH   4   7
BRANCH   1  17
ATOM     17  S   UNL     1       2.713   3.285  18.339  0.00  0.00    +0.000 S 
ATOM     18  O   UNL     1       3.234   2.112  19.013  0.00  0.00    +0.000 OA
ATOM     19  O   UNL     1       2.237   3.226  16.974  0.00  0.00    +0.000 OA
BRANCH  17  21
ATOM     20  C   UNL     1       1.217   3.122  20.617  0.00  0.00    +0.000 C 
ATOM     21  C   UNL     1       1.426   3.968  19.376  0.00  0.00    +0.000 C 
ENDBRANCH  17  21
ENDBRANCH   1  17
TORSDOF 5
ENDMDL
MODEL 2
REMARK VINA RESULT:      -6.5      4.073      7.651
REMARK  Name = 
REMARK  6 active torsions:
REMARK  status: ('A' for Active; 'I' for Inactive)
REMARK    1  A    between atoms: C_1  and  C_2
REMARK    2  A    between atoms: C_2  and  S_3
REMARK    3  A    between atoms: S_3  and  N_6
REMARK    4  A    between atoms: C_9  and  C_10
REMARK    5  A    between atoms: N_12  and  C_13
REMARK    6  A    between atoms: C_13  and  C_14
REMARK                            x       y       z     vdW  Elec       q    Type
REMARK                         _______ _______ _______ _____ _____    ______ ____
ROOT
ATOM      1  N   UNL     1       5.786   4.931  17.891  0.00  0.00    +0.000 NA
ATOM      2  C   UNL     1       5.440   5.638  19.158  0.00  0.00    +0.000 C 
ATOM      3  C   UNL     1       4.071   5.175  19.660  0.00  0.00    +0.000 C 
ATOM      4  C   UNL     1       2.975   5.385  18.608  0.00  0.00    +0.000 C 
ATOM      5  C   UNL     1       3.385   4.664  17.320  0.00  0.00    +0.000 C 
ATOM      6  C   UNL     1       4.758   5.117  16.826  0.00  0.00    +0.000 C 
ENDROOT
BRANCH   4   7
ATOM      7  C   UNL     1       2.699   6.876  18.397  0.00  0.00    +0.000 C 
ATOM      8  O   UNL     1       3.083   7.488  17.405  0.00  0.00    +0.000 OA
ATOM      9  N   UNL     1       2.000   7.489  19.412  0.00  0.00    +0.000 N 
ATOM     10  H   UNL     1       1.920   7.031  20.310  0.00  0.00    +0.000 HD
BRANCH   9  11
ATOM     11  C   UNL     1       1.679   8.900  19.349  0.00  0.00    +0.000 C 
BRANCH  11  12
ATOM     12  C   UNL     1       0.920   9.297  20.574  0.00  0.00    +0.000 A 
ATOM     13  C   UNL     1       0.695   8.548  21.715  0.00  0.00    +0.000 A 
ATOM     14  C   UNL     1      -0.062   9.254  22.691  0.00  0.00    +0.000 A 
ATOM     15  C   UNL     1      -0.388  10.523  22.268  0.00  0.00    +0.000 A 
ATOM     16  S   UNL     1       0.217  10.854  20.702  0.00  0.00    +0.000 S 
ENDBRANCH  11  12
ENDBRANCH   9  11
ENDBRANCH   4   7
BRANCH   1  17
ATOM     17  S   UNL     1       7.396   5.243  17.368  0.00  0.00    +0.000 S 
ATOM     18  O   UNL     1       7.341   5.719  16.000  0.00  0.00    +0.000 OA
ATOM     19  O   UNL     1       8.220   4.116  17.746  0.00  0.00    +0.000 OA
BRANCH  17  21
ATOM     20  C   UNL     1       7.774   7.937  17.613  0.00  0.00    +0.000 C 
ATOM     21  C   UNL     1       7.812   6.642  18.402  0.00  0.00    +0.000 C 
ENDBRANCH  17  21
ENDBRANCH   1  17
TORSDOF 5
ENDMDL
MODEL 3
REMARK VINA RESULT:      -6.4      3.346      6.723
REMARK  Name = 
REMARK  6 active torsions:
REMARK  status: ('A' for Active; 'I' for Inactive)
REMARK    1  A    between atoms: C_1  and  C_2
REMARK    2  A    between atoms: C_2  and  S_3
REMARK    3  A    between atoms: S_3  and  N_6
REMARK    4  A    between atoms: C_9  and  C_10
REMARK    5  A    between atoms: N_12  and  C_13
REMARK    6  A    between atoms: C_13  and  C_14
REMARK                            x       y       z     vdW  Elec       q    Type
REMARK                         _______ _______ _______ _____ _____    ______ ____
ROOT
ATOM      1  N   UNL     1       5.088   4.094  17.814  0.00  0.00    +0.000 NA
ATOM      2  C   UNL     1       4.993   3.567  19.207  0.00  0.00    +0.000 C 
ATOM      3  C   UNL     1       3.676   2.812  19.393  0.00  0.00    +0.000 C 
ATOM      4  C   UNL     1       2.462   3.691  19.065  0.00  0.00    +0.000 C 
ATOM      5  C   UNL     1       2.616   4.229  17.639  0.00  0.00    +0.000 C 
ATOM      6  C   UNL     1       3.939   4.971  17.449  0.00  0.00    +0.000 C 
ENDROOT
BRANCH   4   7
ATOM      7  C   UNL     1       2.294   4.799  20.108  0.00  0.00    +0.000 C 
ATOM      8  O   UNL     1       2.316   4.583  21.316  0.00  0.00    +0.000 OA
ATOM      9  N   UNL     1       2.101   6.060  19.591  0.00  0.00    +0.000 N 
ATOM     10  H   UNL     1       1.841   6.167  18.621  0.00  0.00    +0.000 HD
BRANCH   9  11
ATOM     11  C   UNL     1       1.917   7.202  20.463  0.00  0.00    +0.000 C 
BRANCH  11  12
ATOM     12  C   UNL     1       1.633   8.419  19.643  0.00  0.00    +0.000 A 
ATOM     13  C   UNL     1       2.013   8.672  18.337  0.00  0.00    +0.000 A 
ATOM     14  C   UNL     1       1.556   9.936  17.871  0.00  0.00    +0.000 A 
ATOM     15  C   UNL     1       0.836  10.608  18.833  0.00  0.00    +0.000 A 
ATOM     16  S   UNL     1       0.717   9.715  20.288  0.00  0.00    +0.000 S 
ENDBRANCH  11  12
ENDBRANCH   9  11
ENDBRANCH   4   7
BRANCH   1  17
ATOM     17  S   UNL     1       6.628   4.780  17.461  0.00  0.00    +0.000 S 
ATOM     18  O   UNL     1       6.971   4.439  16.095  0.00  0.00    +0.000 OA
ATOM     19  O   UNL     1       7.517   4.484  18.564  0.00  0.00    +0.000 OA
BRANCH  17  21
ATOM     20  C   UNL     1       7.480   7.374  17.532  0.00  0.00    +0.000 C 
ATOM     21  C   UNL     1       6.226   6.523  17.490  0.00  0.00    +0.000 C 
ENDBRANCH  17  21
ENDBRANCH   1  17
TORSDOF 5
ENDMDL
MODEL 4
REMARK VINA RESULT:      -6.4      2.964      6.439
REMARK  Name = 
REMARK  6 active torsions:
REMARK  status: ('A' for Active; 'I' for Inactive)
REMARK    1  A    between atoms: C_1  and  C_2
REMARK    2  A    between atoms: C_2  and  S_3
REMARK    3  A    between atoms: S_3  and  N_6
REMARK    4  A    between atoms: C_9  and  C_10
REMARK    5  A    between atoms: N_12  and  C_13
REMARK    6  A    between atoms: C_13  and  C_14
REMARK                            x       y       z     vdW  Elec       q    Type
REMARK                         _______ _______ _______ _____ _____    ______ ____
ROOT
ATOM      1  N   UNL     1       5.450   4.653  17.067  0.00  0.00    +0.000 NA
ATOM      2  C   UNL     1       5.439   5.490  18.302  0.00  0.00    +0.000 C 
ATOM      3  C   UNL     1       5.236   4.606  19.533  0.00  0.00    +0.000 C 
ATOM      4  C   UNL     1       3.952   3.773  19.434  0.00  0.00    +0.000 C 
ATOM      5  C   UNL     1       3.997   2.952  18.141  0.00  0.00    +0.000 C 
ATOM      6  C   UNL     1       4.213   3.834  16.913  0.00  0.00    +0.000 C 
ENDROOT
BRANCH   4   7
ATOM      7  C   UNL     1       2.713   4.667  19.531  0.00  0.00    +0.000 C 
ATOM      8  O   UNL     1       1.674   4.432  18.920  0.00  0.00    +0.000 OA
ATOM      9  N   UNL     1       2.852   5.768  20.346  0.00  0.00    +0.000 N 
ATOM     10  H   UNL     1       3.774   6.066  20.628  0.00  0.00    +0.000 HD
BRANCH   9  11
ATOM     11  C   UNL     1       1.762   6.706  20.522  0.00  0.00    +0.000 C 
BRANCH  11  12
ATOM     12  C   UNL     1       1.874   7.800  19.510  0.00  0.00    +0.000 A 
ATOM     13  C   UNL     1       2.613   7.805  18.341  0.00  0.00    +0.000 A 
ATOM     14  C   UNL     1       2.472   9.018  17.611  0.00  0.00    +0.000 A 
ATOM     15  C   UNL     1       1.625   9.901  18.242  0.00  0.00    +0.000 A 
ATOM     16  S   UNL     1       1.008   9.266  19.706  0.00  0.00    +0.000 S 
ENDBRANCH  11  12
ENDBRANCH   9  11
ENDBRANCH   4   7
BRANCH   1  17
ATOM     17  S   UNL     1       5.877   5.545  15.657  0.00  0.00    +0.000 S 
ATOM     18  O   UNL     1       7.321   5.663  15.618  0.00  0.00    +0.000 OA
ATOM     19  O   UNL     1       5.018   6.707  15.582  0.00  0.00    +0.000 OA
BRANCH  17  21
ATOM     20  C   UNL     1       6.547   4.132  13.418  0.00  0.00    +0.000 C 
ATOM     21  C   UNL     1       5.402   4.386  14.379  0.00  0.00    +0.000 C 
ENDBRANCH  17  21
ENDBRANCH   1  17
TORSDOF 5
ENDMDL
MODEL 5
REMARK VINA RESULT:      -6.4      3.877      7.421
REMARK  Name = 
REMARK  6 active torsions:
REMARK  status: ('A' for Active; 'I' for Inactive)
REMARK    1  A    between atoms: C_1  and  C_2
REMARK    2  A    between atoms: C_2  and  S_3
REMARK    3  A    between atoms: S_3  and  N_6
REMARK    4  A    between atoms: C_9  and  C_10
REMARK    5  A    between atoms: N_12  and  C_13
REMARK    6  A    between atoms: C_13  and  C_14
REMARK                            x       y       z     vdW  Elec       q    Type
REMARK                         _______ _______ _______ _____ _____    ______ ____
ROOT
ATOM      1  N   UNL     1       5.509   4.860  18.293  0.00  0.00    +0.000 NA
ATOM      2  C   UNL     1       4.975   3.974  19.368  0.00  0.00    +0.000 C 
ATOM      3  C   UNL     1       3.564   3.504  19.008  0.00  0.00    +0.000 C 
ATOM      4  C   UNL     1       2.615   4.682  18.759  0.00  0.00    +0.000 C 
ATOM      5  C   UNL     1       3.215   5.577  17.670  0.00  0.00    +0.000 C 
ATOM      6  C   UNL     1       4.630   6.034  18.024  0.00  0.00    +0.000 C 
ENDROOT
BRANCH   4   7
ATOM      7  C   UNL     1       2.329   5.436  20.061  0.00  0.00    +0.000 C 
ATOM      8  O   UNL     1       2.288   4.880  21.155  0.00  0.00    +0.000 OA
ATOM      9  N   UNL     1       2.107   6.787  19.916  0.00  0.00    +0.000 N 
ATOM     10  H   UNL     1       1.902   7.163  19.001  0.00  0.00    +0.000 HD
BRANCH   9  11
ATOM     11  C   UNL     1       1.815   7.621  21.063  0.00  0.00    +0.000 C 
BRANCH  11  12
ATOM     12  C   UNL     1       1.030   8.816  20.627  0.00  0.00    +0.000 A 
ATOM     13  C   UNL     1       1.039   9.434  19.390  0.00  0.00    +0.000 A 
ATOM     14  C   UNL     1       0.153  10.545  19.328  0.00  0.00    +0.000 A 
ATOM     15  C   UNL     1      -0.510  10.739  20.519  0.00  0.00    +0.000 A 
ATOM     16  S   UNL     1      -0.061   9.586  21.700  0.00  0.00    +0.000 S 
ENDBRANCH  11  12
ENDBRANCH   9  11
ENDBRANCH   4   7
BRANCH   1  17
ATOM     17  S   UNL     1       7.166   5.267  18.523  0.00  0.00    +0.000 S 
ATOM     18  O   UNL     1       7.973   4.261  17.862  0.00  0.00    +0.000 OA
ATOM     19  O   UNL     1       7.360   5.599  19.918  0.00  0.00    +0.000 OA
BRANCH  17  21
ATOM     20  C   UNL     1       8.126   7.809  18.244  0.00  0.00    +0.000 C 
ATOM     21  C   UNL     1       7.275   6.764  17.548  0.00  0.00    +0.000 C 
ENDBRANCH  17  21
ENDBRANCH   1  17
TORSDOF 5
ENDMDL
MODEL 6
REMARK VINA RESULT:      -6.4      4.194      5.977
REMARK  Name = 
REMARK  6 active torsions:
REMARK  status: ('A' for Active; 'I' for Inactive)
REMARK    1  A    between atoms: C_1  and  C_2
REMARK    2  A    between atoms: C_2  and  S_3
REMARK    3  A    between atoms: S_3  and  N_6
REMARK    4  A    between atoms: C_9  and  C_10
REMARK    5  A    between atoms: N_12  and  C_13
REMARK    6  A    between atoms: C_13  and  C_14
REMARK                            x       y       z     vdW  Elec       q    Type
REMARK                         _______ _______ _______ _____ _____    ______ ____
ROOT
ATOM      1  N   UNL     1       5.281   4.414  18.321  0.00  0.00    +0.000 NA
ATOM      2  C   UNL     1       5.991   4.616  17.024  0.00  0.00    +0.000 C 
ATOM      3  C   UNL     1       7.501   4.691  17.259  0.00  0.00    +0.000 C 
ATOM      4  C   UNL     1       7.871   5.798  18.254  0.00  0.00    +0.000 C 
ATOM      5  C   UNL     1       7.100   5.566  19.557  0.00  0.00    +0.000 C 
ATOM      6  C   UNL     1       5.593   5.477  19.320  0.00  0.00    +0.000 C 
ENDROOT
BRANCH   4   7
ATOM      7  C   UNL     1       7.617   7.182  17.649  0.00  0.00    +0.000 C 
ATOM      8  O   UNL     1       6.878   7.359  16.685  0.00  0.00    +0.000 OA
ATOM      9  N   UNL     1       8.293   8.216  18.256  0.00  0.00    +0.000 N 
ATOM     10  H   UNL     1       9.070   8.012  18.869  0.00  0.00    +0.000 HD
BRANCH   9  11
ATOM     11  C   UNL     1       8.154   9.577  17.780  0.00  0.00    +0.000 C 
BRANCH  11  12
ATOM     12  C   UNL     1       9.009  10.486  18.604  0.00  0.00    +0.000 A 
ATOM     13  C   UNL     1       9.363  10.346  19.933  0.00  0.00    +0.000 A 
ATOM     14  C   UNL     1      10.203  11.401  20.388  0.00  0.00    +0.000 A 
ATOM     15  C   UNL     1      10.469  12.311  19.390  0.00  0.00    +0.000 A 
ATOM     16  S   UNL     1       9.707  11.892  17.917  0.00  0.00    +0.000 S 
ENDBRANCH  11  12
ENDBRANCH   9  11
ENDBRANCH   4   7
BRANCH   1  17
ATOM     17  S   UNL     1       3.597   4.116  18.123  0.00  0.00    +0.000 S 
ATOM     18  O   UNL     1       3.386   3.599  16.785  0.00  0.00    +0.000 OA
ATOM     19  O   UNL     1       2.874   5.268  18.614  0.00  0.00    +0.000 OA
BRANCH  17  21
ATOM     20  C   UNL     1       3.228   1.439  18.522  0.00  0.00    +0.000 C 
ATOM     21  C   UNL     1       3.368   2.755  19.262  0.00  0.00    +0.000 C 
ENDBRANCH  17  21
ENDBRANCH   1  17
TORSDOF 5
ENDMDL
MODEL 7
REMARK VINA RESULT:      -6.4      3.572      7.019
REMARK  Name = 
REMARK  6 active torsions:
REMARK  status: ('A' for Active; 'I' for Inactive)
REMARK    1  A    between atoms: C_1  and  C_2
REMARK    2  A    between atoms: C_2  and  S_3
REMARK    3  A    between atoms: S_3  and  N_6
REMARK    4  A    between atoms: C_9  and  C_10
REMARK    5  A    between atoms: N_12  and  C_13
REMARK    6  A    between atoms: C_13  and  C_14
REMARK                            x       y       z     vdW  Elec       q    Type
REMARK                         _______ _______ _______ _____ _____    ______ ____
ROOT
ATOM      1  N   UNL     1       5.467   4.646  18.098  0.00  0.00    +0.000 NA
ATOM      2  C   UNL     1       5.094   3.858  19.308  0.00  0.00    +0.000 C 
ATOM      3  C   UNL     1       3.725   3.206  19.108  0.00  0.00    +0.000 C 
ATOM      4  C   UNL     1       2.641   4.241  18.782  0.00  0.00    +0.000 C 
ATOM      5  C   UNL     1       3.078   5.042  17.552  0.00  0.00    +0.000 C 
ATOM      6  C   UNL     1       4.453   5.681  17.747  0.00  0.00    +0.000 C 
ENDROOT
BRANCH   4   7
ATOM      7  C   UNL     1       2.349   5.126  19.998  0.00  0.00    +0.000 C 
ATOM      8  O   UNL     1       2.366   4.699  21.149  0.00  0.00    +0.000 OA
ATOM      9  N   UNL     1       2.050   6.437  19.705  0.00  0.00    +0.000 N 
ATOM     10  H   UNL     1       1.801   6.693  18.760  0.00  0.00    +0.000 HD
BRANCH   9  11
ATOM     11  C   UNL     1       1.743   7.383  20.758  0.00  0.00    +0.000 C 
BRANCH  11  12
ATOM     12  C   UNL     1       1.344   8.692  20.156  0.00  0.00    +0.000 A 
ATOM     13  C   UNL     1       0.716   9.757  20.776  0.00  0.00    +0.000 A 
ATOM     14  C   UNL     1       0.500  10.852  19.893  0.00  0.00    +0.000 A 
ATOM     15  C   UNL     1       0.974  10.591  18.627  0.00  0.00    +0.000 A 
ATOM     16  S   UNL     1       1.673   9.034  18.509  0.00  0.00    +0.000 S 
ENDBRANCH  11  12
ENDBRANCH   9  11
ENDBRANCH   4   7
BRANCH   1  17
ATOM     17  S   UNL     1       7.081   5.245  18.159  0.00  0.00    +0.000 S 
ATOM     18  O   UNL     1       7.889   4.456  17.250  0.00  0.00    +0.000 OA
ATOM     19  O   UNL     1       7.447   5.412  19.549  0.00  0.00    +0.000 OA
BRANCH  17  21
ATOM     20  C   UNL     1       7.926   7.827  17.892  0.00  0.00    +0.000 C 
ATOM     21  C   UNL     1       6.863   6.857  17.416  0.00  0.00    +0.000 C 
ENDBRANCH  17  21
ENDBRANCH   1  17
TORSDOF 5
ENDMDL
MODEL 8
REMARK VINA RESULT:      -6.3      4.147      5.918
REMARK  Name = 
REMARK  6 active torsions:
REMARK  status: ('A' for Active; 'I' for Inactive)
REMARK    1  A    between atoms: C_1  and  C_2
REMARK    2  A    between atoms: C_2  and  S_3
REMARK    3  A    between atoms: S_3  and  N_6
REMARK    4  A    between atoms: C_9  and  C_10
REMARK    5  A    between atoms: N_12  and  C_13
REMARK    6  A    between atoms: C_13  and  C_14
REMARK                            x       y       z     vdW  Elec       q    Type
REMARK                         _______ _______ _______ _____ _____    ______ ____
ROOT
ATOM      1  N   UNL     1       5.187   4.443  18.309  0.00  0.00    +0.000 NA
ATOM      2  C   UNL     1       5.885   4.659  17.008  0.00  0.00    +0.000 C 
ATOM      3  C   UNL     1       7.398   4.707  17.226  0.00  0.00    +0.000 C 
ATOM      4  C   UNL     1       7.797   5.788  18.238  0.00  0.00    +0.000 C 
ATOM      5  C   UNL     1       7.038   5.541  19.546  0.00  0.00    +0.000 C 
ATOM      6  C   UNL     1       5.527   5.479  19.326  0.00  0.00    +0.000 C 
ENDROOT
BRANCH   4   7
ATOM      7  C   UNL     1       7.558   7.187  17.664  0.00  0.00    +0.000 C 
ATOM      8  O   UNL     1       6.820   7.394  16.704  0.00  0.00    +0.000 OA
ATOM      9  N   UNL     1       8.244   8.200  18.294  0.00  0.00    +0.000 N 
ATOM     10  H   UNL     1       9.019   7.975  18.902  0.00  0.00    +0.000 HD
BRANCH   9  11
ATOM     11  C   UNL     1       8.120   9.573  17.849  0.00  0.00    +0.000 C 
BRANCH  11  12
ATOM     12  C   UNL     1       9.201  10.400  18.466  0.00  0.00    +0.000 A 
ATOM     13  C   UNL     1      10.221  11.080  17.826  0.00  0.00    +0.000 A 
ATOM     14  C   UNL     1      11.066  11.777  18.735  0.00  0.00    +0.000 A 
ATOM     15  C   UNL     1      10.662  11.612  20.041  0.00  0.00    +0.000 A 
ATOM     16  S   UNL     1       9.272  10.621  20.164  0.00  0.00    +0.000 S 
ENDBRANCH  11  12
ENDBRANCH   9  11
ENDBRANCH   4   7
BRANCH   1  17
ATOM     17  S   UNL     1       3.496   4.174  18.125  0.00  0.00    +0.000 S 
ATOM     18  O   UNL     1       3.288   3.434  16.897  0.00  0.00    +0.000 OA
ATOM     19  O   UNL     1       2.810   5.421  18.385  0.00  0.00    +0.000 OA
BRANCH  17  21
ATOM     20  C   UNL     1       1.706   2.878  19.730  0.00  0.00    +0.000 C 
ATOM     21  C   UNL     1       3.193   3.049  19.483  0.00  0.00    +0.000 C 
ENDBRANCH  17  21
ENDBRANCH   1  17
TORSDOF 5
ENDMDL
MODEL 9
REMARK VINA RESULT:      -6.3      3.299      6.866
REMARK  Name = 
REMARK  6 active torsions:
REMARK  status: ('A' for Active; 'I' for Inactive)
REMARK    1  A    between atoms: C_1  and  C_2
REMARK    2  A    between atoms: C_2  and  S_3
REMARK    3  A    between atoms: S_3  and  N_6
REMARK    4  A    between atoms: C_9  and  C_10
REMARK    5  A    between atoms: N_12  and  C_13
REMARK    6  A    between atoms: C_13  and  C_14
REMARK                            x       y       z     vdW  Elec       q    Type
REMARK                         _______ _______ _______ _____ _____    ______ ____
ROOT
ATOM      1  N   UNL     1       5.930   4.217  18.003  0.00  0.00    +0.000 NA
ATOM      2  C   UNL     1       5.316   4.990  19.122  0.00  0.00    +0.000 C 
ATOM      3  C   UNL     1       4.132   4.218  19.705  0.00  0.00    +0.000 C 
ATOM      4  C   UNL     1       3.081   3.889  18.637  0.00  0.00    +0.000 C 
ATOM      5  C   UNL     1       3.760   3.121  17.499  0.00  0.00    +0.000 C 
ATOM      6  C   UNL     1       4.952   3.887  16.926  0.00  0.00    +0.000 C 
ENDROOT
BRANCH   4   7
ATOM      7  C   UNL     1       2.372   5.161  18.160  0.00  0.00    +0.000 C 
ATOM      8  O   UNL     1       1.368   5.135  17.454  0.00  0.00    +0.000 OA
ATOM      9  N   UNL     1       2.952   6.339  18.570  0.00  0.00    +0.000 N 
ATOM     10  H   UNL     1       3.897   6.332  18.929  0.00  0.00    +0.000 HD
BRANCH   9  11
ATOM     11  C   UNL     1       2.393   7.618  18.184  0.00  0.00    +0.000 C 
BRANCH  11  12
ATOM     12  C   UNL     1       1.741   8.258  19.367  0.00  0.00    +0.000 A 
ATOM     13  C   UNL     1       1.677   7.781  20.664  0.00  0.00    +0.000 A 
ATOM     14  C   UNL     1       0.984   8.666  21.537  0.00  0.00    +0.000 A 
ATOM     15  C   UNL     1       0.544   9.794  20.881  0.00  0.00    +0.000 A 
ATOM     16  S   UNL     1       0.966   9.780  19.223  0.00  0.00    +0.000 S 
ENDBRANCH  11  12
ENDBRANCH   9  11
ENDBRANCH   4   7
BRANCH   1  17
ATOM     17  S   UNL     1       7.392   4.921  17.425  0.00  0.00    +0.000 S 
ATOM     18  O   UNL     1       7.190   5.308  16.043  0.00  0.00    +0.000 OA
ATOM     19  O   UNL     1       8.490   4.068  17.822  0.00  0.00    +0.000 OA
BRANCH  17  21
ATOM     20  C   UNL     1       7.628   7.640  17.513  0.00  0.00    +0.000 C 
ATOM     21  C   UNL     1       7.440   6.423  18.397  0.00  0.00    +0.000 C 
ENDBRANCH  17  21
ENDBRANCH   1  17
TORSDOF 5
ENDMDL
