MODEL 1
REMARK VINA RESULT:      -7.5      0.000      0.000
REMARK  Name = 
REMARK  4 active torsions:
REMARK  status: ('A' for Active; 'I' for Inactive)
REMARK    1  A    between atoms: C_1  and  N_2
REMARK    2  A    between atoms: C_4  and  C_5
REMARK    3  A    between atoms: C_5  and  N_6
REMARK    4  A    between atoms: C_5  and  C_13
REMARK                            x       y       z     vdW  Elec       q    Type
REMARK                         _______ _______ _______ _____ _____    ______ ____
ROOT
ATOM      1  C   UNL     1       3.251   6.059  18.576  0.00  0.00    +0.000 C 
ENDROOT
BRANCH   1   5
ATOM      2  C   UNL     1       7.742   8.021  17.339  0.00  0.00    +0.000 C 
ATOM      3  N   UNL     1       6.573   7.172  17.331  0.00  0.00    +0.000 N 
ATOM      4  C   UNL     1       5.494   7.307  18.164  0.00  0.00    +0.000 A 
ATOM      5  C   UNL     1       4.549   6.345  17.831  0.00  0.00    +0.000 A 
ATOM      6  C   UNL     1       5.088   5.637  16.698  0.00  0.00    +0.000 A 
ATOM      7  C   UNL     1       4.609   4.593  15.878  0.00  0.00    +0.000 A 
ATOM      8  C   UNL     1       5.467   3.974  14.964  0.00  0.00    +0.000 A 
ATOM      9  C   UNL     1       6.784   4.400  14.834  0.00  0.00    +0.000 A 
ATOM     10  C   UNL     1       7.261   5.487  15.572  0.00  0.00    +0.000 A 
ATOM     11  C   UNL     1       6.392   6.096  16.491  0.00  0.00    +0.000 A 
ENDBRANCH   1   5
BRANCH   1  12
ATOM     12  N   UNL     1       3.384   5.398  19.866  0.00  0.00    +0.000 N 
ATOM     13  C   UNL     1       2.668   4.253  20.159  0.00  0.00    +0.000 A 
ATOM     14  C   UNL     1       2.399   3.237  19.255  0.00  0.00    +0.000 A 
ATOM     15  C   UNL     1       1.682   2.119  19.678  0.00  0.00    +0.000 A 
ATOM     16  C   UNL     1       1.288   2.023  21.006  0.00  0.00    +0.000 A 
ATOM     17  C   UNL     1       1.622   3.063  21.850  0.00  0.00    +0.000 A 
ATOM     18  N   UNL     1       2.282   4.172  21.449  0.00  0.00    +0.000 NA
ATOM     19  H   UNL     1       3.197   5.980  20.673  0.00  0.00    +0.000 HD
ENDBRANCH   1  12
BRANCH   1  20
ATOM     20  C   UNL     1       2.557   7.439  18.685  0.00  0.00    +0.000 A 
ATOM     21  C   UNL     1       1.942   7.817  19.900  0.00  0.00    +0.000 A 
ATOM     22  C   UNL     1       1.250   9.027  20.020  0.00  0.00    +0.000 A 
ATOM     23  C   UNL     1       1.185   9.898  18.939  0.00  0.00    +0.000 A 
ATOM     24 CL   UNL     1       0.328  11.383  19.077  0.00  0.00    +0.000 Cl
ATOM     25  C   UNL     1       1.801   9.567  17.737  0.00  0.00    +0.000 A 
ATOM     26  C   UNL     1       2.470   8.346  17.609  0.00  0.00    +0.000 A 
ENDBRANCH   1  20
TORSDOF 3
ENDMDL
MODEL 2
REMARK VINA RESULT:      -7.4      4.742      8.869
REMARK  Name = 
REMARK  4 active torsions:
REMARK  status: ('A' for Active; 'I' for Inactive)
REMARK    1  A    between atoms: C_1  and  N_2
REMARK    2  A    between atoms: C_4  and  C_5
REMARK    3  A    between atoms: C_5  and  N_6
REMARK    4  A    between atoms: C_5  and  C_13
REMARK                            x       y       z     vdW  Elec       q    Type
REMARK                         _______ _______ _______ _____ _____    ______ ____
ROOT
ATOM      1  C   UNL     1      -0.265  10.462  19.106  0.00  0.00    +0.000 C 
ENDROOT
BRANCH   1   5
ATOM      2  C   UNL     1       2.843  14.278  20.263  0.00  0.00    +0.000 C 
ATOM      3  N   UNL     1       1.728  13.360  20.315  0.00  0.00    +0.000 N 
ATOM      4  C   UNL     1       1.533  12.307  19.460  0.00  0.00    +0.000 A 
ATOM      5  C   UNL     1       0.387  11.624  19.846  0.00  0.00    +0.000 A 
ATOM      6  C   UNL     1      -0.088  12.289  21.033  0.00  0.00    +0.000 A 
ATOM      7  C   UNL     1      -1.166  12.063  21.917  0.00  0.00    +0.000 A 
ATOM      8  C   UNL     1      -1.488  13.021  22.882  0.00  0.00    +0.000 A 
ATOM      9  C   UNL     1      -0.736  14.185  23.000  0.00  0.00    +0.000 A 
ATOM     10  C   UNL     1       0.387  14.396  22.195  0.00  0.00    +0.000 A 
ATOM     11  C   UNL     1       0.697  13.429  21.225  0.00  0.00    +0.000 A 
ENDBRANCH   1   5
BRANCH   1  12
ATOM     12  N   UNL     1      -0.692  10.730  17.741  0.00  0.00    +0.000 N 
ATOM     13  C   UNL     1      -2.025  10.920  17.434  0.00  0.00    +0.000 A 
ATOM     14  C   UNL     1      -2.932  11.593  18.237  0.00  0.00    +0.000 A 
ATOM     15  C   UNL     1      -4.249  11.738  17.806  0.00  0.00    +0.000 A 
ATOM     16  C   UNL     1      -4.619  11.244  16.563  0.00  0.00    +0.000 A 
ATOM     17  C   UNL     1      -3.649  10.614  15.810  0.00  0.00    +0.000 A 
ATOM     18  N   UNL     1      -2.377  10.430  16.227  0.00  0.00    +0.000 NA
ATOM     19  H   UNL     1      -0.409  10.040  17.056  0.00  0.00    +0.000 HD
ENDBRANCH   1  12
BRANCH   1  20
ATOM     20  C   UNL     1       0.777   9.320  19.189  0.00  0.00    +0.000 A 
ATOM     21  C   UNL     1       1.483   8.933  18.027  0.00  0.00    +0.000 A 
ATOM     22  C   UNL     1       2.386   7.864  18.046  0.00  0.00    +0.000 A 
ATOM     23  C   UNL     1       2.626   7.181  19.232  0.00  0.00    +0.000 A 
ATOM     24 CL   UNL     1       3.728   5.860  19.260  0.00  0.00    +0.000 Cl
ATOM     25  C   UNL     1       1.967   7.553  20.398  0.00  0.00    +0.000 A 
ATOM     26  C   UNL     1       1.046   8.604  20.374  0.00  0.00    +0.000 A 
ENDBRANCH   1  20
TORSDOF 3
ENDMDL
MODEL 3
REMARK VINA RESULT:      -7.3      5.188      9.276
REMARK  Name = 
REMARK  4 active torsions:
REMARK  status: ('A' for Active; 'I' for Inactive)
REMARK    1  A    between atoms: C_1  and  N_2
REMARK    2  A    between atoms: C_4  and  C_5
REMARK    3  A    between atoms: C_5  and  N_6
REMARK    4  A    between atoms: C_5  and  C_13
REMARK                            x       y       z     vdW  Elec       q    Type
REMARK                         _______ _______ _______ _____ _____    ______ ____
ROOT
ATOM      1  C   UNL     1       0.424  12.028  18.962  0.00  0.00    +0.000 C 
ENDROOT
BRANCH   1   5
ATOM      2  C   UNL     1      -4.406  12.703  20.293  0.00  0.00    +0.000 C 
ATOM      3  N   UNL     1      -3.238  12.264  19.564  0.00  0.00    +0.000 N 
ATOM      4  C   UNL     1      -1.941  12.524  19.922  0.00  0.00    +0.000 A 
ATOM      5  C   UNL     1      -1.094  11.904  19.012  0.00  0.00    +0.000 A 
ATOM      6  C   UNL     1      -1.949  11.192  18.097  0.00  0.00    +0.000 A 
ATOM      7  C   UNL     1      -1.712  10.347  16.991  0.00  0.00    +0.000 A 
ATOM      8  C   UNL     1      -2.773   9.963  16.166  0.00  0.00    +0.000 A 
ATOM      9  C   UNL     1      -4.069  10.383  16.443  0.00  0.00    +0.000 A 
ATOM     10  C   UNL     1      -4.346  11.150  17.579  0.00  0.00    +0.000 A 
ATOM     11  C   UNL     1      -3.270  11.534  18.396  0.00  0.00    +0.000 A 
ENDBRANCH   1   5
BRANCH   1  12
ATOM     12  N   UNL     1       1.016  13.017  19.852  0.00  0.00    +0.000 N 
ATOM     13  C   UNL     1       2.201  13.649  19.529  0.00  0.00    +0.000 A 
ATOM     14  C   UNL     1       2.561  14.048  18.251  0.00  0.00    +0.000 A 
ATOM     15  C   UNL     1       3.778  14.698  18.056  0.00  0.00    +0.000 A 
ATOM     16  C   UNL     1       4.587  14.973  19.149  0.00  0.00    +0.000 A 
ATOM     17  C   UNL     1       4.144  14.571  20.393  0.00  0.00    +0.000 A 
ATOM     18  N   UNL     1       2.985  13.905  20.596  0.00  0.00    +0.000 NA
ATOM     19  H   UNL     1       1.193  12.698  20.796  0.00  0.00    +0.000 HD
ENDBRANCH   1  12
BRANCH   1  20
ATOM     20  C   UNL     1       0.938  10.595  19.241  0.00  0.00    +0.000 A 
ATOM     21  C   UNL     1       1.615   9.885  18.223  0.00  0.00    +0.000 A 
ATOM     22  C   UNL     1       2.039   8.566  18.414  0.00  0.00    +0.000 A 
ATOM     23  C   UNL     1       1.824   7.939  19.636  0.00  0.00    +0.000 A 
ATOM     24 CL   UNL     1       2.334   6.313  19.873  0.00  0.00    +0.000 Cl
ATOM     25  C   UNL     1       1.183   8.617  20.666  0.00  0.00    +0.000 A 
ATOM     26  C   UNL     1       0.737   9.927  20.467  0.00  0.00    +0.000 A 
ENDBRANCH   1  20
TORSDOF 3
ENDMDL
MODEL 4
REMARK VINA RESULT:      -7.3      4.817      8.847
REMARK  Name = 
REMARK  4 active torsions:
REMARK  status: ('A' for Active; 'I' for Inactive)
REMARK    1  A    between atoms: C_1  and  N_2
REMARK    2  A    between atoms: C_4  and  C_5
REMARK    3  A    between atoms: C_5  and  N_6
REMARK    4  A    between atoms: C_5  and  C_13
REMARK                            x       y       z     vdW  Elec       q    Type
REMARK                         _______ _______ _______ _____ _____    ______ ____
ROOT
ATOM      1  C   UNL     1      -0.270  10.742  19.082  0.00  0.00    +0.000 C 
ENDROOT
BRANCH   1   5
ATOM      2  C   UNL     1       3.249  14.220  20.121  0.00  0.00    +0.000 C 
ATOM      3  N   UNL     1       2.039  13.434  20.201  0.00  0.00    +0.000 N 
ATOM      4  C   UNL     1       1.725  12.384  19.379  0.00  0.00    +0.000 A 
ATOM      5  C   UNL     1       0.510  11.846  19.786  0.00  0.00    +0.000 A 
ATOM      6  C   UNL     1       0.117  12.596  20.952  0.00  0.00    +0.000 A 
ATOM      7  C   UNL     1      -0.976  12.520  21.842  0.00  0.00    +0.000 A 
ATOM      8  C   UNL     1      -1.185  13.537  22.778  0.00  0.00    +0.000 A 
ATOM      9  C   UNL     1      -0.308  14.612  22.859  0.00  0.00    +0.000 A 
ATOM     10  C   UNL     1       0.829  14.671  22.048  0.00  0.00    +0.000 A 
ATOM     11  C   UNL     1       1.025  13.646  21.108  0.00  0.00    +0.000 A 
ENDBRANCH   1   5
BRANCH   1  12
ATOM     12  N   UNL     1      -0.747  11.049  17.742  0.00  0.00    +0.000 N 
ATOM     13  C   UNL     1      -2.098  11.129  17.466  0.00  0.00    +0.000 A 
ATOM     14  C   UNL     1      -3.049  11.664  18.322  0.00  0.00    +0.000 A 
ATOM     15  C   UNL     1      -4.382  11.708  17.920  0.00  0.00    +0.000 A 
ATOM     16  C   UNL     1      -4.728  11.256  16.654  0.00  0.00    +0.000 A 
ATOM     17  C   UNL     1      -3.719  10.767  15.850  0.00  0.00    +0.000 A 
ATOM     18  N   UNL     1      -2.427  10.681  16.237  0.00  0.00    +0.000 NA
ATOM     19  H   UNL     1      -0.415  10.431  17.012  0.00  0.00    +0.000 HD
ENDBRANCH   1  12
BRANCH   1  20
ATOM     20  C   UNL     1       0.682   9.521  19.108  0.00  0.00    +0.000 A 
ATOM     21  C   UNL     1       0.920   8.848  20.328  0.00  0.00    +0.000 A 
ATOM     22  C   UNL     1       1.821   7.781  20.407  0.00  0.00    +0.000 A 
ATOM     23  C   UNL     1       2.479   7.344  19.263  0.00  0.00    +0.000 A 
ATOM     24 CL   UNL     1       3.595   6.038  19.355  0.00  0.00    +0.000 Cl
ATOM     25  C   UNL     1       2.248   7.969  18.043  0.00  0.00    +0.000 A 
ATOM     26  C   UNL     1       1.367   9.052  17.969  0.00  0.00    +0.000 A 
ENDBRANCH   1  20
TORSDOF 3
ENDMDL
MODEL 5
REMARK VINA RESULT:      -7.3      4.898      9.265
REMARK  Name = 
REMARK  4 active torsions:
REMARK  status: ('A' for Active; 'I' for Inactive)
REMARK    1  A    between atoms: C_1  and  N_2
REMARK    2  A    between atoms: C_4  and  C_5
REMARK    3  A    between atoms: C_5  and  N_6
REMARK    4  A    between atoms: C_5  and  C_13
REMARK                            x       y       z     vdW  Elec       q    Type
REMARK                         _______ _______ _______ _____ _____    ______ ____
ROOT
ATOM      1  C   UNL     1       0.838  11.735  19.096  0.00  0.00    +0.000 C 
ENDROOT
BRANCH   1   5
ATOM      2  C   UNL     1      -3.862  12.851  20.585  0.00  0.00    +0.000 C 
ATOM      3  N   UNL     1      -2.765  12.305  19.820  0.00  0.00    +0.000 N 
ATOM      4  C   UNL     1      -1.438  12.447  20.132  0.00  0.00    +0.000 A 
ATOM      5  C   UNL     1      -0.683  11.748  19.199  0.00  0.00    +0.000 A 
ATOM      6  C   UNL     1      -1.630  11.113  18.319  0.00  0.00    +0.000 A 
ATOM      7  C   UNL     1      -1.509  10.246  17.212  0.00  0.00    +0.000 A 
ATOM      8  C   UNL     1      -2.629   9.956  16.427  0.00  0.00    +0.000 A 
ATOM      9  C   UNL     1      -3.870  10.493  16.745  0.00  0.00    +0.000 A 
ATOM     10  C   UNL     1      -4.037  11.287  17.883  0.00  0.00    +0.000 A 
ATOM     11  C   UNL     1      -2.904  11.576  18.660  0.00  0.00    +0.000 A 
ENDBRANCH   1   5
BRANCH   1  12
ATOM     12  N   UNL     1       1.552  12.586  20.036  0.00  0.00    +0.000 N 
ATOM     13  C   UNL     1       2.161  13.754  19.620  0.00  0.00    +0.000 A 
ATOM     14  C   UNL     1       1.646  14.617  18.666  0.00  0.00    +0.000 A 
ATOM     15  C   UNL     1       2.347  15.779  18.346  0.00  0.00    +0.000 A 
ATOM     16  C   UNL     1       3.525  16.072  19.019  0.00  0.00    +0.000 A 
ATOM     17  C   UNL     1       3.955  15.177  19.978  0.00  0.00    +0.000 A 
ATOM     18  N   UNL     1       3.309  14.027  20.274  0.00  0.00    +0.000 NA
ATOM     19  H   UNL     1       2.291  12.132  20.557  0.00  0.00    +0.000 HD
ENDBRANCH   1  12
BRANCH   1  20
ATOM     20  C   UNL     1       1.220  10.241  19.240  0.00  0.00    +0.000 A 
ATOM     21  C   UNL     1       0.978   9.573  20.462  0.00  0.00    +0.000 A 
ATOM     22  C   UNL     1       1.367   8.243  20.654  0.00  0.00    +0.000 A 
ATOM     23  C   UNL     1       1.975   7.543  19.619  0.00  0.00    +0.000 A 
ATOM     24 CL   UNL     1       2.463   5.910  19.852  0.00  0.00    +0.000 Cl
ATOM     25  C   UNL     1       2.205   8.163  18.396  0.00  0.00    +0.000 A 
ATOM     26  C   UNL     1       1.840   9.500  18.213  0.00  0.00    +0.000 A 
ENDBRANCH   1  20
TORSDOF 3
ENDMDL
MODEL 6
REMARK VINA RESULT:      -7.1      0.340      1.022
REMARK  Name = 
REMARK  4 active torsions:
REMARK  status: ('A' for Active; 'I' for Inactive)
REMARK    1  A    between atoms: C_1  and  N_2
REMARK    2  A    between atoms: C_4  and  C_5
REMARK    3  A    between atoms: C_5  and  N_6
REMARK    4  A    between atoms: C_5  and  C_13
REMARK                            x       y       z     vdW  Elec       q    Type
REMARK                         _______ _______ _______ _____ _____    ______ ____
ROOT
ATOM      1  C   UNL     1       3.438   5.745  18.423  0.00  0.00    +0.000 C 
ENDROOT
BRANCH   1   5
ATOM      2  C   UNL     1       7.863   7.926  17.321  0.00  0.00    +0.000 C 
ATOM      3  N   UNL     1       6.714   7.054  17.246  0.00  0.00    +0.000 N 
ATOM      4  C   UNL     1       5.645   7.082  18.104  0.00  0.00    +0.000 A 
ATOM      5  C   UNL     1       4.718   6.133  17.692  0.00  0.00    +0.000 A 
ATOM      6  C   UNL     1       5.253   5.552  16.488  0.00  0.00    +0.000 A 
ATOM      7  C   UNL     1       4.785   4.581  15.577  0.00  0.00    +0.000 A 
ATOM      8  C   UNL     1       5.643   4.075  14.595  0.00  0.00    +0.000 A 
ATOM      9  C   UNL     1       6.947   4.543  14.489  0.00  0.00    +0.000 A 
ATOM     10  C   UNL     1       7.412   5.564  15.322  0.00  0.00    +0.000 A 
ATOM     11  C   UNL     1       6.543   6.060  16.308  0.00  0.00    +0.000 A 
ENDBRANCH   1   5
BRANCH   1  12
ATOM     12  N   UNL     1       3.609   5.025  19.677  0.00  0.00    +0.000 N 
ATOM     13  C   UNL     1       2.714   4.048  20.066  0.00  0.00    +0.000 A 
ATOM     14  C   UNL     1       2.108   3.144  19.207  0.00  0.00    +0.000 A 
ATOM     15  C   UNL     1       1.237   2.188  19.726  0.00  0.00    +0.000 A 
ATOM     16  C   UNL     1       1.025   2.130  21.096  0.00  0.00    +0.000 A 
ATOM     17  C   UNL     1       1.690   3.045  21.887  0.00  0.00    +0.000 A 
ATOM     18  N   UNL     1       2.508   4.003  21.399  0.00  0.00    +0.000 NA
ATOM     19  H   UNL     1       3.668   5.605  20.505  0.00  0.00    +0.000 HD
ENDBRANCH   1  12
BRANCH   1  20
ATOM     20  C   UNL     1       2.678   7.082  18.605  0.00  0.00    +0.000 A 
ATOM     21  C   UNL     1       2.569   7.977  17.517  0.00  0.00    +0.000 A 
ATOM     22  C   UNL     1       1.946   9.222  17.658  0.00  0.00    +0.000 A 
ATOM     23  C   UNL     1       1.391   9.584  18.879  0.00  0.00    +0.000 A 
ATOM     24 CL   UNL     1       0.631  11.117  19.061  0.00  0.00    +0.000 Cl
ATOM     25  C   UNL     1       1.459   8.716  19.963  0.00  0.00    +0.000 A 
ATOM     26  C   UNL     1       2.104   7.483  19.829  0.00  0.00    +0.000 A 
ENDBRANCH   1  20
TORSDOF 3
ENDMDL
MODEL 7
REMARK VINA RESULT:      -7.1      4.543      7.604
REMARK  Name = 
REMARK  4 active torsions:
REMARK  status: ('A' for Active; 'I' for Inactive)
REMARK    1  A    between atoms: C_1  and  N_2
REMARK    2  A    between atoms: C_4  and  C_5
REMARK    3  A    between atoms: C_5  and  N_6
REMARK    4  A    between atoms: C_5  and  C_13
REMARK                            x       y       z     vdW  Elec       q    Type
REMARK                         _______ _______ _______ _____ _____    ______ ____
ROOT
ATOM      1  C   UNL     1      -0.354  11.559  18.559  0.00  0.00    +0.000 C 
ENDROOT
BRANCH   1   5
ATOM      2  C   UNL     1       0.937   9.167  22.821  0.00  0.00    +0.000 C 
ATOM      3  N   UNL     1       0.825   9.494  21.418  0.00  0.00    +0.000 N 
ATOM      4  C   UNL     1       0.166  10.584  20.913  0.00  0.00    +0.000 A 
ATOM      5  C   UNL     1       0.313  10.594  19.531  0.00  0.00    +0.000 A 
ATOM      6  C   UNL     1       1.156   9.469  19.215  0.00  0.00    +0.000 A 
ATOM      7  C   UNL     1       1.703   8.962  18.017  0.00  0.00    +0.000 A 
ATOM      8  C   UNL     1       2.330   7.712  18.010  0.00  0.00    +0.000 A 
ATOM      9  C   UNL     1       2.445   6.975  19.183  0.00  0.00    +0.000 A 
ATOM     10  C   UNL     1       1.988   7.489  20.400  0.00  0.00    +0.000 A 
ATOM     11  C   UNL     1       1.355   8.743  20.393  0.00  0.00    +0.000 A 
ENDBRANCH   1   5
BRANCH   1  12
ATOM     12  N   UNL     1      -1.809  11.527  18.522  0.00  0.00    +0.000 N 
ATOM     13  C   UNL     1      -2.485  11.072  17.406  0.00  0.00    +0.000 A 
ATOM     14  C   UNL     1      -2.077  10.009  16.615  0.00  0.00    +0.000 A 
ATOM     15  C   UNL     1      -2.858   9.630  15.525  0.00  0.00    +0.000 A 
ATOM     16  C   UNL     1      -4.051  10.295  15.277  0.00  0.00    +0.000 A 
ATOM     17  C   UNL     1      -4.402  11.321  16.129  0.00  0.00    +0.000 A 
ATOM     18  N   UNL     1      -3.639  11.728  17.168  0.00  0.00    +0.000 NA
ATOM     19  H   UNL     1      -2.267  12.412  18.704  0.00  0.00    +0.000 HD
ENDBRANCH   1  12
BRANCH   1  20
ATOM     20  C   UNL     1       0.199  12.950  18.956  0.00  0.00    +0.000 A 
ATOM     21  C   UNL     1      -0.685  13.941  19.440  0.00  0.00    +0.000 A 
ATOM     22  C   UNL     1      -0.236  15.229  19.748  0.00  0.00    +0.000 A 
ATOM     23  C   UNL     1       1.111  15.545  19.611  0.00  0.00    +0.000 A 
ATOM     24 CL   UNL     1       1.667  17.130  19.980  0.00  0.00    +0.000 Cl
ATOM     25  C   UNL     1       2.010  14.586  19.160  0.00  0.00    +0.000 A 
ATOM     26  C   UNL     1       1.557  13.306  18.828  0.00  0.00    +0.000 A 
ENDBRANCH   1  20
TORSDOF 3
ENDMDL
MODEL 8
REMARK VINA RESULT:      -7.1      1.594      5.096
REMARK  Name = 
REMARK  4 active torsions:
REMARK  status: ('A' for Active; 'I' for Inactive)
REMARK    1  A    between atoms: C_1  and  N_2
REMARK    2  A    between atoms: C_4  and  C_5
REMARK    3  A    between atoms: C_5  and  N_6
REMARK    4  A    between atoms: C_5  and  C_13
REMARK                            x       y       z     vdW  Elec       q    Type
REMARK                         _______ _______ _______ _____ _____    ______ ____
ROOT
ATOM      1  C   UNL     1       4.314   6.363  18.136  0.00  0.00    +0.000 C 
ENDROOT
BRANCH   1   5
ATOM      2  C   UNL     1       4.791   1.959  20.570  0.00  0.00    +0.000 C 
ATOM      3  N   UNL     1       4.226   3.031  19.783  0.00  0.00    +0.000 N 
ATOM      4  C   UNL     1       4.879   4.185  19.438  0.00  0.00    +0.000 A 
ATOM      5  C   UNL     1       4.038   4.953  18.643  0.00  0.00    +0.000 A 
ATOM      6  C   UNL     1       2.839   4.174  18.467  0.00  0.00    +0.000 A 
ATOM      7  C   UNL     1       1.642   4.368  17.745  0.00  0.00    +0.000 A 
ATOM      8  C   UNL     1       0.562   3.502  17.939  0.00  0.00    +0.000 A 
ATOM      9  C   UNL     1       0.666   2.431  18.818  0.00  0.00    +0.000 A 
ATOM     10  C   UNL     1       1.867   2.164  19.483  0.00  0.00    +0.000 A 
ATOM     11  C   UNL     1       2.943   3.044  19.284  0.00  0.00    +0.000 A 
ENDBRANCH   1   5
BRANCH   1  12
ATOM     12  N   UNL     1       4.472   6.508  16.696  0.00  0.00    +0.000 N 
ATOM     13  C   UNL     1       5.184   5.582  15.959  0.00  0.00    +0.000 A 
ATOM     14  C   UNL     1       5.177   4.215  16.189  0.00  0.00    +0.000 A 
ATOM     15  C   UNL     1       5.923   3.379  15.361  0.00  0.00    +0.000 A 
ATOM     16  C   UNL     1       6.626   3.925  14.295  0.00  0.00    +0.000 A 
ATOM     17  C   UNL     1       6.558   5.291  14.115  0.00  0.00    +0.000 A 
ATOM     18  N   UNL     1       5.871   6.122  14.931  0.00  0.00    +0.000 NA
ATOM     19  H   UNL     1       4.877   7.384  16.390  0.00  0.00    +0.000 HD
ENDBRANCH   1  12
BRANCH   1  20
ATOM     20  C   UNL     1       3.143   7.209  18.692  0.00  0.00    +0.000 A 
ATOM     21  C   UNL     1       2.575   8.227  17.893  0.00  0.00    +0.000 A 
ATOM     22  C   UNL     1       1.559   9.056  18.382  0.00  0.00    +0.000 A 
ATOM     23  C   UNL     1       1.067   8.863  19.667  0.00  0.00    +0.000 A 
ATOM     24 CL   UNL     1      -0.176   9.883  20.277  0.00  0.00    +0.000 Cl
ATOM     25  C   UNL     1       1.586   7.854  20.470  0.00  0.00    +0.000 A 
ATOM     26  C   UNL     1       2.619   7.043  19.991  0.00  0.00    +0.000 A 
ENDBRANCH   1  20
TORSDOF 3
ENDMDL
MODEL 9
REMARK VINA RESULT:      -7.1      4.445      7.483
REMARK  Name = 
REMARK  4 active torsions:
REMARK  status: ('A' for Active; 'I' for Inactive)
REMARK    1  A    between atoms: C_1  and  N_2
REMARK    2  A    between atoms: C_4  and  C_5
REMARK    3  A    between atoms: C_5  and  N_6
REMARK    4  A    between atoms: C_5  and  C_13
REMARK                            x       y       z     vdW  Elec       q    Type
REMARK                         _______ _______ _______ _____ _____    ______ ____
ROOT
ATOM      1  C   UNL     1      -0.193  11.460  18.449  0.00  0.00    +0.000 C 
ENDROOT
BRANCH   1   5
ATOM      2  C   UNL     1       1.150   9.109  22.719  0.00  0.00    +0.000 C 
ATOM      3  N   UNL     1       1.011   9.416  21.314  0.00  0.00    +0.000 N 
ATOM      4  C   UNL     1       0.364  10.512  20.806  0.00  0.00    +0.000 A 
ATOM      5  C   UNL     1       0.477  10.496  19.421  0.00  0.00    +0.000 A 
ATOM      6  C   UNL     1       1.287   9.348  19.104  0.00  0.00    +0.000 A 
ATOM      7  C   UNL     1       1.794   8.809  17.902  0.00  0.00    +0.000 A 
ATOM      8  C   UNL     1       2.392   7.545  17.901  0.00  0.00    +0.000 A 
ATOM      9  C   UNL     1       2.519   6.825  19.083  0.00  0.00    +0.000 A 
ATOM     10  C   UNL     1       2.104   7.369  20.302  0.00  0.00    +0.000 A 
ATOM     11  C   UNL     1       1.499   8.637  20.289  0.00  0.00    +0.000 A 
ENDBRANCH   1   5
BRANCH   1  12
ATOM     12  N   UNL     1      -1.648  11.486  18.473  0.00  0.00    +0.000 N 
ATOM     13  C   UNL     1      -2.387  11.046  17.393  0.00  0.00    +0.000 A 
ATOM     14  C   UNL     1      -2.056   9.959  16.599  0.00  0.00    +0.000 A 
ATOM     15  C   UNL     1      -2.897   9.600  15.547  0.00  0.00    +0.000 A 
ATOM     16  C   UNL     1      -4.072  10.309  15.340  0.00  0.00    +0.000 A 
ATOM     17  C   UNL     1      -4.345  11.359  16.193  0.00  0.00    +0.000 A 
ATOM     18  N   UNL     1      -3.524  11.746  17.194  0.00  0.00    +0.000 NA
ATOM     19  H   UNL     1      -2.062  12.391  18.663  0.00  0.00    +0.000 HD
ENDBRANCH   1  12
BRANCH   1  20
ATOM     20  C   UNL     1       0.431  12.837  18.781  0.00  0.00    +0.000 A 
ATOM     21  C   UNL     1       1.816  13.042  18.584  0.00  0.00    +0.000 A 
ATOM     22  C   UNL     1       2.430  14.251  18.931  0.00  0.00    +0.000 A 
ATOM     23  C   UNL     1       1.668  15.290  19.452  0.00  0.00    +0.000 A 
ATOM     24 CL   UNL     1       2.419  16.775  19.889  0.00  0.00    +0.000 Cl
ATOM     25  C   UNL     1       0.299  15.130  19.635  0.00  0.00    +0.000 A 
ATOM     26  C   UNL     1      -0.310  13.913  19.312  0.00  0.00    +0.000 A 
ENDBRANCH   1  20
TORSDOF 3
ENDMDL
