MODEL 1
REMARK VINA RESULT:      -6.6      0.000      0.000
REMARK  Name = 
REMARK  13 active torsions:
REMARK  status: ('A' for Active; 'I' for Inactive)
REMARK    1  A    between atoms: C_1  and  O_2
REMARK    2  A    between atoms: O_2  and  C_3
REMARK    3  A    between atoms: C_3  and  C_4
REMARK    4  A    between atoms: C_4  and  N_5
REMARK    5  A    between atoms: N_5  and  C_6
REMARK    6  A    between atoms: N_5  and  C_7
REMARK    7  A    between atoms: C_7  and  C_8
REMARK    8  A    between atoms: C_14  and  O_15
REMARK    9  A    between atoms: O_15  and  C_16
REMARK   10  A    between atoms: C_16  and  C_17
REMARK   11  A    between atoms: C_17  and  O_18
REMARK   12  A    between atoms: C_17  and  C_19
REMARK   13  A    between atoms: C_19  and  N_20
REMARK                            x       y       z     vdW  Elec       q    Type
REMARK                         _______ _______ _______ _____ _____    ______ ____
ROOT
ATOM      1  C   UNL     1       3.898   5.411  18.272  0.00  0.00    +0.000 A 
ATOM      2  C   UNL     1       4.714   4.564  17.483  0.00  0.00    +0.000 A 
ATOM      3  C   UNL     1       5.331   5.019  16.317  0.00  0.00    +0.000 A 
ATOM      4 CL   UNL     1       6.313   3.951  15.393  0.00  0.00    +0.000 Cl
ATOM      5  C   UNL     1       5.149   6.328  15.901  0.00  0.00    +0.000 A 
ATOM      6  C   UNL     1       4.348   7.177  16.663  0.00  0.00    +0.000 A 
ATOM      7  C   UNL     1       3.735   6.745  17.853  0.00  0.00    +0.000 A 
ENDROOT
BRANCH   1   8
ATOM      8  C   UNL     1       3.300   4.770  19.512  0.00  0.00    +0.000 C 
BRANCH   8   9
ATOM      9  N   UNL     1       1.840   4.887  19.640  0.00  0.00    +0.000 NA
ATOM     10  C   UNL     1       1.515   5.703  20.812  0.00  0.00    +0.000 C 
BRANCH   9  11
ATOM     11  C   UNL     1       1.179   3.569  19.689  0.00  0.00    +0.000 C 
BRANCH  11  12
ATOM     12  C   UNL     1       2.170   2.401  19.824  0.00  0.00    +0.000 C 
BRANCH  12  14
ATOM     13  C   UNL     1       3.678   1.245  18.444  0.00  0.00    +0.000 C 
ATOM     14  O   UNL     1       2.367   1.788  18.547  0.00  0.00    +0.000 OA
ENDBRANCH  12  14
ENDBRANCH  11  12
ENDBRANCH   9  11
ENDBRANCH   8   9
ENDBRANCH   1   8
BRANCH   7  15
ATOM     15  O   UNL     1       2.994   7.749  18.422  0.00  0.00    +0.000 OA
BRANCH  15  16
ATOM     16  C   UNL     1       2.079   8.475  17.602  0.00  0.00    +0.000 C 
BRANCH  16  17
ATOM     17  C   UNL     1       1.719   9.803  18.282  0.00  0.00    +0.000 C 
BRANCH  17  18
ATOM     18  O   UNL     1       2.176  10.892  17.460  0.00  0.00    +0.000 OA
ATOM     19  H   UNL     1       2.463  10.487  16.620  0.00  0.00    +0.000 HD
ENDBRANCH  17  18
BRANCH  17  20
ATOM     20  C   UNL     1       0.206   9.985  18.543  0.00  0.00    +0.000 C 
BRANCH  20  21
ATOM     21  N   UNL     1      -0.223  10.140  19.952  0.00  0.00    +0.000 NA
ATOM     22  C   UNL     1       0.561   9.330  20.884  0.00  0.00    +0.000 C 
ATOM     23  C   UNL     1      -0.284   8.889  22.086  0.00  0.00    +0.000 C 
ATOM     24  C   UNL     1      -0.505   9.947  23.160  0.00  0.00    +0.000 C 
ATOM     25  C   UNL     1      -1.153  11.232  22.660  0.00  0.00    +0.000 C 
ATOM     26  C   UNL     1      -0.226  12.013  21.739  0.00  0.00    +0.000 C 
ATOM     27  C   UNL     1      -0.264  11.576  20.274  0.00  0.00    +0.000 C 
ENDBRANCH  20  21
ENDBRANCH  17  20
ENDBRANCH  16  17
ENDBRANCH  15  16
ENDBRANCH   7  15
TORSDOF 11
ENDMDL
MODEL 2
REMARK VINA RESULT:      -6.6      2.306      4.281
REMARK  Name = 
REMARK  13 active torsions:
REMARK  status: ('A' for Active; 'I' for Inactive)
REMARK    1  A    between atoms: C_1  and  O_2
REMARK    2  A    between atoms: O_2  and  C_3
REMARK    3  A    between atoms: C_3  and  C_4
REMARK    4  A    between atoms: C_4  and  N_5
REMARK    5  A    between atoms: N_5  and  C_6
REMARK    6  A    between atoms: N_5  and  C_7
REMARK    7  A    between atoms: C_7  and  C_8
REMARK    8  A    between atoms: C_14  and  O_15
REMARK    9  A    between atoms: O_15  and  C_16
REMARK   10  A    between atoms: C_16  and  C_17
REMARK   11  A    between atoms: C_17  and  O_18
REMARK   12  A    between atoms: C_17  and  C_19
REMARK   13  A    between atoms: C_19  and  N_20
REMARK                            x       y       z     vdW  Elec       q    Type
REMARK                         _______ _______ _______ _____ _____    ______ ____
ROOT
ATOM      1  C   UNL     1       3.161   5.123  18.345  0.00  0.00    +0.000 A 
ATOM      2  C   UNL     1       2.776   3.977  19.082  0.00  0.00    +0.000 A 
ATOM      3  C   UNL     1       2.049   4.078  20.268  0.00  0.00    +0.000 A 
ATOM      4 CL   UNL     1       1.605   2.656  21.127  0.00  0.00    +0.000 Cl
ATOM      5  C   UNL     1       1.689   5.324  20.758  0.00  0.00    +0.000 A 
ATOM      6  C   UNL     1       2.060   6.465  20.048  0.00  0.00    +0.000 A 
ATOM      7  C   UNL     1       2.774   6.384  18.838  0.00  0.00    +0.000 A 
ENDROOT
BRANCH   1   8
ATOM      8  C   UNL     1       3.945   4.848  17.074  0.00  0.00    +0.000 C 
BRANCH   8   9
ATOM      9  N   UNL     1       5.000   5.824  16.760  0.00  0.00    +0.000 NA
ATOM     10  C   UNL     1       5.488   5.596  15.398  0.00  0.00    +0.000 C 
BRANCH   9  11
ATOM     11  C   UNL     1       6.096   5.794  17.747  0.00  0.00    +0.000 C 
BRANCH  11  12
ATOM     12  C   UNL     1       7.354   6.543  17.277  0.00  0.00    +0.000 C 
BRANCH  12  14
ATOM     13  C   UNL     1       8.074   8.686  17.917  0.00  0.00    +0.000 C 
ATOM     14  O   UNL     1       7.082   7.946  17.215  0.00  0.00    +0.000 OA
ENDBRANCH  12  14
ENDBRANCH  11  12
ENDBRANCH   9  11
ENDBRANCH   8   9
ENDBRANCH   1   8
BRANCH   7  15
ATOM     15  O   UNL     1       3.031   7.631  18.329  0.00  0.00    +0.000 OA
BRANCH  15  16
ATOM     16  C   UNL     1       1.979   8.331  17.666  0.00  0.00    +0.000 C 
BRANCH  16  17
ATOM     17  C   UNL     1       1.790   9.711  18.311  0.00  0.00    +0.000 C 
BRANCH  17  18
ATOM     18  O   UNL     1       2.229  10.725  17.391  0.00  0.00    +0.000 OA
ATOM     19  H   UNL     1       2.151  10.328  16.503  0.00  0.00    +0.000 HD
ENDBRANCH  17  18
BRANCH  17  20
ATOM     20  C   UNL     1       0.332  10.017  18.723  0.00  0.00    +0.000 C 
BRANCH  20  21
ATOM     21  N   UNL     1       0.075  10.277  20.158  0.00  0.00    +0.000 NA
ATOM     22  C   UNL     1      -1.115  11.097  20.389  0.00  0.00    +0.000 C 
ATOM     23  C   UNL     1      -0.957  11.963  21.646  0.00  0.00    +0.000 C 
ATOM     24  C   UNL     1      -1.171  11.244  22.973  0.00  0.00    +0.000 C 
ATOM     25  C   UNL     1      -0.262  10.042  23.195  0.00  0.00    +0.000 C 
ATOM     26  C   UNL     1      -0.592   8.899  22.246  0.00  0.00    +0.000 C 
ATOM     27  C   UNL     1       0.081   8.991  20.875  0.00  0.00    +0.000 C 
ENDBRANCH  20  21
ENDBRANCH  17  20
ENDBRANCH  16  17
ENDBRANCH  15  16
ENDBRANCH   7  15
TORSDOF 11
ENDMDL
MODEL 3
REMARK VINA RESULT:      -6.4      2.302      3.535
REMARK  Name = 
REMARK  13 active torsions:
REMARK  status: ('A' for Active; 'I' for Inactive)
REMARK    1  A    between atoms: C_1  and  O_2
REMARK    2  A    between atoms: O_2  and  C_3
REMARK    3  A    between atoms: C_3  and  C_4
REMARK    4  A    between atoms: C_4  and  N_5
REMARK    5  A    between atoms: N_5  and  C_6
REMARK    6  A    between atoms: N_5  and  C_7
REMARK    7  A    between atoms: C_7  and  C_8
REMARK    8  A    between atoms: C_14  and  O_15
REMARK    9  A    between atoms: O_15  and  C_16
REMARK   10  A    between atoms: C_16  and  C_17
REMARK   11  A    between atoms: C_17  and  O_18
REMARK   12  A    between atoms: C_17  and  C_19
REMARK   13  A    between atoms: C_19  and  N_20
REMARK                            x       y       z     vdW  Elec       q    Type
REMARK                         _______ _______ _______ _____ _____    ______ ____
ROOT
ATOM      1  C   UNL     1       4.090   5.491  18.250  0.00  0.00    +0.000 A 
ATOM      2  C   UNL     1       3.857   4.108  18.053  0.00  0.00    +0.000 A 
ATOM      3  C   UNL     1       2.575   3.606  17.825  0.00  0.00    +0.000 A 
ATOM      4 CL   UNL     1       2.343   1.918  17.591  0.00  0.00    +0.000 Cl
ATOM      5  C   UNL     1       1.489   4.466  17.792  0.00  0.00    +0.000 A 
ATOM      6  C   UNL     1       1.697   5.831  17.985  0.00  0.00    +0.000 A 
ATOM      7  C   UNL     1       2.984   6.360  18.195  0.00  0.00    +0.000 A 
ENDROOT
BRANCH   1   8
ATOM      8  C   UNL     1       5.539   5.880  18.484  0.00  0.00    +0.000 C 
BRANCH   8   9
ATOM      9  N   UNL     1       6.523   5.190  17.637  0.00  0.00    +0.000 NA
ATOM     10  C   UNL     1       7.724   4.895  18.422  0.00  0.00    +0.000 C 
BRANCH   9  11
ATOM     11  C   UNL     1       6.839   5.955  16.417  0.00  0.00    +0.000 C 
BRANCH  11  12
ATOM     12  C   UNL     1       6.125   5.421  15.165  0.00  0.00    +0.000 C 
BRANCH  12  14
ATOM     13  C   UNL     1       6.234   3.735  13.532  0.00  0.00    +0.000 C 
ATOM     14  O   UNL     1       6.971   4.486  14.491  0.00  0.00    +0.000 OA
ENDBRANCH  12  14
ENDBRANCH  11  12
ENDBRANCH   9  11
ENDBRANCH   8   9
ENDBRANCH   1   8
BRANCH   7  15
ATOM     15  O   UNL     1       2.939   7.719  18.367  0.00  0.00    +0.000 OA
BRANCH  15  16
ATOM     16  C   UNL     1       2.032   8.482  17.570  0.00  0.00    +0.000 C 
BRANCH  16  17
ATOM     17  C   UNL     1       1.697   9.797  18.287  0.00  0.00    +0.000 C 
BRANCH  17  18
ATOM     18  O   UNL     1       2.162  10.900  17.489  0.00  0.00    +0.000 OA
ATOM     19  H   UNL     1       3.047  11.121  17.834  0.00  0.00    +0.000 HD
ENDBRANCH  17  18
BRANCH  17  20
ATOM     20  C   UNL     1       0.189   9.993  18.567  0.00  0.00    +0.000 C 
BRANCH  20  21
ATOM     21  N   UNL     1      -0.230  10.079  19.984  0.00  0.00    +0.000 NA
ATOM     22  C   UNL     1       0.564   9.229  20.871  0.00  0.00    +0.000 C 
ATOM     23  C   UNL     1      -0.271   8.728  22.057  0.00  0.00    +0.000 C 
ATOM     24  C   UNL     1      -0.487   9.732  23.182  0.00  0.00    +0.000 C 
ATOM     25  C   UNL     1      -1.144  11.037  22.748  0.00  0.00    +0.000 C 
ATOM     26  C   UNL     1      -0.227  11.865  21.858  0.00  0.00    +0.000 C 
ATOM     27  C   UNL     1      -0.274  11.498  20.374  0.00  0.00    +0.000 C 
ENDBRANCH  20  21
ENDBRANCH  17  20
ENDBRANCH  16  17
ENDBRANCH  15  16
ENDBRANCH   7  15
TORSDOF 11
ENDMDL
MODEL 4
REMARK VINA RESULT:      -6.3      3.600      7.535
REMARK  Name = 
REMARK  13 active torsions:
REMARK  status: ('A' for Active; 'I' for Inactive)
REMARK    1  A    between atoms: C_1  and  O_2
REMARK    2  A    between atoms: O_2  and  C_3
REMARK    3  A    between atoms: C_3  and  C_4
REMARK    4  A    between atoms: C_4  and  N_5
REMARK    5  A    between atoms: N_5  and  C_6
REMARK    6  A    between atoms: N_5  and  C_7
REMARK    7  A    between atoms: C_7  and  C_8
REMARK    8  A    between atoms: C_14  and  O_15
REMARK    9  A    between atoms: O_15  and  C_16
REMARK   10  A    between atoms: C_16  and  C_17
REMARK   11  A    between atoms: C_17  and  O_18
REMARK   12  A    between atoms: C_17  and  C_19
REMARK   13  A    between atoms: C_19  and  N_20
REMARK                            x       y       z     vdW  Elec       q    Type
REMARK                         _______ _______ _______ _____ _____    ______ ____
ROOT
ATOM      1  C   UNL     1       3.138   5.700  19.284  0.00  0.00    +0.000 A 
ATOM      2  C   UNL     1       2.297   6.745  19.739  0.00  0.00    +0.000 A 
ATOM      3  C   UNL     1       2.197   7.956  19.053  0.00  0.00    +0.000 A 
ATOM      4 CL   UNL     1       1.161   9.194  19.646  0.00  0.00    +0.000 Cl
ATOM      5  C   UNL     1       2.934   8.163  17.898  0.00  0.00    +0.000 A 
ATOM      6  C   UNL     1       3.769   7.147  17.435  0.00  0.00    +0.000 A 
ATOM      7  C   UNL     1       3.869   5.910  18.099  0.00  0.00    +0.000 A 
ENDROOT
BRANCH   1   8
ATOM      8  C   UNL     1       3.137   4.444  20.137  0.00  0.00    +0.000 C 
BRANCH   8   9
ATOM      9  N   UNL     1       1.865   4.139  20.808  0.00  0.00    +0.000 NA
ATOM     10  C   UNL     1       2.106   3.208  21.914  0.00  0.00    +0.000 C 
BRANCH   9  11
ATOM     11  C   UNL     1       0.851   3.624  19.869  0.00  0.00    +0.000 C 
BRANCH  11  12
ATOM     12  C   UNL     1       1.324   2.387  19.087  0.00  0.00    +0.000 C 
BRANCH  12  14
ATOM     13  C   UNL     1       2.908   2.184  17.364  0.00  0.00    +0.000 C 
ATOM     14  O   UNL     1       1.669   2.766  17.752  0.00  0.00    +0.000 OA
ENDBRANCH  12  14
ENDBRANCH  11  12
ENDBRANCH   9  11
ENDBRANCH   8   9
ENDBRANCH   1   8
BRANCH   7  15
ATOM     15  O   UNL     1       4.753   5.077  17.465  0.00  0.00    +0.000 OA
BRANCH  15  16
ATOM     16  C   UNL     1       5.931   4.668  18.161  0.00  0.00    +0.000 C 
BRANCH  16  17
ATOM     17  C   UNL     1       7.173   5.185  17.422  0.00  0.00    +0.000 C 
BRANCH  17  18
ATOM     18  O   UNL     1       8.058   4.081  17.162  0.00  0.00    +0.000 OA
ATOM     19  H   UNL     1       8.548   3.934  17.993  0.00  0.00    +0.000 HD
ENDBRANCH  17  18
BRANCH  17  20
ATOM     20  C   UNL     1       6.858   5.889  16.082  0.00  0.00    +0.000 C 
BRANCH  20  21
ATOM     21  N   UNL     1       6.760   5.036  14.876  0.00  0.00    +0.000 NA
ATOM     22  C   UNL     1       5.400   4.950  14.343  0.00  0.00    +0.000 C 
ATOM     23  C   UNL     1       5.148   3.591  13.677  0.00  0.00    +0.000 C 
ATOM     24  C   UNL     1       5.729   3.424  12.278  0.00  0.00    +0.000 C 
ATOM     25  C   UNL     1       7.234   3.645  12.186  0.00  0.00    +0.000 C 
ATOM     26  C   UNL     1       7.608   5.100  12.431  0.00  0.00    +0.000 C 
ATOM     27  C   UNL     1       7.773   5.480  13.904  0.00  0.00    +0.000 C 
ENDBRANCH  20  21
ENDBRANCH  17  20
ENDBRANCH  16  17
ENDBRANCH  15  16
ENDBRANCH   7  15
TORSDOF 11
ENDMDL
MODEL 5
REMARK VINA RESULT:      -6.2      2.411      3.995
REMARK  Name = 
REMARK  13 active torsions:
REMARK  status: ('A' for Active; 'I' for Inactive)
REMARK    1  A    between atoms: C_1  and  O_2
REMARK    2  A    between atoms: O_2  and  C_3
REMARK    3  A    between atoms: C_3  and  C_4
REMARK    4  A    between atoms: C_4  and  N_5
REMARK    5  A    between atoms: N_5  and  C_6
REMARK    6  A    between atoms: N_5  and  C_7
REMARK    7  A    between atoms: C_7  and  C_8
REMARK    8  A    between atoms: C_14  and  O_15
REMARK    9  A    between atoms: O_15  and  C_16
REMARK   10  A    between atoms: C_16  and  C_17
REMARK   11  A    between atoms: C_17  and  O_18
REMARK   12  A    between atoms: C_17  and  C_19
REMARK   13  A    between atoms: C_19  and  N_20
REMARK                            x       y       z     vdW  Elec       q    Type
REMARK                         _______ _______ _______ _____ _____    ______ ____
ROOT
ATOM      1  C   UNL     1       3.221   5.058  18.327  0.00  0.00    +0.000 A 
ATOM      2  C   UNL     1       2.960   3.931  19.143  0.00  0.00    +0.000 A 
ATOM      3  C   UNL     1       2.324   4.052  20.379  0.00  0.00    +0.000 A 
ATOM      4 CL   UNL     1       2.029   2.652  21.335  0.00  0.00    +0.000 Cl
ATOM      5  C   UNL     1       1.935   5.300  20.840  0.00  0.00    +0.000 A 
ATOM      6  C   UNL     1       2.185   6.422  20.052  0.00  0.00    +0.000 A 
ATOM      7  C   UNL     1       2.805   6.319  18.793  0.00  0.00    +0.000 A 
ENDROOT
BRANCH   1   8
ATOM      8  C   UNL     1       3.918   4.762  17.010  0.00  0.00    +0.000 C 
BRANCH   8   9
ATOM      9  N   UNL     1       5.357   4.480  17.108  0.00  0.00    +0.000 NA
ATOM     10  C   UNL     1       6.089   5.733  17.314  0.00  0.00    +0.000 C 
BRANCH   9  11
ATOM     11  C   UNL     1       5.859   3.740  15.935  0.00  0.00    +0.000 C 
BRANCH  11  12
ATOM     12  C   UNL     1       5.634   4.484  14.608  0.00  0.00    +0.000 C 
BRANCH  12  14
ATOM     13  C   UNL     1       6.945   4.245  12.674  0.00  0.00    +0.000 C 
ATOM     14  O   UNL     1       5.977   3.629  13.514  0.00  0.00    +0.000 OA
ENDBRANCH  12  14
ENDBRANCH  11  12
ENDBRANCH   9  11
ENDBRANCH   8   9
ENDBRANCH   1   8
BRANCH   7  15
ATOM     15  O   UNL     1       2.950   7.551  18.210  0.00  0.00    +0.000 OA
BRANCH  15  16
ATOM     16  C   UNL     1       1.779   8.270  17.821  0.00  0.00    +0.000 C 
BRANCH  16  17
ATOM     17  C   UNL     1       1.834   9.693  18.392  0.00  0.00    +0.000 C 
BRANCH  17  18
ATOM     18  O   UNL     1       2.444  10.565  17.423  0.00  0.00    +0.000 OA
ATOM     19  H   UNL     1       2.827  11.302  17.936  0.00  0.00    +0.000 HD
ENDBRANCH  17  18
BRANCH  17  20
ATOM     20  C   UNL     1       0.452  10.271  18.773  0.00  0.00    +0.000 C 
BRANCH  20  21
ATOM     21  N   UNL     1       0.150  10.406  20.216  0.00  0.00    +0.000 NA
ATOM     22  C   UNL     1      -1.063  11.179  20.479  0.00  0.00    +0.000 C 
ATOM     23  C   UNL     1      -0.960  11.942  21.807  0.00  0.00    +0.000 C 
ATOM     24  C   UNL     1      -1.193  11.113  23.063  0.00  0.00    +0.000 C 
ATOM     25  C   UNL     1      -0.263   9.915  23.213  0.00  0.00    +0.000 C 
ATOM     26  C   UNL     1      -0.541   8.847  22.164  0.00  0.00    +0.000 C 
ATOM     27  C   UNL     1       0.167   9.066  20.825  0.00  0.00    +0.000 C 
ENDBRANCH  20  21
ENDBRANCH  17  20
ENDBRANCH  16  17
ENDBRANCH  15  16
ENDBRANCH   7  15
TORSDOF 11
ENDMDL
MODEL 6
REMARK VINA RESULT:      -6.2      1.002      1.281
REMARK  Name = 
REMARK  13 active torsions:
REMARK  status: ('A' for Active; 'I' for Inactive)
REMARK    1  A    between atoms: C_1  and  O_2
REMARK    2  A    between atoms: O_2  and  C_3
REMARK    3  A    between atoms: C_3  and  C_4
REMARK    4  A    between atoms: C_4  and  N_5
REMARK    5  A    between atoms: N_5  and  C_6
REMARK    6  A    between atoms: N_5  and  C_7
REMARK    7  A    between atoms: C_7  and  C_8
REMARK    8  A    between atoms: C_14  and  O_15
REMARK    9  A    between atoms: O_15  and  C_16
REMARK   10  A    between atoms: C_16  and  C_17
REMARK   11  A    between atoms: C_17  and  O_18
REMARK   12  A    between atoms: C_17  and  C_19
REMARK   13  A    between atoms: C_19  and  N_20
REMARK                            x       y       z     vdW  Elec       q    Type
REMARK                         _______ _______ _______ _____ _____    ______ ____
ROOT
ATOM      1  C   UNL     1       3.630   5.654  17.627  0.00  0.00    +0.000 A 
ATOM      2  C   UNL     1       4.287   4.628  16.906  0.00  0.00    +0.000 A 
ATOM      3  C   UNL     1       5.218   4.914  15.907  0.00  0.00    +0.000 A 
ATOM      4 CL   UNL     1       5.989   3.631  15.059  0.00  0.00    +0.000 Cl
ATOM      5  C   UNL     1       5.518   6.230  15.593  0.00  0.00    +0.000 A 
ATOM      6  C   UNL     1       4.881   7.255  16.291  0.00  0.00    +0.000 A 
ATOM      7  C   UNL     1       3.955   6.988  17.317  0.00  0.00    +0.000 A 
ENDROOT
BRANCH   1   8
ATOM      8  C   UNL     1       2.647   5.182  18.683  0.00  0.00    +0.000 C 
BRANCH   8   9
ATOM      9  N   UNL     1       3.241   4.811  19.977  0.00  0.00    +0.000 NA
ATOM     10  C   UNL     1       4.152   3.679  19.790  0.00  0.00    +0.000 C 
BRANCH   9  11
ATOM     11  C   UNL     1       2.216   4.528  20.998  0.00  0.00    +0.000 C 
BRANCH  11  12
ATOM     12  C   UNL     1       0.890   4.025  20.401  0.00  0.00    +0.000 C 
BRANCH  12  14
ATOM     13  C   UNL     1       0.769   2.181  18.952  0.00  0.00    +0.000 C 
ATOM     14  O   UNL     1       0.917   2.599  20.303  0.00  0.00    +0.000 OA
ENDBRANCH  12  14
ENDBRANCH  11  12
ENDBRANCH   9  11
ENDBRANCH   8   9
ENDBRANCH   1   8
BRANCH   7  15
ATOM     15  O   UNL     1       3.457   8.149  17.849  0.00  0.00    +0.000 OA
BRANCH  15  16
ATOM     16  C   UNL     1       2.074   8.451  17.664  0.00  0.00    +0.000 C 
BRANCH  16  17
ATOM     17  C   UNL     1       1.750   9.804  18.311  0.00  0.00    +0.000 C 
BRANCH  17  18
ATOM     18  O   UNL     1       2.234  10.860  17.462  0.00  0.00    +0.000 OA
ATOM     19  H   UNL     1       3.108  11.107  17.818  0.00  0.00    +0.000 HD
ENDBRANCH  17  18
BRANCH  17  20
ATOM     20  C   UNL     1       0.243  10.032  18.570  0.00  0.00    +0.000 C 
BRANCH  20  21
ATOM     21  N   UNL     1      -0.193  10.125  19.981  0.00  0.00    +0.000 NA
ATOM     22  C   UNL     1       0.609   9.302  20.887  0.00  0.00    +0.000 C 
ATOM     23  C   UNL     1      -0.228   8.795  22.068  0.00  0.00    +0.000 C 
ATOM     24  C   UNL     1      -0.480   9.807  23.180  0.00  0.00    +0.000 C 
ATOM     25  C   UNL     1      -1.161  11.092  22.724  0.00  0.00    +0.000 C 
ATOM     26  C   UNL     1      -0.252  11.930  21.836  0.00  0.00    +0.000 C 
ATOM     27  C   UNL     1      -0.274  11.547  20.355  0.00  0.00    +0.000 C 
ENDBRANCH  20  21
ENDBRANCH  17  20
ENDBRANCH  16  17
ENDBRANCH  15  16
ENDBRANCH   7  15
TORSDOF 11
ENDMDL
MODEL 7
REMARK VINA RESULT:      -6.2      1.022      1.596
REMARK  Name = 
REMARK  13 active torsions:
REMARK  status: ('A' for Active; 'I' for Inactive)
REMARK    1  A    between atoms: C_1  and  O_2
REMARK    2  A    between atoms: O_2  and  C_3
REMARK    3  A    between atoms: C_3  and  C_4
REMARK    4  A    between atoms: C_4  and  N_5
REMARK    5  A    between atoms: N_5  and  C_6
REMARK    6  A    between atoms: N_5  and  C_7
REMARK    7  A    between atoms: C_7  and  C_8
REMARK    8  A    between atoms: C_14  and  O_15
REMARK    9  A    between atoms: O_15  and  C_16
REMARK   10  A    between atoms: C_16  and  C_17
REMARK   11  A    between atoms: C_17  and  O_18
REMARK   12  A    between atoms: C_17  and  C_19
REMARK   13  A    between atoms: C_19  and  N_20
REMARK                            x       y       z     vdW  Elec       q    Type
REMARK                         _______ _______ _______ _____ _____    ______ ____
ROOT
ATOM      1  C   UNL     1       4.073   5.324  18.938  0.00  0.00    +0.000 A 
ATOM      2  C   UNL     1       5.327   4.717  18.684  0.00  0.00    +0.000 A 
ATOM      3  C   UNL     1       6.212   5.231  17.737  0.00  0.00    +0.000 A 
ATOM      4 CL   UNL     1       7.724   4.457  17.464  0.00  0.00    +0.000 Cl
ATOM      5  C   UNL     1       5.873   6.362  17.011  0.00  0.00    +0.000 A 
ATOM      6  C   UNL     1       4.642   6.974  17.245  0.00  0.00    +0.000 A 
ATOM      7  C   UNL     1       3.744   6.484  18.212  0.00  0.00    +0.000 A 
ENDROOT
BRANCH   1   8
ATOM      8  C   UNL     1       3.224   4.648  20.000  0.00  0.00    +0.000 C 
BRANCH   8   9
ATOM      9  N   UNL     1       1.918   4.151  19.540  0.00  0.00    +0.000 NA
ATOM     10  C   UNL     1       0.915   4.372  20.585  0.00  0.00    +0.000 C 
BRANCH   9  11
ATOM     11  C   UNL     1       1.976   2.736  19.127  0.00  0.00    +0.000 C 
BRANCH  11  12
ATOM     12  C   UNL     1       2.455   2.548  17.678  0.00  0.00    +0.000 C 
BRANCH  12  14
ATOM     13  C   UNL     1       3.931   1.247  18.961  0.00  0.00    +0.000 C 
ATOM     14  O   UNL     1       3.523   1.597  17.644  0.00  0.00    +0.000 OA
ENDBRANCH  12  14
ENDBRANCH  11  12
ENDBRANCH   9  11
ENDBRANCH   8   9
ENDBRANCH   1   8
BRANCH   7  15
ATOM     15  O   UNL     1       2.603   7.242  18.257  0.00  0.00    +0.000 OA
BRANCH  15  16
ATOM     16  C   UNL     1       2.517   8.403  17.430  0.00  0.00    +0.000 C 
BRANCH  16  17
ATOM     17  C   UNL     1       2.046   9.599  18.268  0.00  0.00    +0.000 C 
BRANCH  17  18
ATOM     18  O   UNL     1       2.168  10.800  17.485  0.00  0.00    +0.000 OA
ATOM     19  H   UNL     1       2.659  10.543  16.682  0.00  0.00    +0.000 HD
ENDBRANCH  17  18
BRANCH  17  20
ATOM     20  C   UNL     1       0.587   9.483  18.766  0.00  0.00    +0.000 C 
BRANCH  20  21
ATOM     21  N   UNL     1       0.321   9.851  20.174  0.00  0.00    +0.000 NA
ATOM     22  C   UNL     1      -0.758  10.828  20.319  0.00  0.00    +0.000 C 
ATOM     23  C   UNL     1      -0.529  11.735  21.536  0.00  0.00    +0.000 C 
ATOM     24  C   UNL     1      -0.875  11.123  22.888  0.00  0.00    +0.000 C 
ATOM     25  C   UNL     1      -0.136   9.829  23.205  0.00  0.00    +0.000 C 
ATOM     26  C   UNL     1      -0.582   8.687  22.303  0.00  0.00    +0.000 C 
ATOM     27  C   UNL     1       0.139   8.616  20.956  0.00  0.00    +0.000 C 
ENDBRANCH  20  21
ENDBRANCH  17  20
ENDBRANCH  16  17
ENDBRANCH  15  16
ENDBRANCH   7  15
TORSDOF 11
ENDMDL
MODEL 8
REMARK VINA RESULT:      -6.2      1.195      2.148
REMARK  Name = 
REMARK  13 active torsions:
REMARK  status: ('A' for Active; 'I' for Inactive)
REMARK    1  A    between atoms: C_1  and  O_2
REMARK    2  A    between atoms: O_2  and  C_3
REMARK    3  A    between atoms: C_3  and  C_4
REMARK    4  A    between atoms: C_4  and  N_5
REMARK    5  A    between atoms: N_5  and  C_6
REMARK    6  A    between atoms: N_5  and  C_7
REMARK    7  A    between atoms: C_7  and  C_8
REMARK    8  A    between atoms: C_14  and  O_15
REMARK    9  A    between atoms: O_15  and  C_16
REMARK   10  A    between atoms: C_16  and  C_17
REMARK   11  A    between atoms: C_17  and  O_18
REMARK   12  A    between atoms: C_17  and  C_19
REMARK   13  A    between atoms: C_19  and  N_20
REMARK                            x       y       z     vdW  Elec       q    Type
REMARK                         _______ _______ _______ _____ _____    ______ ____
ROOT
ATOM      1  C   UNL     1       3.667   4.944  17.277  0.00  0.00    +0.000 A 
ATOM      2  C   UNL     1       4.758   4.413  16.547  0.00  0.00    +0.000 A 
ATOM      3  C   UNL     1       5.879   5.184  16.239  0.00  0.00    +0.000 A 
ATOM      4 CL   UNL     1       7.178   4.492  15.349  0.00  0.00    +0.000 Cl
ATOM      5  C   UNL     1       5.945   6.507  16.645  0.00  0.00    +0.000 A 
ATOM      6  C   UNL     1       4.881   7.049  17.364  0.00  0.00    +0.000 A 
ATOM      7  C   UNL     1       3.750   6.283  17.704  0.00  0.00    +0.000 A 
ENDROOT
BRANCH   1   8
ATOM      8  C   UNL     1       2.523   3.980  17.535  0.00  0.00    +0.000 C 
BRANCH   8   9
ATOM      9  N   UNL     1       2.613   3.214  18.787  0.00  0.00    +0.000 NA
ATOM     10  C   UNL     1       2.994   1.831  18.489  0.00  0.00    +0.000 C 
BRANCH   9  11
ATOM     11  C   UNL     1       1.366   3.283  19.570  0.00  0.00    +0.000 C 
BRANCH  11  12
ATOM     12  C   UNL     1       1.539   2.818  21.026  0.00  0.00    +0.000 C 
BRANCH  12  14
ATOM     13  C   UNL     1       2.078   5.101  21.152  0.00  0.00    +0.000 C 
ATOM     14  O   UNL     1       2.217   3.830  21.776  0.00  0.00    +0.000 OA
ENDBRANCH  12  14
ENDBRANCH  11  12
ENDBRANCH   9  11
ENDBRANCH   8   9
ENDBRANCH   1   8
BRANCH   7  15
ATOM     15  O   UNL     1       2.837   7.030  18.402  0.00  0.00    +0.000 OA
BRANCH  15  16
ATOM     16  C   UNL     1       1.935   7.865  17.676  0.00  0.00    +0.000 C 
BRANCH  16  17
ATOM     17  C   UNL     1       1.866   9.248  18.336  0.00  0.00    +0.000 C 
BRANCH  17  18
ATOM     18  O   UNL     1       2.400  10.229  17.429  0.00  0.00    +0.000 OA
ATOM     19  H   UNL     1       1.990  11.077  17.687  0.00  0.00    +0.000 HD
ENDBRANCH  17  18
BRANCH  17  20
ATOM     20  C   UNL     1       0.439   9.680  18.744  0.00  0.00    +0.000 C 
BRANCH  20  21
ATOM     21  N   UNL     1       0.208   9.983  20.174  0.00  0.00    +0.000 NA
ATOM     22  C   UNL     1      -0.929  10.878  20.395  0.00  0.00    +0.000 C 
ATOM     23  C   UNL     1      -0.712  11.758  21.633  0.00  0.00    +0.000 C 
ATOM     24  C   UNL     1      -0.959  11.081  22.976  0.00  0.00    +0.000 C 
ATOM     25  C   UNL     1      -0.121   9.831  23.218  0.00  0.00    +0.000 C 
ATOM     26  C   UNL     1      -0.526   8.691  22.294  0.00  0.00    +0.000 C 
ATOM     27  C   UNL     1       0.142   8.714  20.918  0.00  0.00    +0.000 C 
ENDBRANCH  20  21
ENDBRANCH  17  20
ENDBRANCH  16  17
ENDBRANCH  15  16
ENDBRANCH   7  15
TORSDOF 11
ENDMDL
MODEL 9
REMARK VINA RESULT:      -6.1      2.041      3.006
REMARK  Name = 
REMARK  13 active torsions:
REMARK  status: ('A' for Active; 'I' for Inactive)
REMARK    1  A    between atoms: C_1  and  O_2
REMARK    2  A    between atoms: O_2  and  C_3
REMARK    3  A    between atoms: C_3  and  C_4
REMARK    4  A    between atoms: C_4  and  N_5
REMARK    5  A    between atoms: N_5  and  C_6
REMARK    6  A    between atoms: N_5  and  C_7
REMARK    7  A    between atoms: C_7  and  C_8
REMARK    8  A    between atoms: C_14  and  O_15
REMARK    9  A    between atoms: O_15  and  C_16
REMARK   10  A    between atoms: C_16  and  C_17
REMARK   11  A    between atoms: C_17  and  O_18
REMARK   12  A    between atoms: C_17  and  C_19
REMARK   13  A    between atoms: C_19  and  N_20
REMARK                            x       y       z     vdW  Elec       q    Type
REMARK                         _______ _______ _______ _____ _____    ______ ____
ROOT
ATOM      1  C   UNL     1       3.775   4.583  17.160  0.00  0.00    +0.000 A 
ATOM      2  C   UNL     1       4.819   4.200  16.284  0.00  0.00    +0.000 A 
ATOM      3  C   UNL     1       5.799   5.104  15.872  0.00  0.00    +0.000 A 
ATOM      4 CL   UNL     1       7.047   4.590  14.805  0.00  0.00    +0.000 Cl
ATOM      5  C   UNL     1       5.765   6.416  16.317  0.00  0.00    +0.000 A 
ATOM      6  C   UNL     1       4.744   6.813  17.179  0.00  0.00    +0.000 A 
ATOM      7  C   UNL     1       3.759   5.912  17.624  0.00  0.00    +0.000 A 
ENDROOT
BRANCH   1   8
ATOM      8  C   UNL     1       2.789   3.485  17.518  0.00  0.00    +0.000 C 
BRANCH   8   9
ATOM      9  N   UNL     1       3.050   2.791  18.787  0.00  0.00    +0.000 NA
ATOM     10  C   UNL     1       3.500   1.424  18.514  0.00  0.00    +0.000 C 
BRANCH   9  11
ATOM     11  C   UNL     1       1.879   2.814  19.684  0.00  0.00    +0.000 C 
BRANCH  11  12
ATOM     12  C   UNL     1       2.201   2.342  21.111  0.00  0.00    +0.000 C 
BRANCH  12  14
ATOM     13  C   UNL     1       2.116   4.682  21.288  0.00  0.00    +0.000 C 
ATOM     14  O   UNL     1       2.158   3.456  22.007  0.00  0.00    +0.000 OA
ENDBRANCH  12  14
ENDBRANCH  11  12
ENDBRANCH   9  11
ENDBRANCH   8   9
ENDBRANCH   1   8
BRANCH   7  15
ATOM     15  O   UNL     1       2.861   6.530  18.455  0.00  0.00    +0.000 OA
BRANCH  15  16
ATOM     16  C   UNL     1       2.532   7.898  18.214  0.00  0.00    +0.000 C 
BRANCH  16  17
ATOM     17  C   UNL     1       1.508   8.373  19.253  0.00  0.00    +0.000 C 
BRANCH  17  18
ATOM     18  O   UNL     1       2.022   8.117  20.572  0.00  0.00    +0.000 OA
ATOM     19  H   UNL     1       1.547   8.731  21.164  0.00  0.00    +0.000 HD
ENDBRANCH  17  18
BRANCH  17  20
ATOM     20  C   UNL     1       1.154   9.874  19.146  0.00  0.00    +0.000 C 
BRANCH  20  21
ATOM     21  N   UNL     1      -0.273  10.221  18.958  0.00  0.00    +0.000 NA
ATOM     22  C   UNL     1      -0.549  11.644  19.155  0.00  0.00    +0.000 C 
ATOM     23  C   UNL     1      -1.961  11.866  19.712  0.00  0.00    +0.000 C 
ATOM     24  C   UNL     1      -3.094  11.766  18.697  0.00  0.00    +0.000 C 
ATOM     25  C   UNL     1      -3.158  10.441  17.948  0.00  0.00    +0.000 C 
ATOM     26  C   UNL     1      -1.975  10.263  17.007  0.00  0.00    +0.000 C 
ATOM     27  C   UNL     1      -0.719   9.684  17.662  0.00  0.00    +0.000 C 
ENDBRANCH  20  21
ENDBRANCH  17  20
ENDBRANCH  16  17
ENDBRANCH  15  16
ENDBRANCH   7  15
TORSDOF 11
ENDMDL
