MODEL 1
REMARK VINA RESULT:      -7.5      0.000      0.000
REMARK  Name = 
REMARK  5 active torsions:
REMARK  status: ('A' for Active; 'I' for Inactive)
REMARK    1  A    between atoms: C_2  and  O_3
REMARK    2  A    between atoms: C_2  and  C_4
REMARK    3  A    between atoms: C_5  and  C_6
REMARK    4  A    between atoms: N_18  and  C_19
REMARK    5  A    between atoms: C_19  and  C_20
REMARK                            x       y       z     vdW  Elec       q    Type
REMARK                         _______ _______ _______ _____ _____    ______ ____
ROOT
ATOM      1  C   UNL     1       1.199   8.679  20.314  0.00  0.00    +0.000 A 
ATOM      2  C   UNL     1       1.087   9.767  19.436  0.00  0.00    +0.000 A 
ATOM      3  N   UNL     1       1.604   9.697  18.172  0.00  0.00    +0.000 NA
ATOM      4  C   UNL     1       2.245   8.568  17.789  0.00  0.00    +0.000 A 
ATOM      5  C   UNL     1       2.439   7.466  18.608  0.00  0.00    +0.000 A 
ATOM      6  C   UNL     1       1.880   7.512  19.897  0.00  0.00    +0.000 A 
ATOM      7  C   UNL     1       2.065   6.315  20.799  0.00  0.00    +0.000 C 
ATOM      8  C   UNL     1       2.405   5.037  20.035  0.00  0.00    +0.000 C 
ATOM      9  N   UNL     1       3.559   5.305  19.164  0.00  0.00    +0.000 NA
ATOM     10  C   UNL     1       3.145   6.230  18.088  0.00  0.00    +0.000 C 
ENDROOT
BRANCH   2  11
ATOM     11  C   UNL     1       0.469  11.085  19.748  0.00  0.00    +0.000 A 
ATOM     12  C   UNL     1       1.182  12.137  20.339  0.00  0.00    +0.000 A 
ATOM     13  C   UNL     1       0.537  13.333  20.626  0.00  0.00    +0.000 A 
ATOM     14  N   UNL     1      -0.752  13.580  20.325  0.00  0.00    +0.000 NA
ATOM     15  C   UNL     1      -1.429  12.582  19.722  0.00  0.00    +0.000 A 
ATOM     16  C   UNL     1      -0.871  11.345  19.423  0.00  0.00    +0.000 A 
ENDBRANCH   2  11
BRANCH   1  18
ATOM     17  O   UNL     1      -0.607   8.249  21.798  0.00  0.00    +0.000 OA
ATOM     18  C   UNL     1       0.513   8.699  21.622  0.00  0.00    +0.000 C 
BRANCH  18  19
ATOM     19  O   UNL     1       1.229   9.292  22.603  0.00  0.00    +0.000 OA
ATOM     20  H   UNL     1       0.774   9.377  23.463  0.00  0.00    +0.000 HD
ENDBRANCH  18  19
ENDBRANCH   1  18
BRANCH   9  21
ATOM     21  C   UNL     1       4.097   4.055  18.594  0.00  0.00    +0.000 C 
BRANCH  21  22
ATOM     22  C   UNL     1       5.387   4.266  17.868  0.00  0.00    +0.000 A 
ATOM     23  C   UNL     1       5.737   4.319  16.533  0.00  0.00    +0.000 A 
ATOM     24  C   UNL     1       7.127   4.587  16.493  0.00  0.00    +0.000 A 
ATOM     25  C   UNL     1       7.535   4.691  17.802  0.00  0.00    +0.000 A 
ATOM     26  O   UNL     1       6.487   4.498  18.644  0.00  0.00    +0.000 OA
ENDBRANCH  21  22
ENDBRANCH   9  21
TORSDOF 5
ENDMDL
MODEL 2
REMARK VINA RESULT:      -7.2      0.594      1.214
REMARK  Name = 
REMARK  5 active torsions:
REMARK  status: ('A' for Active; 'I' for Inactive)
REMARK    1  A    between atoms: C_2  and  O_3
REMARK    2  A    between atoms: C_2  and  C_4
REMARK    3  A    between atoms: C_5  and  C_6
REMARK    4  A    between atoms: N_18  and  C_19
REMARK    5  A    between atoms: C_19  and  C_20
REMARK                            x       y       z     vdW  Elec       q    Type
REMARK                         _______ _______ _______ _____ _____    ______ ____
ROOT
ATOM      1  C   UNL     1       1.163   8.726  20.333  0.00  0.00    +0.000 A 
ATOM      2  C   UNL     1       1.064   9.827  19.469  0.00  0.00    +0.000 A 
ATOM      3  N   UNL     1       1.583   9.769  18.206  0.00  0.00    +0.000 NA
ATOM      4  C   UNL     1       2.213   8.639  17.809  0.00  0.00    +0.000 A 
ATOM      5  C   UNL     1       2.395   7.524  18.613  0.00  0.00    +0.000 A 
ATOM      6  C   UNL     1       1.832   7.557  19.901  0.00  0.00    +0.000 A 
ATOM      7  C   UNL     1       2.003   6.346  20.787  0.00  0.00    +0.000 C 
ATOM      8  C   UNL     1       2.331   5.076  20.006  0.00  0.00    +0.000 C 
ATOM      9  N   UNL     1       3.491   5.344  19.141  0.00  0.00    +0.000 NA
ATOM     10  C   UNL     1       3.089   6.288  18.077  0.00  0.00    +0.000 C 
ENDROOT
BRANCH   2  11
ATOM     11  C   UNL     1       0.459  11.146  19.798  0.00  0.00    +0.000 A 
ATOM     12  C   UNL     1      -0.888  11.448  19.550  0.00  0.00    +0.000 A 
ATOM     13  C   UNL     1      -1.382  12.708  19.861  0.00  0.00    +0.000 A 
ATOM     14  N   UNL     1      -0.652  13.676  20.445  0.00  0.00    +0.000 NA
ATOM     15  C   UNL     1       0.634  13.375  20.720  0.00  0.00    +0.000 A 
ATOM     16  C   UNL     1       1.218  12.150  20.419  0.00  0.00    +0.000 A 
ENDBRANCH   2  11
BRANCH   1  18
ATOM     17  O   UNL     1      -0.648   8.285  21.808  0.00  0.00    +0.000 OA
ATOM     18  C   UNL     1       0.473   8.735  21.639  0.00  0.00    +0.000 C 
BRANCH  18  19
ATOM     19  O   UNL     1       1.189   9.316  22.627  0.00  0.00    +0.000 OA
ATOM     20  H   UNL     1       0.687   9.537  23.436  0.00  0.00    +0.000 HD
ENDBRANCH  18  19
ENDBRANCH   1  18
BRANCH   9  21
ATOM     21  C   UNL     1       4.018   4.096  18.556  0.00  0.00    +0.000 C 
BRANCH  21  22
ATOM     22  C   UNL     1       5.291   4.311  17.802  0.00  0.00    +0.000 A 
ATOM     23  C   UNL     1       6.553   4.743  18.159  0.00  0.00    +0.000 A 
ATOM     24  C   UNL     1       7.341   4.696  16.983  0.00  0.00    +0.000 A 
ATOM     25  C   UNL     1       6.515   4.230  15.987  0.00  0.00    +0.000 A 
ATOM     26  O   UNL     1       5.270   3.993  16.474  0.00  0.00    +0.000 OA
ENDBRANCH  21  22
ENDBRANCH   9  21
TORSDOF 5
ENDMDL
MODEL 3
REMARK VINA RESULT:      -7.1      0.606      1.009
REMARK  Name = 
REMARK  5 active torsions:
REMARK  status: ('A' for Active; 'I' for Inactive)
REMARK    1  A    between atoms: C_2  and  O_3
REMARK    2  A    between atoms: C_2  and  C_4
REMARK    3  A    between atoms: C_5  and  C_6
REMARK    4  A    between atoms: N_18  and  C_19
REMARK    5  A    between atoms: C_19  and  C_20
REMARK                            x       y       z     vdW  Elec       q    Type
REMARK                         _______ _______ _______ _____ _____    ______ ____
ROOT
ATOM      1  C   UNL     1       1.187   8.793  20.372  0.00  0.00    +0.000 A 
ATOM      2  C   UNL     1       1.047   9.880  19.495  0.00  0.00    +0.000 A 
ATOM      3  N   UNL     1       1.510   9.802  18.211  0.00  0.00    +0.000 NA
ATOM      4  C   UNL     1       2.124   8.665  17.806  0.00  0.00    +0.000 A 
ATOM      5  C   UNL     1       2.344   7.565  18.620  0.00  0.00    +0.000 A 
ATOM      6  C   UNL     1       1.840   7.619  19.931  0.00  0.00    +0.000 A 
ATOM      7  C   UNL     1       2.052   6.423  20.829  0.00  0.00    +0.000 C 
ATOM      8  C   UNL     1       2.348   5.141  20.055  0.00  0.00    +0.000 C 
ATOM      9  N   UNL     1       3.467   5.395  19.136  0.00  0.00    +0.000 NA
ATOM     10  C   UNL     1       3.016   6.321  18.075  0.00  0.00    +0.000 C 
ENDROOT
BRANCH   2  11
ATOM     11  C   UNL     1       0.454  11.204  19.829  0.00  0.00    +0.000 A 
ATOM     12  C   UNL     1       1.193  12.241  20.416  0.00  0.00    +0.000 A 
ATOM     13  C   UNL     1       0.570  13.443  20.723  0.00  0.00    +0.000 A 
ATOM     14  N   UNL     1      -0.720  13.712  20.447  0.00  0.00    +0.000 NA
ATOM     15  C   UNL     1      -1.422  12.729  19.848  0.00  0.00    +0.000 A 
ATOM     16  C   UNL     1      -0.887  11.486  19.529  0.00  0.00    +0.000 A 
ENDBRANCH   2  11
BRANCH   1  18
ATOM     17  O   UNL     1       1.089   9.311  22.690  0.00  0.00    +0.000 OA
ATOM     18  C   UNL     1       0.556   8.824  21.708  0.00  0.00    +0.000 C 
BRANCH  18  19
ATOM     19  O   UNL     1      -0.659   8.234  21.748  0.00  0.00    +0.000 OA
ATOM     20  H   UNL     1      -1.197   8.325  20.937  0.00  0.00    +0.000 HD
ENDBRANCH  18  19
ENDBRANCH   1  18
BRANCH   9  21
ATOM     21  C   UNL     1       3.971   4.139  18.548  0.00  0.00    +0.000 C 
BRANCH  21  22
ATOM     22  C   UNL     1       5.255   4.329  17.806  0.00  0.00    +0.000 A 
ATOM     23  C   UNL     1       6.521   4.741  18.172  0.00  0.00    +0.000 A 
ATOM     24  C   UNL     1       7.319   4.675  17.005  0.00  0.00    +0.000 A 
ATOM     25  C   UNL     1       6.495   4.218  16.003  0.00  0.00    +0.000 A 
ATOM     26  O   UNL     1       5.241   4.004  16.479  0.00  0.00    +0.000 OA
ENDBRANCH  21  22
ENDBRANCH   9  21
TORSDOF 5
ENDMDL
MODEL 4
REMARK VINA RESULT:      -7.1      3.089      4.583
REMARK  Name = 
REMARK  5 active torsions:
REMARK  status: ('A' for Active; 'I' for Inactive)
REMARK    1  A    between atoms: C_2  and  O_3
REMARK    2  A    between atoms: C_2  and  C_4
REMARK    3  A    between atoms: C_5  and  C_6
REMARK    4  A    between atoms: N_18  and  C_19
REMARK    5  A    between atoms: C_19  and  C_20
REMARK                            x       y       z     vdW  Elec       q    Type
REMARK                         _______ _______ _______ _____ _____    ______ ____
ROOT
ATOM      1  C   UNL     1      -0.540  11.140  21.099  0.00  0.00    +0.000 A 
ATOM      2  C   UNL     1      -0.814  11.300  22.466  0.00  0.00    +0.000 A 
ATOM      3  N   UNL     1      -0.306  10.425  23.385  0.00  0.00    +0.000 NA
ATOM      4  C   UNL     1       0.450   9.389  22.953  0.00  0.00    +0.000 A 
ATOM      5  C   UNL     1       0.730   9.131  21.619  0.00  0.00    +0.000 A 
ATOM      6  C   UNL     1       0.244  10.044  20.668  0.00  0.00    +0.000 A 
ATOM      7  C   UNL     1       0.554   9.792  19.212  0.00  0.00    +0.000 C 
ATOM      8  C   UNL     1       1.750   8.865  19.007  0.00  0.00    +0.000 C 
ATOM      9  N   UNL     1       1.530   7.637  19.786  0.00  0.00    +0.000 NA
ATOM     10  C   UNL     1       1.609   7.961  21.226  0.00  0.00    +0.000 C 
ENDROOT
BRANCH   2  11
ATOM     11  C   UNL     1      -1.678  12.352  23.067  0.00  0.00    +0.000 A 
ATOM     12  C   UNL     1      -1.207  13.635  23.382  0.00  0.00    +0.000 A 
ATOM     13  C   UNL     1      -2.062  14.561  23.964  0.00  0.00    +0.000 A 
ATOM     14  N   UNL     1      -3.365  14.327  24.212  0.00  0.00    +0.000 NA
ATOM     15  C   UNL     1      -3.829  13.107  23.874  0.00  0.00    +0.000 A 
ATOM     16  C   UNL     1      -3.039  12.110  23.313  0.00  0.00    +0.000 A 
ENDBRANCH   2  11
BRANCH   1  18
ATOM     17  O   UNL     1      -2.024  12.123  19.524  0.00  0.00    +0.000 OA
ATOM     18  C   UNL     1      -0.964  12.166  20.125  0.00  0.00    +0.000 C 
BRANCH  18  19
ATOM     19  O   UNL     1      -0.052  13.146  19.938  0.00  0.00    +0.000 OA
ATOM     20  H   UNL     1       0.128  13.380  19.006  0.00  0.00    +0.000 HD
ENDBRANCH  18  19
ENDBRANCH   1  18
BRANCH   9  21
ATOM     21  C   UNL     1       2.517   6.598  19.433  0.00  0.00    +0.000 C 
BRANCH  21  22
ATOM     22  C   UNL     1       1.954   5.217  19.531  0.00  0.00    +0.000 A 
ATOM     23  C   UNL     1       1.403   4.478  20.559  0.00  0.00    +0.000 A 
ATOM     24  C   UNL     1       1.020   3.234  20.001  0.00  0.00    +0.000 A 
ATOM     25  C   UNL     1       1.351   3.296  18.667  0.00  0.00    +0.000 A 
ATOM     26  O   UNL     1       1.917   4.495  18.372  0.00  0.00    +0.000 OA
ENDBRANCH  21  22
ENDBRANCH   9  21
TORSDOF 5
ENDMDL
MODEL 5
REMARK VINA RESULT:      -7.1      3.052      4.661
REMARK  Name = 
REMARK  5 active torsions:
REMARK  status: ('A' for Active; 'I' for Inactive)
REMARK    1  A    between atoms: C_2  and  O_3
REMARK    2  A    between atoms: C_2  and  C_4
REMARK    3  A    between atoms: C_5  and  C_6
REMARK    4  A    between atoms: N_18  and  C_19
REMARK    5  A    between atoms: C_19  and  C_20
REMARK                            x       y       z     vdW  Elec       q    Type
REMARK                         _______ _______ _______ _____ _____    ______ ____
ROOT
ATOM      1  C   UNL     1      -0.532  11.099  21.075  0.00  0.00    +0.000 A 
ATOM      2  C   UNL     1      -0.809  11.263  22.441  0.00  0.00    +0.000 A 
ATOM      3  N   UNL     1      -0.297  10.396  23.365  0.00  0.00    +0.000 NA
ATOM      4  C   UNL     1       0.467   9.363  22.938  0.00  0.00    +0.000 A 
ATOM      5  C   UNL     1       0.751   9.101  21.606  0.00  0.00    +0.000 A 
ATOM      6  C   UNL     1       0.260  10.007  20.650  0.00  0.00    +0.000 A 
ATOM      7  C   UNL     1       0.574   9.750  19.195  0.00  0.00    +0.000 C 
ATOM      8  C   UNL     1       1.776   8.831  18.996  0.00  0.00    +0.000 C 
ATOM      9  N   UNL     1       1.564   7.605  19.781  0.00  0.00    +0.000 NA
ATOM     10  C   UNL     1       1.639   7.935  21.219  0.00  0.00    +0.000 C 
ENDROOT
BRANCH   2  11
ATOM     11  C   UNL     1      -1.682  12.312  23.036  0.00  0.00    +0.000 A 
ATOM     12  C   UNL     1      -3.014  12.073  23.403  0.00  0.00    +0.000 A 
ATOM     13  C   UNL     1      -3.779  13.104  23.932  0.00  0.00    +0.000 A 
ATOM     14  N   UNL     1      -3.308  14.343  24.170  0.00  0.00    +0.000 NA
ATOM     15  C   UNL     1      -2.016  14.563  23.853  0.00  0.00    +0.000 A 
ATOM     16  C   UNL     1      -1.185  13.598  23.295  0.00  0.00    +0.000 A 
ENDBRANCH   2  11
BRANCH   1  18
ATOM     17  O   UNL     1      -0.288  13.091  19.804  0.00  0.00    +0.000 OA
ATOM     18  C   UNL     1      -0.961  12.118  20.096  0.00  0.00    +0.000 C 
BRANCH  18  19
ATOM     19  O   UNL     1      -2.186  11.887  19.574  0.00  0.00    +0.000 OA
ATOM     20  H   UNL     1      -2.233  11.887  18.597  0.00  0.00    +0.000 HD
ENDBRANCH  18  19
ENDBRANCH   1  18
BRANCH   9  21
ATOM     21  C   UNL     1       2.559   6.572  19.434  0.00  0.00    +0.000 C 
BRANCH  21  22
ATOM     22  C   UNL     1       2.014   5.186  19.566  0.00  0.00    +0.000 A 
ATOM     23  C   UNL     1       1.264   4.539  20.529  0.00  0.00    +0.000 A 
ATOM     24  C   UNL     1       1.037   3.227  20.048  0.00  0.00    +0.000 A 
ATOM     25  C   UNL     1       1.653   3.158  18.820  0.00  0.00    +0.000 A 
ATOM     26  O   UNL     1       2.247   4.341  18.518  0.00  0.00    +0.000 OA
ENDBRANCH  21  22
ENDBRANCH   9  21
TORSDOF 5
ENDMDL
MODEL 6
REMARK VINA RESULT:      -7.0      1.368      1.945
REMARK  Name = 
REMARK  5 active torsions:
REMARK  status: ('A' for Active; 'I' for Inactive)
REMARK    1  A    between atoms: C_2  and  O_3
REMARK    2  A    between atoms: C_2  and  C_4
REMARK    3  A    between atoms: C_5  and  C_6
REMARK    4  A    between atoms: N_18  and  C_19
REMARK    5  A    between atoms: C_19  and  C_20
REMARK                            x       y       z     vdW  Elec       q    Type
REMARK                         _______ _______ _______ _____ _____    ______ ____
ROOT
ATOM      1  C   UNL     1       0.942   9.045  20.386  0.00  0.00    +0.000 A 
ATOM      2  C   UNL     1       0.630  10.196  19.647  0.00  0.00    +0.000 A 
ATOM      3  N   UNL     1       1.101  10.354  18.373  0.00  0.00    +0.000 NA
ATOM      4  C   UNL     1       1.890   9.390  17.844  0.00  0.00    +0.000 A 
ATOM      5  C   UNL     1       2.284   8.246  18.520  0.00  0.00    +0.000 A 
ATOM      6  C   UNL     1       1.776   8.054  19.817  0.00  0.00    +0.000 A 
ATOM      7  C   UNL     1       2.177   6.805  20.565  0.00  0.00    +0.000 C 
ATOM      8  C   UNL     1       2.677   5.693  19.646  0.00  0.00    +0.000 C 
ATOM      9  N   UNL     1       3.742   6.236  18.788  0.00  0.00    +0.000 NA
ATOM     10  C   UNL     1       3.148   7.203  17.840  0.00  0.00    +0.000 C 
ENDROOT
BRANCH   2  11
ATOM     11  C   UNL     1      -0.169  11.355  20.128  0.00  0.00    +0.000 A 
ATOM     12  C   UNL     1       0.368  12.363  20.942  0.00  0.00    +0.000 A 
ATOM     13  C   UNL     1      -0.441  13.405  21.375  0.00  0.00    +0.000 A 
ATOM     14  N   UNL     1      -1.732  13.549  21.022  0.00  0.00    +0.000 NA
ATOM     15  C   UNL     1      -2.240  12.601  20.208  0.00  0.00    +0.000 A 
ATOM     16  C   UNL     1      -1.511  11.510  19.749  0.00  0.00    +0.000 A 
ENDBRANCH   2  11
BRANCH   1  18
ATOM     17  O   UNL     1      -0.738   8.204  21.842  0.00  0.00    +0.000 OA
ATOM     18  C   UNL     1       0.313   8.806  21.701  0.00  0.00    +0.000 C 
BRANCH  18  19
ATOM     19  O   UNL     1       0.996   9.345  22.735  0.00  0.00    +0.000 OA
ATOM     20  H   UNL     1       1.573  10.100  22.509  0.00  0.00    +0.000 HD
ENDBRANCH  18  19
ENDBRANCH   1  18
BRANCH   9  21
ATOM     21  C   UNL     1       4.442   5.160  18.061  0.00  0.00    +0.000 C 
BRANCH  21  22
ATOM     22  C   UNL     1       3.665   3.883  18.043  0.00  0.00    +0.000 A 
ATOM     23  C   UNL     1       2.536   3.458  17.370  0.00  0.00    +0.000 A 
ATOM     24  C   UNL     1       2.317   2.114  17.760  0.00  0.00    +0.000 A 
ATOM     25  C   UNL     1       3.330   1.801  18.636  0.00  0.00    +0.000 A 
ATOM     26  O   UNL     1       4.153   2.866  18.814  0.00  0.00    +0.000 OA
ENDBRANCH  21  22
ENDBRANCH   9  21
TORSDOF 5
ENDMDL
MODEL 7
REMARK VINA RESULT:      -6.9      2.880      4.229
REMARK  Name = 
REMARK  5 active torsions:
REMARK  status: ('A' for Active; 'I' for Inactive)
REMARK    1  A    between atoms: C_2  and  O_3
REMARK    2  A    between atoms: C_2  and  C_4
REMARK    3  A    between atoms: C_5  and  C_6
REMARK    4  A    between atoms: N_18  and  C_19
REMARK    5  A    between atoms: C_19  and  C_20
REMARK                            x       y       z     vdW  Elec       q    Type
REMARK                         _______ _______ _______ _____ _____    ______ ____
ROOT
ATOM      1  C   UNL     1      -0.315  11.060  20.642  0.00  0.00    +0.000 A 
ATOM      2  C   UNL     1      -0.461  11.162  22.034  0.00  0.00    +0.000 A 
ATOM      3  N   UNL     1       0.165  10.276  22.866  0.00  0.00    +0.000 NA
ATOM      4  C   UNL     1       0.912   9.286  22.324  0.00  0.00    +0.000 A 
ATOM      5  C   UNL     1       1.072   9.086  20.962  0.00  0.00    +0.000 A 
ATOM      6  C   UNL     1       0.464  10.012  20.097  0.00  0.00    +0.000 A 
ATOM      7  C   UNL     1       0.640   9.823  18.609  0.00  0.00    +0.000 C 
ATOM      8  C   UNL     1       1.844   8.953  18.255  0.00  0.00    +0.000 C 
ATOM      9  N   UNL     1       1.746   7.691  19.004  0.00  0.00    +0.000 NA
ATOM     10  C   UNL     1       1.951   7.967  20.441  0.00  0.00    +0.000 C 
ENDROOT
BRANCH   2  11
ATOM     11  C   UNL     1      -1.302  12.157  22.755  0.00  0.00    +0.000 A 
ATOM     12  C   UNL     1      -0.858  13.454  23.050  0.00  0.00    +0.000 A 
ATOM     13  C   UNL     1      -1.686  14.324  23.747  0.00  0.00    +0.000 A 
ATOM     14  N   UNL     1      -2.940  14.020  24.131  0.00  0.00    +0.000 NA
ATOM     15  C   UNL     1      -3.382  12.786  23.814  0.00  0.00    +0.000 A 
ATOM     16  C   UNL     1      -2.613  11.842  23.142  0.00  0.00    +0.000 A 
ENDBRANCH   2  11
BRANCH   1  18
ATOM     17  O   UNL     1      -0.259  13.112  19.445  0.00  0.00    +0.000 OA
ATOM     18  C   UNL     1      -0.868  12.102  19.753  0.00  0.00    +0.000 C 
BRANCH  18  19
ATOM     19  O   UNL     1      -2.127  11.846  19.334  0.00  0.00    +0.000 OA
ATOM     20  H   UNL     1      -2.608  11.163  19.841  0.00  0.00    +0.000 HD
ENDBRANCH  18  19
ENDBRANCH   1  18
BRANCH   9  21
ATOM     21  C   UNL     1       2.731   6.706  18.519  0.00  0.00    +0.000 C 
BRANCH  21  22
ATOM     22  C   UNL     1       2.223   5.302  18.599  0.00  0.00    +0.000 A 
ATOM     23  C   UNL     1       1.567   4.469  17.715  0.00  0.00    +0.000 A 
ATOM     24  C   UNL     1       1.390   3.232  18.382  0.00  0.00    +0.000 A 
ATOM     25  C   UNL     1       1.957   3.385  19.626  0.00  0.00    +0.000 A 
ATOM     26  O   UNL     1       2.466   4.636  19.767  0.00  0.00    +0.000 OA
ENDBRANCH  21  22
ENDBRANCH   9  21
TORSDOF 5
ENDMDL
MODEL 8
REMARK VINA RESULT:      -6.8      1.386      2.273
REMARK  Name = 
REMARK  5 active torsions:
REMARK  status: ('A' for Active; 'I' for Inactive)
REMARK    1  A    between atoms: C_2  and  O_3
REMARK    2  A    between atoms: C_2  and  C_4
REMARK    3  A    between atoms: C_5  and  C_6
REMARK    4  A    between atoms: N_18  and  C_19
REMARK    5  A    between atoms: C_19  and  C_20
REMARK                            x       y       z     vdW  Elec       q    Type
REMARK                         _______ _______ _______ _____ _____    ______ ____
ROOT
ATOM      1  C   UNL     1       0.974   9.096  20.421  0.00  0.00    +0.000 A 
ATOM      2  C   UNL     1       0.624  10.223  19.660  0.00  0.00    +0.000 A 
ATOM      3  N   UNL     1       1.042  10.344  18.364  0.00  0.00    +0.000 NA
ATOM      4  C   UNL     1       1.815   9.368  17.832  0.00  0.00    +0.000 A 
ATOM      5  C   UNL     1       2.244   8.247  18.527  0.00  0.00    +0.000 A 
ATOM      6  C   UNL     1       1.790   8.093  19.848  0.00  0.00    +0.000 A 
ATOM      7  C   UNL     1       2.231   6.870  20.617  0.00  0.00    +0.000 C 
ATOM      8  C   UNL     1       2.700   5.733  19.713  0.00  0.00    +0.000 C 
ATOM      9  N   UNL     1       3.724   6.255  18.796  0.00  0.00    +0.000 NA
ATOM     10  C   UNL     1       3.087   7.189  17.844  0.00  0.00    +0.000 C 
ENDROOT
BRANCH   2  11
ATOM     11  C   UNL     1      -0.162  11.392  20.138  0.00  0.00    +0.000 A 
ATOM     12  C   UNL     1      -1.526  11.557  19.858  0.00  0.00    +0.000 A 
ATOM     13  C   UNL     1      -2.193  12.685  20.316  0.00  0.00    +0.000 A 
ATOM     14  N   UNL     1      -1.620  13.640  21.074  0.00  0.00    +0.000 NA
ATOM     15  C   UNL     1      -0.318  13.463  21.377  0.00  0.00    +0.000 A 
ATOM     16  C   UNL     1       0.434  12.379  20.939  0.00  0.00    +0.000 A 
ENDBRANCH   2  11
BRANCH   1  18
ATOM     17  O   UNL     1       0.915   9.327  22.785  0.00  0.00    +0.000 OA
ATOM     18  C   UNL     1       0.401   8.896  21.767  0.00  0.00    +0.000 C 
BRANCH  18  19
ATOM     19  O   UNL     1      -0.734   8.163  21.771  0.00  0.00    +0.000 OA
ATOM     20  H   UNL     1      -1.042   7.869  22.650  0.00  0.00    +0.000 HD
ENDBRANCH  18  19
ENDBRANCH   1  18
BRANCH   9  21
ATOM     21  C   UNL     1       4.401   5.161  18.074  0.00  0.00    +0.000 C 
BRANCH  21  22
ATOM     22  C   UNL     1       3.603   3.896  18.074  0.00  0.00    +0.000 A 
ATOM     23  C   UNL     1       2.442   3.496  17.442  0.00  0.00    +0.000 A 
ATOM     24  C   UNL     1       2.218   2.152  17.827  0.00  0.00    +0.000 A 
ATOM     25  C   UNL     1       3.258   1.814  18.660  0.00  0.00    +0.000 A 
ATOM     26  O   UNL     1       4.105   2.864  18.815  0.00  0.00    +0.000 OA
ENDBRANCH  21  22
ENDBRANCH   9  21
TORSDOF 5
ENDMDL
MODEL 9
REMARK VINA RESULT:      -6.8      2.580      3.649
REMARK  Name = 
REMARK  5 active torsions:
REMARK  status: ('A' for Active; 'I' for Inactive)
REMARK    1  A    between atoms: C_2  and  O_3
REMARK    2  A    between atoms: C_2  and  C_4
REMARK    3  A    between atoms: C_5  and  C_6
REMARK    4  A    between atoms: N_18  and  C_19
REMARK    5  A    between atoms: C_19  and  C_20
REMARK                            x       y       z     vdW  Elec       q    Type
REMARK                         _______ _______ _______ _____ _____    ______ ____
ROOT
ATOM      1  C   UNL     1       0.458  10.632  19.945  0.00  0.00    +0.000 A 
ATOM      2  C   UNL     1       0.196  10.745  21.318  0.00  0.00    +0.000 A 
ATOM      3  N   UNL     1       0.621   9.781  22.190  0.00  0.00    +0.000 NA
ATOM      4  C   UNL     1       1.281   8.704  21.702  0.00  0.00    +0.000 A 
ATOM      5  C   UNL     1       1.541   8.492  20.357  0.00  0.00    +0.000 A 
ATOM      6  C   UNL     1       1.142   9.494  19.456  0.00  0.00    +0.000 A 
ATOM      7  C   UNL     1       1.431   9.292  17.987  0.00  0.00    +0.000 C 
ATOM      8  C   UNL     1       2.539   8.273  17.731  0.00  0.00    +0.000 C 
ATOM      9  N   UNL     1       2.208   7.031  18.446  0.00  0.00    +0.000 NA
ATOM     10  C   UNL     1       2.312   7.270  19.901  0.00  0.00    +0.000 C 
ENDROOT
BRANCH   2  11
ATOM     11  C   UNL     1      -0.572  11.837  21.976  0.00  0.00    +0.000 A 
ATOM     12  C   UNL     1      -0.146  13.174  21.973  0.00  0.00    +0.000 A 
ATOM     13  C   UNL     1      -0.900  14.139  22.626  0.00  0.00    +0.000 A 
ATOM     14  N   UNL     1      -2.071  13.887  23.242  0.00  0.00    +0.000 NA
ATOM     15  C   UNL     1      -2.500  12.610  23.213  0.00  0.00    +0.000 A 
ATOM     16  C   UNL     1      -1.798  11.575  22.606  0.00  0.00    +0.000 A 
ENDBRANCH   2  11
BRANCH   1  18
ATOM     17  O   UNL     1      -0.957  11.869  18.490  0.00  0.00    +0.000 OA
ATOM     18  C   UNL     1       0.131  11.742  19.026  0.00  0.00    +0.000 C 
BRANCH  18  19
ATOM     19  O   UNL     1       1.161  12.590  18.811  0.00  0.00    +0.000 OA
ATOM     20  H   UNL     1       1.908  12.510  19.436  0.00  0.00    +0.000 HD
ENDBRANCH  18  19
ENDBRANCH   1  18
BRANCH   9  21
ATOM     21  C   UNL     1       3.098   5.927  18.037  0.00  0.00    +0.000 C 
BRANCH  21  22
ATOM     22  C   UNL     1       2.515   4.583  18.330  0.00  0.00    +0.000 A 
ATOM     23  C   UNL     1       1.369   3.927  17.926  0.00  0.00    +0.000 A 
ATOM     24  C   UNL     1       1.403   2.647  18.532  0.00  0.00    +0.000 A 
ATOM     25  C   UNL     1       2.569   2.599  19.258  0.00  0.00    +0.000 A 
ATOM     26  O   UNL     1       3.251   3.767  19.142  0.00  0.00    +0.000 OA
ENDBRANCH  21  22
ENDBRANCH   9  21
TORSDOF 5
ENDMDL
