MODEL 1
REMARK VINA RESULT:      -6.6      0.000      0.000
REMARK  Name = 
REMARK  4 active torsions:
REMARK  status: ('A' for Active; 'I' for Inactive)
REMARK    1  A    between atoms: C_1  and  N_2
REMARK    2  A    between atoms: N_2  and  C_3
REMARK    3  A    between atoms: N_2  and  C_4
REMARK    4  A    between atoms: C_11  and  O_12
REMARK                            x       y       z     vdW  Elec       q    Type
REMARK                         _______ _______ _______ _____ _____    ______ ____
ROOT
ATOM      1  C   UNL     1       4.611   4.385  16.736  0.00  0.00    +0.000 C 
ATOM      2  C   UNL     1       4.984   5.470  17.765  0.00  0.00    +0.000 C 
ATOM      3  C   UNL     1       3.731   6.015  18.457  0.00  0.00    +0.000 C 
ATOM      4  C   UNL     1       2.832   4.933  18.996  0.00  0.00    +0.000 A 
ATOM      5  C   UNL     1       1.883   5.254  19.983  0.00  0.00    +0.000 A 
ATOM      6  C   UNL     1       1.032   4.276  20.500  0.00  0.00    +0.000 A 
ATOM      7  C   UNL     1       1.108   2.969  20.031  0.00  0.00    +0.000 A 
ATOM      8  C   UNL     1       2.036   2.649  19.040  0.00  0.00    +0.000 A 
ATOM      9  C   UNL     1       2.894   3.620  18.499  0.00  0.00    +0.000 A 
ATOM     10  C   UNL     1       3.913   3.212  17.462  0.00  0.00    +0.000 C 
ENDROOT
BRANCH   1  12
ATOM     11  C   UNL     1       5.632   4.366  14.468  0.00  0.00    +0.000 C 
ATOM     12  N   UNL     1       5.768   4.004  15.879  0.00  0.00    +0.000 NA
ATOM     13  C   UNL     1       7.034   4.523  16.402  0.00  0.00    +0.000 C 
ENDBRANCH   1  12
BRANCH   8  14
ATOM     14  O   UNL     1       2.132   1.366  18.580  0.00  0.00    +0.000 OA
ATOM     15  H   UNL     1       1.621   0.785  19.168  0.00  0.00    +0.000 HD
ENDBRANCH   8  14
TORSDOF 2
ENDMDL
MODEL 2
REMARK VINA RESULT:      -6.5      1.306      1.701
REMARK  Name = 
REMARK  4 active torsions:
REMARK  status: ('A' for Active; 'I' for Inactive)
REMARK    1  A    between atoms: C_1  and  N_2
REMARK    2  A    between atoms: N_2  and  C_3
REMARK    3  A    between atoms: N_2  and  C_4
REMARK    4  A    between atoms: C_11  and  O_12
REMARK                            x       y       z     vdW  Elec       q    Type
REMARK                         _______ _______ _______ _____ _____    ______ ____
ROOT
ATOM      1  C   UNL     1       4.842   5.476  16.628  0.00  0.00    +0.000 C 
ATOM      2  C   UNL     1       4.281   6.448  17.684  0.00  0.00    +0.000 C 
ATOM      3  C   UNL     1       2.819   6.120  18.003  0.00  0.00    +0.000 C 
ATOM      4  C   UNL     1       2.592   4.664  18.318  0.00  0.00    +0.000 A 
ATOM      5  C   UNL     1       1.428   4.282  19.007  0.00  0.00    +0.000 A 
ATOM      6  C   UNL     1       1.185   2.941  19.310  0.00  0.00    +0.000 A 
ATOM      7  C   UNL     1       2.094   1.964  18.920  0.00  0.00    +0.000 A 
ATOM      8  C   UNL     1       3.243   2.336  18.221  0.00  0.00    +0.000 A 
ATOM      9  C   UNL     1       3.501   3.678  17.897  0.00  0.00    +0.000 A 
ATOM     10  C   UNL     1       4.781   4.033  17.180  0.00  0.00    +0.000 C 
ENDROOT
BRANCH   1  12
ATOM     11  C   UNL     1       7.025   6.565  17.114  0.00  0.00    +0.000 C 
ATOM     12  N   UNL     1       6.174   5.907  16.122  0.00  0.00    +0.000 NA
ATOM     13  C   UNL     1       6.908   4.805  15.495  0.00  0.00    +0.000 C 
ENDBRANCH   1  12
BRANCH   8  14
ATOM     14  O   UNL     1       4.152   1.389  17.844  0.00  0.00    +0.000 OA
ATOM     15  H   UNL     1       4.109   1.282  16.879  0.00  0.00    +0.000 HD
ENDBRANCH   8  14
TORSDOF 2
ENDMDL
MODEL 3
REMARK VINA RESULT:      -6.5      1.432      1.714
REMARK  Name = 
REMARK  4 active torsions:
REMARK  status: ('A' for Active; 'I' for Inactive)
REMARK    1  A    between atoms: C_1  and  N_2
REMARK    2  A    between atoms: N_2  and  C_3
REMARK    3  A    between atoms: N_2  and  C_4
REMARK    4  A    between atoms: C_11  and  O_12
REMARK                            x       y       z     vdW  Elec       q    Type
REMARK                         _______ _______ _______ _____ _____    ______ ____
ROOT
ATOM      1  C   UNL     1       4.617   4.935  17.044  0.00  0.00    +0.000 C 
ATOM      2  C   UNL     1       3.902   6.194  17.572  0.00  0.00    +0.000 C 
ATOM      3  C   UNL     1       2.556   5.830  18.205  0.00  0.00    +0.000 C 
ATOM      4  C   UNL     1       2.654   4.708  19.206  0.00  0.00    +0.000 A 
ATOM      5  C   UNL     1       1.624   4.532  20.146  0.00  0.00    +0.000 A 
ATOM      6  C   UNL     1       1.682   3.499  21.084  0.00  0.00    +0.000 A 
ATOM      7  C   UNL     1       2.763   2.624  21.088  0.00  0.00    +0.000 A 
ATOM      8  C   UNL     1       3.779   2.784  20.147  0.00  0.00    +0.000 A 
ATOM      9  C   UNL     1       3.735   3.810  19.189  0.00  0.00    +0.000 A 
ATOM     10  C   UNL     1       4.884   3.970  18.222  0.00  0.00    +0.000 C 
ENDROOT
BRANCH   1  12
ATOM     11  C   UNL     1       7.075   4.745  16.720  0.00  0.00    +0.000 C 
ATOM     12  N   UNL     1       5.807   5.272  16.216  0.00  0.00    +0.000 NA
ATOM     13  C   UNL     1       5.632   4.881  14.815  0.00  0.00    +0.000 C 
ENDBRANCH   1  12
BRANCH   8  14
ATOM     14  O   UNL     1       4.855   1.941  20.149  0.00  0.00    +0.000 OA
ATOM     15  H   UNL     1       5.169   1.836  19.235  0.00  0.00    +0.000 HD
ENDBRANCH   8  14
TORSDOF 2
ENDMDL
MODEL 4
REMARK VINA RESULT:      -6.5      1.926      2.793
REMARK  Name = 
REMARK  4 active torsions:
REMARK  status: ('A' for Active; 'I' for Inactive)
REMARK    1  A    between atoms: C_1  and  N_2
REMARK    2  A    between atoms: N_2  and  C_3
REMARK    3  A    between atoms: N_2  and  C_4
REMARK    4  A    between atoms: C_11  and  O_12
REMARK                            x       y       z     vdW  Elec       q    Type
REMARK                         _______ _______ _______ _____ _____    ______ ____
ROOT
ATOM      1  C   UNL     1       5.451   4.974  18.360  0.00  0.00    +0.000 C 
ATOM      2  C   UNL     1       4.809   4.648  16.997  0.00  0.00    +0.000 C 
ATOM      3  C   UNL     1       3.858   3.454  17.116  0.00  0.00    +0.000 C 
ATOM      4  C   UNL     1       2.872   3.590  18.248  0.00  0.00    +0.000 A 
ATOM      5  C   UNL     1       1.705   2.806  18.243  0.00  0.00    +0.000 A 
ATOM      6  C   UNL     1       0.775   2.904  19.280  0.00  0.00    +0.000 A 
ATOM      7  C   UNL     1       1.002   3.777  20.338  0.00  0.00    +0.000 A 
ATOM      8  C   UNL     1       2.166   4.545  20.356  0.00  0.00    +0.000 A 
ATOM      9  C   UNL     1       3.120   4.454  19.329  0.00  0.00    +0.000 A 
ATOM     10  C   UNL     1       4.341   5.341  19.371  0.00  0.00    +0.000 C 
ENDROOT
BRANCH   1  12
ATOM     11  C   UNL     1       7.664   5.768  19.168  0.00  0.00    +0.000 C 
ATOM     12  N   UNL     1       6.554   5.967  18.237  0.00  0.00    +0.000 NA
ATOM     13  C   UNL     1       7.067   6.053  16.867  0.00  0.00    +0.000 C 
ENDBRANCH   1  12
BRANCH   8  14
ATOM     14  O   UNL     1       2.396   5.418  21.382  0.00  0.00    +0.000 OA
ATOM     15  H   UNL     1       3.038   5.019  21.992  0.00  0.00    +0.000 HD
ENDBRANCH   8  14
TORSDOF 2
ENDMDL
MODEL 5
REMARK VINA RESULT:      -6.5      2.965      5.287
REMARK  Name = 
REMARK  4 active torsions:
REMARK  status: ('A' for Active; 'I' for Inactive)
REMARK    1  A    between atoms: C_1  and  N_2
REMARK    2  A    between atoms: N_2  and  C_3
REMARK    3  A    between atoms: N_2  and  C_4
REMARK    4  A    between atoms: C_11  and  O_12
REMARK                            x       y       z     vdW  Elec       q    Type
REMARK                         _______ _______ _______ _____ _____    ______ ____
ROOT
ATOM      1  C   UNL     1       4.149   3.889  18.834  0.00  0.00    +0.000 C 
ATOM      2  C   UNL     1       4.125   4.025  17.299  0.00  0.00    +0.000 C 
ATOM      3  C   UNL     1       4.502   5.447  16.874  0.00  0.00    +0.000 C 
ATOM      4  C   UNL     1       5.769   5.945  17.520  0.00  0.00    +0.000 A 
ATOM      5  C   UNL     1       6.454   7.031  16.947  0.00  0.00    +0.000 A 
ATOM      6  C   UNL     1       7.627   7.519  17.524  0.00  0.00    +0.000 A 
ATOM      7  C   UNL     1       8.126   6.938  18.684  0.00  0.00    +0.000 A 
ATOM      8  C   UNL     1       7.442   5.871  19.267  0.00  0.00    +0.000 A 
ATOM      9  C   UNL     1       6.254   5.372  18.708  0.00  0.00    +0.000 A 
ATOM     10  C   UNL     1       5.576   4.185  19.350  0.00  0.00    +0.000 C 
ENDROOT
BRANCH   1  12
ATOM     11  C   UNL     1       2.541   2.726  20.332  0.00  0.00    +0.000 C 
ATOM     12  N   UNL     1       3.561   2.600  19.292  0.00  0.00    +0.000 NA
ATOM     13  C   UNL     1       3.035   1.808  18.177  0.00  0.00    +0.000 C 
ENDBRANCH   1  12
BRANCH   8  14
ATOM     14  O   UNL     1       7.927   5.280  20.399  0.00  0.00    +0.000 OA
ATOM     15  H   UNL     1       8.839   5.584  20.542  0.00  0.00    +0.000 HD
ENDBRANCH   8  14
TORSDOF 2
ENDMDL
MODEL 6
REMARK VINA RESULT:      -6.4      0.560      1.064
REMARK  Name = 
REMARK  4 active torsions:
REMARK  status: ('A' for Active; 'I' for Inactive)
REMARK    1  A    between atoms: C_1  and  N_2
REMARK    2  A    between atoms: N_2  and  C_3
REMARK    3  A    between atoms: N_2  and  C_4
REMARK    4  A    between atoms: C_11  and  O_12
REMARK                            x       y       z     vdW  Elec       q    Type
REMARK                         _______ _______ _______ _____ _____    ______ ____
ROOT
ATOM      1  C   UNL     1       4.560   5.084  16.771  0.00  0.00    +0.000 C 
ATOM      2  C   UNL     1       4.664   6.100  17.925  0.00  0.00    +0.000 C 
ATOM      3  C   UNL     1       3.308   6.282  18.613  0.00  0.00    +0.000 C 
ATOM      4  C   UNL     1       2.654   4.979  18.992  0.00  0.00    +0.000 A 
ATOM      5  C   UNL     1       1.636   4.975  19.963  0.00  0.00    +0.000 A 
ATOM      6  C   UNL     1       1.008   3.785  20.333  0.00  0.00    +0.000 A 
ATOM      7  C   UNL     1       1.378   2.587  19.733  0.00  0.00    +0.000 A 
ATOM      8  C   UNL     1       2.374   2.587  18.757  0.00  0.00    +0.000 A 
ATOM      9  C   UNL     1       3.012   3.774  18.363  0.00  0.00    +0.000 A 
ATOM     10  C   UNL     1       4.118   3.715  17.336  0.00  0.00    +0.000 C 
ENDROOT
BRANCH   1  12
ATOM     11  C   UNL     1       6.981   4.543  16.608  0.00  0.00    +0.000 C 
ATOM     12  N   UNL     1       5.790   5.060  15.933  0.00  0.00    +0.000 NA
ATOM     13  C   UNL     1       5.585   4.340  14.674  0.00  0.00    +0.000 C 
ENDBRANCH   1  12
BRANCH   8  14
ATOM     14  O   UNL     1       2.759   1.415  18.169  0.00  0.00    +0.000 OA
ATOM     15  H   UNL     1       3.129   1.613  17.292  0.00  0.00    +0.000 HD
ENDBRANCH   8  14
TORSDOF 2
ENDMDL
MODEL 7
REMARK VINA RESULT:      -6.4      1.609      1.701
REMARK  Name = 
REMARK  4 active torsions:
REMARK  status: ('A' for Active; 'I' for Inactive)
REMARK    1  A    between atoms: C_1  and  N_2
REMARK    2  A    between atoms: N_2  and  C_3
REMARK    3  A    between atoms: N_2  and  C_4
REMARK    4  A    between atoms: C_11  and  O_12
REMARK                            x       y       z     vdW  Elec       q    Type
REMARK                         _______ _______ _______ _____ _____    ______ ____
ROOT
ATOM      1  C   UNL     1       4.619   4.157  17.320  0.00  0.00    +0.000 C 
ATOM      2  C   UNL     1       3.691   5.382  17.434  0.00  0.00    +0.000 C 
ATOM      3  C   UNL     1       2.309   4.970  17.952  0.00  0.00    +0.000 C 
ATOM      4  C   UNL     1       2.369   4.120  19.195  0.00  0.00    +0.000 A 
ATOM      5  C   UNL     1       1.226   4.002  20.005  0.00  0.00    +0.000 A 
ATOM      6  C   UNL     1       1.248   3.218  21.160  0.00  0.00    +0.000 A 
ATOM      7  C   UNL     1       2.405   2.535  21.515  0.00  0.00    +0.000 A 
ATOM      8  C   UNL     1       3.537   2.634  20.706  0.00  0.00    +0.000 A 
ATOM      9  C   UNL     1       3.533   3.408  19.534  0.00  0.00    +0.000 A 
ATOM     10  C   UNL     1       4.798   3.521  18.718  0.00  0.00    +0.000 C 
ENDROOT
BRANCH   1  12
ATOM     11  C   UNL     1       5.958   3.963  15.234  0.00  0.00    +0.000 C 
ATOM     12  N   UNL     1       5.883   4.478  16.601  0.00  0.00    +0.000 NA
ATOM     13  C   UNL     1       6.169   5.915  16.603  0.00  0.00    +0.000 C 
ENDBRANCH   1  12
BRANCH   8  14
ATOM     14  O   UNL     1       4.686   1.979  21.050  0.00  0.00    +0.000 OA
ATOM     15  H   UNL     1       4.910   1.352  20.342  0.00  0.00    +0.000 HD
ENDBRANCH   8  14
TORSDOF 2
ENDMDL
MODEL 8
REMARK VINA RESULT:      -6.3      2.062      2.495
REMARK  Name = 
REMARK  4 active torsions:
REMARK  status: ('A' for Active; 'I' for Inactive)
REMARK    1  A    between atoms: C_1  and  N_2
REMARK    2  A    between atoms: N_2  and  C_3
REMARK    3  A    between atoms: N_2  and  C_4
REMARK    4  A    between atoms: C_11  and  O_12
REMARK                            x       y       z     vdW  Elec       q    Type
REMARK                         _______ _______ _______ _____ _____    ______ ____
ROOT
ATOM      1  C   UNL     1       6.060   5.467  17.664  0.00  0.00    +0.000 C 
ATOM      2  C   UNL     1       4.940   6.521  17.760  0.00  0.00    +0.000 C 
ATOM      3  C   UNL     1       3.603   5.937  17.298  0.00  0.00    +0.000 C 
ATOM      4  C   UNL     1       3.272   4.620  17.952  0.00  0.00    +0.000 A 
ATOM      5  C   UNL     1       1.941   4.165  17.950  0.00  0.00    +0.000 A 
ATOM      6  C   UNL     1       1.603   2.947  18.543  0.00  0.00    +0.000 A 
ATOM      7  C   UNL     1       2.587   2.164  19.135  0.00  0.00    +0.000 A 
ATOM      8  C   UNL     1       3.911   2.603  19.124  0.00  0.00    +0.000 A 
ATOM      9  C   UNL     1       4.275   3.819  18.524  0.00  0.00    +0.000 A 
ATOM     10  C   UNL     1       5.715   4.271  18.581  0.00  0.00    +0.000 C 
ENDROOT
BRANCH   1  12
ATOM     11  C   UNL     1       7.515   7.480  17.534  0.00  0.00    +0.000 C 
ATOM     12  N   UNL     1       7.409   6.062  17.875  0.00  0.00    +0.000 NA
ATOM     13  C   UNL     1       7.899   5.845  19.239  0.00  0.00    +0.000 C 
ENDBRANCH   1  12
BRANCH   8  14
ATOM     14  O   UNL     1       4.888   1.850  19.714  0.00  0.00    +0.000 OA
ATOM     15  H   UNL     1       4.513   0.987  19.956  0.00  0.00    +0.000 HD
ENDBRANCH   8  14
TORSDOF 2
ENDMDL
MODEL 9
REMARK VINA RESULT:      -6.3      1.897      2.719
REMARK  Name = 
REMARK  4 active torsions:
REMARK  status: ('A' for Active; 'I' for Inactive)
REMARK    1  A    between atoms: C_1  and  N_2
REMARK    2  A    between atoms: N_2  and  C_3
REMARK    3  A    between atoms: N_2  and  C_4
REMARK    4  A    between atoms: C_11  and  O_12
REMARK                            x       y       z     vdW  Elec       q    Type
REMARK                         _______ _______ _______ _____ _____    ______ ____
ROOT
ATOM      1  C   UNL     1       5.450   4.709  18.191  0.00  0.00    +0.000 C 
ATOM      2  C   UNL     1       4.810   4.010  16.977  0.00  0.00    +0.000 C 
ATOM      3  C   UNL     1       3.860   2.896  17.428  0.00  0.00    +0.000 C 
ATOM      4  C   UNL     1       2.874   3.345  18.476  0.00  0.00    +0.000 A 
ATOM      5  C   UNL     1       1.709   2.589  18.694  0.00  0.00    +0.000 A 
ATOM      6  C   UNL     1       0.778   2.975  19.660  0.00  0.00    +0.000 A 
ATOM      7  C   UNL     1       1.002   4.112  20.427  0.00  0.00    +0.000 A 
ATOM      8  C   UNL     1       2.165   4.856  20.227  0.00  0.00    +0.000 A 
ATOM      9  C   UNL     1       3.119   4.480  19.268  0.00  0.00    +0.000 A 
ATOM     10  C   UNL     1       4.338   5.345  19.057  0.00  0.00    +0.000 C 
ENDROOT
BRANCH   1  12
ATOM     11  C   UNL     1       6.109   6.907  17.233  0.00  0.00    +0.000 C 
ATOM     12  N   UNL     1       6.550   5.629  17.793  0.00  0.00    +0.000 NA
ATOM     13  C   UNL     1       7.492   5.869  18.889  0.00  0.00    +0.000 C 
ENDBRANCH   1  12
BRANCH   8  14
ATOM     14  O   UNL     1       2.393   5.984  20.964  0.00  0.00    +0.000 OA
ATOM     15  H   UNL     1       3.222   5.872  21.457  0.00  0.00    +0.000 HD
ENDBRANCH   8  14
TORSDOF 2
ENDMDL
