MODEL 1
REMARK VINA RESULT:      -7.9      0.000      0.000
REMARK  Name = 
REMARK  5 active torsions:
REMARK  status: ('A' for Active; 'I' for Inactive)
REMARK    1  A    between atoms: C_2  and  C_3
REMARK    2  A    between atoms: C_7  and  C_8
REMARK    3  A    between atoms: C_8  and  C_10
REMARK    4  A    between atoms: N_14  and  C_15
REMARK    5  A    between atoms: C_15  and  C_16
REMARK                            x       y       z     vdW  Elec       q    Type
REMARK                         _______ _______ _______ _____ _____    ______ ____
ROOT
ATOM      1  C   UNL     1       6.021   5.211  17.293  0.00  0.00    +0.000 A 
ATOM      2  C   UNL     1       7.096   5.048  18.133  0.00  0.00    +0.000 A 
ATOM      3  N   UNL     1       7.917   6.062  18.499  0.00  0.00    +0.000 NA
ATOM      4  C   UNL     1       7.633   7.282  18.022  0.00  0.00    +0.000 A 
ATOM      5  N   UNL     1       8.375   8.326  18.528  0.00  0.00    +0.000 N 
ATOM      6  N   UNL     1       6.626   7.529  17.172  0.00  0.00    +0.000 NA
ATOM      7  C   UNL     1       5.828   6.494  16.841  0.00  0.00    +0.000 A 
ATOM      8  H   UNL     1       9.191   7.958  19.000  0.00  0.00    +0.000 HD
ENDROOT
BRANCH   1   9
ATOM      9  C   UNL     1       5.111   4.097  16.980  0.00  0.00    +0.000 C 
ATOM     10  O   UNL     1       5.428   3.309  16.096  0.00  0.00    +0.000 OA
BRANCH   9  15
ATOM     11  C   UNL     1       2.592   3.326  19.718  0.00  0.00    +0.000 A 
ATOM     12  C   UNL     1       1.393   3.590  19.050  0.00  0.00    +0.000 A 
ATOM     13  C   UNL     1       1.412   4.015  17.720  0.00  0.00    +0.000 A 
ATOM     14  C   UNL     1       2.629   4.169  17.054  0.00  0.00    +0.000 A 
ATOM     15  C   UNL     1       3.834   3.898  17.715  0.00  0.00    +0.000 A 
ATOM     16  C   UNL     1       3.814   3.491  19.054  0.00  0.00    +0.000 A 
BRANCH  11  18
ATOM     17  N   UNL     1       2.563   2.504  22.177  0.00  0.00    +0.000 NA
ATOM     18  C   UNL     1       2.576   2.882  21.079  0.00  0.00    +0.000 C 
ENDBRANCH  11  18
ENDBRANCH   9  15
ENDBRANCH   1   9
BRANCH   5  19
ATOM     19  C   UNL     1       8.590   9.468  17.665  0.00  0.00    +0.000 C 
BRANCH  19  20
ATOM     20  C   UNL     1       9.065  10.636  18.485  0.00  0.00    +0.000 A 
ATOM     21  C   UNL     1       9.533  10.461  19.794  0.00  0.00    +0.000 A 
ATOM     22  C   UNL     1       9.934  11.565  20.541  0.00  0.00    +0.000 A 
ATOM     23  C   UNL     1       9.850  12.815  19.954  0.00  0.00    +0.000 A 
ATOM     24  N   UNL     1       9.397  13.029  18.699  0.00  0.00    +0.000 NA
ATOM     25  C   UNL     1       9.015  11.937  17.997  0.00  0.00    +0.000 A 
ENDBRANCH  19  20
ENDBRANCH   5  19
TORSDOF 5
ENDMDL
MODEL 2
REMARK VINA RESULT:      -7.9      1.061      1.258
REMARK  Name = 
REMARK  5 active torsions:
REMARK  status: ('A' for Active; 'I' for Inactive)
REMARK    1  A    between atoms: C_2  and  C_3
REMARK    2  A    between atoms: C_7  and  C_8
REMARK    3  A    between atoms: C_8  and  C_10
REMARK    4  A    between atoms: N_14  and  C_15
REMARK    5  A    between atoms: C_15  and  C_16
REMARK                            x       y       z     vdW  Elec       q    Type
REMARK                         _______ _______ _______ _____ _____    ______ ____
ROOT
ATOM      1  C   UNL     1       6.529   5.662  17.560  0.00  0.00    +0.000 A 
ATOM      2  C   UNL     1       7.533   5.557  18.492  0.00  0.00    +0.000 A 
ATOM      3  N   UNL     1       8.300   6.603  18.884  0.00  0.00    +0.000 NA
ATOM      4  C   UNL     1       8.031   7.797  18.336  0.00  0.00    +0.000 A 
ATOM      5  N   UNL     1       8.707   8.877  18.859  0.00  0.00    +0.000 N 
ATOM      6  N   UNL     1       7.094   7.987  17.396  0.00  0.00    +0.000 NA
ATOM      7  C   UNL     1       6.348   6.922  17.042  0.00  0.00    +0.000 A 
ATOM      8  H   UNL     1       9.488   8.547  19.411  0.00  0.00    +0.000 HD
ENDROOT
BRANCH   1   9
ATOM      9  C   UNL     1       5.672   4.516  17.218  0.00  0.00    +0.000 C 
ATOM     10  O   UNL     1       6.073   3.708  16.386  0.00  0.00    +0.000 OA
BRANCH   9  15
ATOM     11  C   UNL     1       2.969   3.526  19.699  0.00  0.00    +0.000 A 
ATOM     12  C   UNL     1       1.827   3.989  19.038  0.00  0.00    +0.000 A 
ATOM     13  C   UNL     1       1.944   4.616  17.796  0.00  0.00    +0.000 A 
ATOM     14  C   UNL     1       3.201   4.775  17.210  0.00  0.00    +0.000 A 
ATOM     15  C   UNL     1       4.348   4.306  17.862  0.00  0.00    +0.000 A 
ATOM     16  C   UNL     1       4.231   3.695  19.116  0.00  0.00    +0.000 A 
BRANCH  11  18
ATOM     17  N   UNL     1       2.754   2.331  21.990  0.00  0.00    +0.000 NA
ATOM     18  C   UNL     1       2.853   2.876  20.969  0.00  0.00    +0.000 C 
ENDBRANCH  11  18
ENDBRANCH   9  15
ENDBRANCH   1   9
BRANCH   5  19
ATOM     19  C   UNL     1       8.969   9.990  17.972  0.00  0.00    +0.000 C 
BRANCH  19  20
ATOM     20  C   UNL     1       9.860  10.986  18.663  0.00  0.00    +0.000 A 
ATOM     21  C   UNL     1      10.812  11.725  17.950  0.00  0.00    +0.000 A 
ATOM     22  C   UNL     1      11.646  12.614  18.621  0.00  0.00    +0.000 A 
ATOM     23  C   UNL     1      11.505  12.732  19.992  0.00  0.00    +0.000 A 
ATOM     24  N   UNL     1      10.606  12.032  20.720  0.00  0.00    +0.000 NA
ATOM     25  C   UNL     1       9.808  11.177  20.040  0.00  0.00    +0.000 A 
ENDBRANCH  19  20
ENDBRANCH   5  19
TORSDOF 5
ENDMDL
MODEL 3
REMARK VINA RESULT:      -7.8      6.759      9.676
REMARK  Name = 
REMARK  5 active torsions:
REMARK  status: ('A' for Active; 'I' for Inactive)
REMARK    1  A    between atoms: C_2  and  C_3
REMARK    2  A    between atoms: C_7  and  C_8
REMARK    3  A    between atoms: C_8  and  C_10
REMARK    4  A    between atoms: N_14  and  C_15
REMARK    5  A    between atoms: C_15  and  C_16
REMARK                            x       y       z     vdW  Elec       q    Type
REMARK                         _______ _______ _______ _____ _____    ______ ____
ROOT
ATOM      1  C   UNL     1       0.105  10.216  19.198  0.00  0.00    +0.000 A 
ATOM      2  C   UNL     1       0.026   9.549  20.397  0.00  0.00    +0.000 A 
ATOM      3  N   UNL     1       0.795   8.478  20.706  0.00  0.00    +0.000 NA
ATOM      4  C   UNL     1       1.689   8.081  19.790  0.00  0.00    +0.000 A 
ATOM      5  N   UNL     1       2.571   7.097  20.179  0.00  0.00    +0.000 N 
ATOM      6  N   UNL     1       1.814   8.650  18.582  0.00  0.00    +0.000 NA
ATOM      7  C   UNL     1       1.035   9.718  18.318  0.00  0.00    +0.000 A 
ATOM      8  H   UNL     1       2.230   6.658  21.024  0.00  0.00    +0.000 HD
ENDROOT
BRANCH   1   9
ATOM      9  C   UNL     1      -0.698  11.421  18.932  0.00  0.00    +0.000 C 
ATOM     10  O   UNL     1      -0.294  12.502  19.347  0.00  0.00    +0.000 OA
BRANCH   9  15
ATOM     11  C   UNL     1      -3.233  10.809  16.169  0.00  0.00    +0.000 A 
ATOM     12  C   UNL     1      -4.409  11.233  16.796  0.00  0.00    +0.000 A 
ATOM     13  C   UNL     1      -4.368  11.713  18.106  0.00  0.00    +0.000 A 
ATOM     14  C   UNL     1      -3.153  11.776  18.789  0.00  0.00    +0.000 A 
ATOM     15  C   UNL     1      -1.970  11.361  18.164  0.00  0.00    +0.000 A 
ATOM     16  C   UNL     1      -2.015  10.862  16.857  0.00  0.00    +0.000 A 
BRANCH  11  18
ATOM     17  N   UNL     1      -3.317   9.923  13.733  0.00  0.00    +0.000 NA
ATOM     18  C   UNL     1      -3.269  10.324  14.822  0.00  0.00    +0.000 C 
ENDBRANCH  11  18
ENDBRANCH   9  15
ENDBRANCH   1   9
BRANCH   5  19
ATOM     19  C   UNL     1       3.073   6.211  19.151  0.00  0.00    +0.000 C 
BRANCH  19  20
ATOM     20  C   UNL     1       2.249   4.953  19.124  0.00  0.00    +0.000 A 
ATOM     21  C   UNL     1       1.637   4.462  20.284  0.00  0.00    +0.000 A 
ATOM     22  C   UNL     1       0.909   3.277  20.236  0.00  0.00    +0.000 A 
ATOM     23  C   UNL     1       0.820   2.614  19.025  0.00  0.00    +0.000 A 
ATOM     24  N   UNL     1       1.402   3.048  17.884  0.00  0.00    +0.000 NA
ATOM     25  C   UNL     1       2.102   4.204  17.962  0.00  0.00    +0.000 A 
ENDBRANCH  19  20
ENDBRANCH   5  19
TORSDOF 5
ENDMDL
MODEL 4
REMARK VINA RESULT:      -7.8      1.254      1.701
REMARK  Name = 
REMARK  5 active torsions:
REMARK  status: ('A' for Active; 'I' for Inactive)
REMARK    1  A    between atoms: C_2  and  C_3
REMARK    2  A    between atoms: C_7  and  C_8
REMARK    3  A    between atoms: C_8  and  C_10
REMARK    4  A    between atoms: N_14  and  C_15
REMARK    5  A    between atoms: C_15  and  C_16
REMARK                            x       y       z     vdW  Elec       q    Type
REMARK                         _______ _______ _______ _____ _____    ______ ____
ROOT
ATOM      1  C   UNL     1       6.678   6.110  17.777  0.00  0.00    +0.000 A 
ATOM      2  C   UNL     1       6.294   7.215  17.056  0.00  0.00    +0.000 A 
ATOM      3  N   UNL     1       6.905   8.420  17.156  0.00  0.00    +0.000 NA
ATOM      4  C   UNL     1       7.951   8.509  17.991  0.00  0.00    +0.000 A 
ATOM      5  N   UNL     1       8.659   9.690  17.963  0.00  0.00    +0.000 N 
ATOM      6  N   UNL     1       8.374   7.494  18.758  0.00  0.00    +0.000 NA
ATOM      7  C   UNL     1       7.744   6.310  18.620  0.00  0.00    +0.000 A 
ATOM      8  H   UNL     1       8.113  10.396  17.486  0.00  0.00    +0.000 HD
ENDROOT
BRANCH   1   9
ATOM      9  C   UNL     1       6.034   4.801  17.583  0.00  0.00    +0.000 C 
ATOM     10  O   UNL     1       6.664   3.912  17.020  0.00  0.00    +0.000 OA
BRANCH   9  15
ATOM     11  C   UNL     1       3.099   3.688  19.724  0.00  0.00    +0.000 A 
ATOM     12  C   UNL     1       2.026   4.090  18.924  0.00  0.00    +0.000 A 
ATOM     13  C   UNL     1       2.263   4.716  17.699  0.00  0.00    +0.000 A 
ATOM     14  C   UNL     1       3.573   4.936  17.269  0.00  0.00    +0.000 A 
ATOM     15  C   UNL     1       4.653   4.528  18.062  0.00  0.00    +0.000 A 
ATOM     16  C   UNL     1       4.413   3.917  19.299  0.00  0.00    +0.000 A 
BRANCH  11  18
ATOM     17  N   UNL     1       2.661   2.494  21.984  0.00  0.00    +0.000 NA
ATOM     18  C   UNL     1       2.860   3.038  20.977  0.00  0.00    +0.000 C 
ENDBRANCH  11  18
ENDBRANCH   9  15
ENDBRANCH   1   9
BRANCH   5  19
ATOM     19  C   UNL     1       9.316  10.099  19.185  0.00  0.00    +0.000 C 
BRANCH  19  20
ATOM     20  C   UNL     1      10.189  11.294  18.911  0.00  0.00    +0.000 A 
ATOM     21  C   UNL     1      11.405  11.473  19.583  0.00  0.00    +0.000 A 
ATOM     22  C   UNL     1      12.175  12.605  19.335  0.00  0.00    +0.000 A 
ATOM     23  C   UNL     1      11.700  13.529  18.421  0.00  0.00    +0.000 A 
ATOM     24  N   UNL     1      10.530  13.399  17.757  0.00  0.00    +0.000 NA
ATOM     25  C   UNL     1       9.804  12.288  18.019  0.00  0.00    +0.000 A 
ENDBRANCH  19  20
ENDBRANCH   5  19
TORSDOF 5
ENDMDL
MODEL 5
REMARK VINA RESULT:      -7.7      0.572      1.122
REMARK  Name = 
REMARK  5 active torsions:
REMARK  status: ('A' for Active; 'I' for Inactive)
REMARK    1  A    between atoms: C_2  and  C_3
REMARK    2  A    between atoms: C_7  and  C_8
REMARK    3  A    between atoms: C_8  and  C_10
REMARK    4  A    between atoms: N_14  and  C_15
REMARK    5  A    between atoms: C_15  and  C_16
REMARK                            x       y       z     vdW  Elec       q    Type
REMARK                         _______ _______ _______ _____ _____    ______ ____
ROOT
ATOM      1  C   UNL     1       5.936   5.445  17.342  0.00  0.00    +0.000 A 
ATOM      2  C   UNL     1       5.740   6.585  16.600  0.00  0.00    +0.000 A 
ATOM      3  N   UNL     1       6.476   7.712  16.756  0.00  0.00    +0.000 NA
ATOM      4  C   UNL     1       7.454   7.683  17.671  0.00  0.00    +0.000 A 
ATOM      5  N   UNL     1       8.294   8.774  17.707  0.00  0.00    +0.000 N 
ATOM      6  N   UNL     1       7.696   6.628  18.463  0.00  0.00    +0.000 NA
ATOM      7  C   UNL     1       6.947   5.524  18.269  0.00  0.00    +0.000 A 
ATOM      8  H   UNL     1       7.872   9.537  17.193  0.00  0.00    +0.000 HD
ENDROOT
BRANCH   1   9
ATOM      9  C   UNL     1       5.163   4.218  17.089  0.00  0.00    +0.000 C 
ATOM     10  O   UNL     1       5.613   3.390  16.303  0.00  0.00    +0.000 OA
BRANCH   9  15
ATOM     11  C   UNL     1       2.569   3.384  19.737  0.00  0.00    +0.000 A 
ATOM     12  C   UNL     1       1.390   3.517  18.997  0.00  0.00    +0.000 A 
ATOM     13  C   UNL     1       1.448   3.875  17.649  0.00  0.00    +0.000 A 
ATOM     14  C   UNL     1       2.683   4.093  17.036  0.00  0.00    +0.000 A 
ATOM     15  C   UNL     1       3.868   3.953  17.769  0.00  0.00    +0.000 A 
ATOM     16  C   UNL     1       3.808   3.613  19.126  0.00  0.00    +0.000 A 
BRANCH  11  18
ATOM     17  N   UNL     1       2.466   2.687  22.232  0.00  0.00    +0.000 NA
ATOM     18  C   UNL     1       2.515   3.009  21.117  0.00  0.00    +0.000 C 
ENDBRANCH  11  18
ENDBRANCH   9  15
ENDBRANCH   1   9
BRANCH   5  19
ATOM     19  C   UNL     1       8.894   9.109  18.980  0.00  0.00    +0.000 C 
BRANCH  19  20
ATOM     20  C   UNL     1       9.305  10.556  18.978  0.00  0.00    +0.000 A 
ATOM     21  C   UNL     1      10.078  11.093  20.015  0.00  0.00    +0.000 A 
ATOM     22  C   UNL     1      10.413  12.443  20.003  0.00  0.00    +0.000 A 
ATOM     23  C   UNL     1       9.959  13.219  18.953  0.00  0.00    +0.000 A 
ATOM     24  N   UNL     1       9.204  12.744  17.937  0.00  0.00    +0.000 NA
ATOM     25  C   UNL     1       8.895  11.428  17.974  0.00  0.00    +0.000 A 
ENDBRANCH  19  20
ENDBRANCH   5  19
TORSDOF 5
ENDMDL
MODEL 6
REMARK VINA RESULT:      -7.7      1.381      1.579
REMARK  Name = 
REMARK  5 active torsions:
REMARK  status: ('A' for Active; 'I' for Inactive)
REMARK    1  A    between atoms: C_2  and  C_3
REMARK    2  A    between atoms: C_7  and  C_8
REMARK    3  A    between atoms: C_8  and  C_10
REMARK    4  A    between atoms: N_14  and  C_15
REMARK    5  A    between atoms: C_15  and  C_16
REMARK                            x       y       z     vdW  Elec       q    Type
REMARK                         _______ _______ _______ _____ _____    ______ ____
ROOT
ATOM      1  C   UNL     1       6.354   5.360  17.222  0.00  0.00    +0.000 A 
ATOM      2  C   UNL     1       7.354   5.205  18.151  0.00  0.00    +0.000 A 
ATOM      3  N   UNL     1       8.101   6.233  18.621  0.00  0.00    +0.000 NA
ATOM      4  C   UNL     1       7.817   7.459  18.158  0.00  0.00    +0.000 A 
ATOM      5  N   UNL     1       8.473   8.509  18.761  0.00  0.00    +0.000 N 
ATOM      6  N   UNL     1       6.883   7.700  17.227  0.00  0.00    +0.000 NA
ATOM      7  C   UNL     1       6.156   6.650  16.793  0.00  0.00    +0.000 A 
ATOM      8  H   UNL     1       9.256   8.153  19.293  0.00  0.00    +0.000 HD
ENDROOT
BRANCH   1   9
ATOM      9  C   UNL     1       5.517   4.228  16.794  0.00  0.00    +0.000 C 
ATOM     10  O   UNL     1       5.877   3.562  15.828  0.00  0.00    +0.000 OA
BRANCH   9  15
ATOM     11  C   UNL     1       2.497   4.349  19.095  0.00  0.00    +0.000 A 
ATOM     12  C   UNL     1       1.877   3.137  18.776  0.00  0.00    +0.000 A 
ATOM     13  C   UNL     1       2.444   2.293  17.819  0.00  0.00    +0.000 A 
ATOM     14  C   UNL     1       3.634   2.655  17.186  0.00  0.00    +0.000 A 
ATOM     15  C   UNL     1       4.265   3.864  17.507  0.00  0.00    +0.000 A 
ATOM     16  C   UNL     1       3.685   4.718  18.453  0.00  0.00    +0.000 A 
BRANCH  11  18
ATOM     17  N   UNL     1       1.443   5.920  20.869  0.00  0.00    +0.000 NA
ATOM     18  C   UNL     1       1.923   5.213  20.082  0.00  0.00    +0.000 C 
ENDBRANCH  11  18
ENDBRANCH   9  15
ENDBRANCH   1   9
BRANCH   5  19
ATOM     19  C   UNL     1       8.722   9.685  17.956  0.00  0.00    +0.000 C 
BRANCH  19  20
ATOM     20  C   UNL     1       9.574  10.654  18.731  0.00  0.00    +0.000 A 
ATOM     21  C   UNL     1      10.595  11.381  18.106  0.00  0.00    +0.000 A 
ATOM     22  C   UNL     1      11.390  12.244  18.855  0.00  0.00    +0.000 A 
ATOM     23  C   UNL     1      11.142  12.347  20.212  0.00  0.00    +0.000 A 
ATOM     24  N   UNL     1      10.174  11.658  20.855  0.00  0.00    +0.000 NA
ATOM     25  C   UNL     1       9.416  10.828  20.101  0.00  0.00    +0.000 A 
ENDBRANCH  19  20
ENDBRANCH   5  19
TORSDOF 5
ENDMDL
MODEL 7
REMARK VINA RESULT:      -7.7      1.370      1.433
REMARK  Name = 
REMARK  5 active torsions:
REMARK  status: ('A' for Active; 'I' for Inactive)
REMARK    1  A    between atoms: C_2  and  C_3
REMARK    2  A    between atoms: C_7  and  C_8
REMARK    3  A    between atoms: C_8  and  C_10
REMARK    4  A    between atoms: N_14  and  C_15
REMARK    5  A    between atoms: C_15  and  C_16
REMARK                            x       y       z     vdW  Elec       q    Type
REMARK                         _______ _______ _______ _____ _____    ______ ____
ROOT
ATOM      1  C   UNL     1       6.448   5.553  17.298  0.00  0.00    +0.000 A 
ATOM      2  C   UNL     1       7.409   5.417  18.271  0.00  0.00    +0.000 A 
ATOM      3  N   UNL     1       8.156   6.450  18.730  0.00  0.00    +0.000 NA
ATOM      4  C   UNL     1       7.912   7.661  18.211  0.00  0.00    +0.000 A 
ATOM      5  N   UNL     1       8.563   8.723  18.799  0.00  0.00    +0.000 N 
ATOM      6  N   UNL     1       7.019   7.882  17.236  0.00  0.00    +0.000 NA
ATOM      7  C   UNL     1       6.290   6.829  16.814  0.00  0.00    +0.000 A 
ATOM      8  H   UNL     1       9.319   8.374  19.374  0.00  0.00    +0.000 HD
ENDROOT
BRANCH   1   9
ATOM      9  C   UNL     1       5.608   4.419  16.881  0.00  0.00    +0.000 C 
ATOM     10  O   UNL     1       6.009   3.689  15.980  0.00  0.00    +0.000 OA
BRANCH   9  15
ATOM     11  C   UNL     1       2.507   4.699  19.059  0.00  0.00    +0.000 A 
ATOM     12  C   UNL     1       1.814   3.548  18.674  0.00  0.00    +0.000 A 
ATOM     13  C   UNL     1       2.357   2.693  17.714  0.00  0.00    +0.000 A 
ATOM     14  C   UNL     1       3.598   2.983  17.142  0.00  0.00    +0.000 A 
ATOM     15  C   UNL     1       4.301   4.130  17.530  0.00  0.00    +0.000 A 
ATOM     16  C   UNL     1       3.746   4.997  18.478  0.00  0.00    +0.000 A 
BRANCH  11  18
ATOM     17  N   UNL     1       1.519   6.300  20.844  0.00  0.00    +0.000 NA
ATOM     18  C   UNL     1       1.956   5.575  20.049  0.00  0.00    +0.000 C 
ENDBRANCH  11  18
ENDBRANCH   9  15
ENDBRANCH   1   9
BRANCH   5  19
ATOM     19  C   UNL     1       8.865   9.863  17.961  0.00  0.00    +0.000 C 
BRANCH  19  20
ATOM     20  C   UNL     1       9.706  10.845  18.731  0.00  0.00    +0.000 A 
ATOM     21  C   UNL     1       9.593  10.963  20.122  0.00  0.00    +0.000 A 
ATOM     22  C   UNL     1      10.359  11.904  20.803  0.00  0.00    +0.000 A 
ATOM     23  C   UNL     1      11.214  12.704  20.068  0.00  0.00    +0.000 A 
ATOM     24  N   UNL     1      11.348  12.630  18.725  0.00  0.00    +0.000 NA
ATOM     25  C   UNL     1      10.591  11.705  18.090  0.00  0.00    +0.000 A 
ENDBRANCH  19  20
ENDBRANCH   5  19
TORSDOF 5
ENDMDL
MODEL 8
REMARK VINA RESULT:      -7.7      1.611      2.057
REMARK  Name = 
REMARK  5 active torsions:
REMARK  status: ('A' for Active; 'I' for Inactive)
REMARK    1  A    between atoms: C_2  and  C_3
REMARK    2  A    between atoms: C_7  and  C_8
REMARK    3  A    between atoms: C_8  and  C_10
REMARK    4  A    between atoms: N_14  and  C_15
REMARK    5  A    between atoms: C_15  and  C_16
REMARK                            x       y       z     vdW  Elec       q    Type
REMARK                         _______ _______ _______ _____ _____    ______ ____
ROOT
ATOM      1  C   UNL     1       6.718   6.077  17.593  0.00  0.00    +0.000 A 
ATOM      2  C   UNL     1       6.361   7.208  16.898  0.00  0.00    +0.000 A 
ATOM      3  N   UNL     1       6.955   8.412  17.077  0.00  0.00    +0.000 NA
ATOM      4  C   UNL     1       7.956   8.475  17.967  0.00  0.00    +0.000 A 
ATOM      5  N   UNL     1       8.654   9.661  18.022  0.00  0.00    +0.000 N 
ATOM      6  N   UNL     1       8.349   7.433  18.713  0.00  0.00    +0.000 NA
ATOM      7  C   UNL     1       7.738   6.251  18.496  0.00  0.00    +0.000 A 
ATOM      8  H   UNL     1       8.126  10.382  17.547  0.00  0.00    +0.000 HD
ENDROOT
BRANCH   1   9
ATOM      9  C   UNL     1       6.097   4.773  17.314  0.00  0.00    +0.000 C 
ATOM     10  O   UNL     1       6.774   3.899  16.783  0.00  0.00    +0.000 OA
BRANCH   9  15
ATOM     11  C   UNL     1       2.696   4.882  19.005  0.00  0.00    +0.000 A 
ATOM     12  C   UNL     1       2.002   3.928  18.256  0.00  0.00    +0.000 A 
ATOM     13  C   UNL     1       2.642   3.259  17.211  0.00  0.00    +0.000 A 
ATOM     14  C   UNL     1       3.978   3.537  16.919  0.00  0.00    +0.000 A 
ATOM     15  C   UNL     1       4.682   4.485  17.671  0.00  0.00    +0.000 A 
ATOM     16  C   UNL     1       4.033   5.170  18.706  0.00  0.00    +0.000 A 
BRANCH  11  18
ATOM     17  N   UNL     1       1.512   6.133  20.944  0.00  0.00    +0.000 NA
ATOM     18  C   UNL     1       2.046   5.565  20.083  0.00  0.00    +0.000 C 
ENDBRANCH  11  18
ENDBRANCH   9  15
ENDBRANCH   1   9
BRANCH   5  19
ATOM     19  C   UNL     1       9.244  10.025  19.291  0.00  0.00    +0.000 C 
BRANCH  19  20
ATOM     20  C   UNL     1      10.232  11.141  19.084  0.00  0.00    +0.000 A 
ATOM     21  C   UNL     1      10.829  11.792  20.171  0.00  0.00    +0.000 A 
ATOM     22  C   UNL     1      11.712  12.844  19.950  0.00  0.00    +0.000 A 
ATOM     23  C   UNL     1      11.969  13.217  18.643  0.00  0.00    +0.000 A 
ATOM     24  N   UNL     1      11.409  12.622  17.566  0.00  0.00    +0.000 NA
ATOM     25  C   UNL     1      10.555  11.602  17.813  0.00  0.00    +0.000 A 
ENDBRANCH  19  20
ENDBRANCH   5  19
TORSDOF 5
ENDMDL
MODEL 9
REMARK VINA RESULT:      -7.6      5.230      7.432
REMARK  Name = 
REMARK  5 active torsions:
REMARK  status: ('A' for Active; 'I' for Inactive)
REMARK    1  A    between atoms: C_2  and  C_3
REMARK    2  A    between atoms: C_7  and  C_8
REMARK    3  A    between atoms: C_8  and  C_10
REMARK    4  A    between atoms: N_14  and  C_15
REMARK    5  A    between atoms: C_15  and  C_16
REMARK                            x       y       z     vdW  Elec       q    Type
REMARK                         _______ _______ _______ _____ _____    ______ ____
ROOT
ATOM      1  C   UNL     1       2.817   5.339  18.832  0.00  0.00    +0.000 A 
ATOM      2  C   UNL     1       2.781   6.573  18.229  0.00  0.00    +0.000 A 
ATOM      3  N   UNL     1       2.284   7.683  18.827  0.00  0.00    +0.000 NA
ATOM      4  C   UNL     1       1.830   7.550  20.082  0.00  0.00    +0.000 A 
ATOM      5  N   UNL     1       1.478   8.711  20.733  0.00  0.00    +0.000 N 
ATOM      6  N   UNL     1       1.795   6.380  20.737  0.00  0.00    +0.000 NA
ATOM      7  C   UNL     1       2.308   5.303  20.108  0.00  0.00    +0.000 A 
ATOM      8  H   UNL     1       1.386   9.458  20.057  0.00  0.00    +0.000 HD
ENDROOT
BRANCH   1   9
ATOM      9  C   UNL     1       3.433   4.177  18.173  0.00  0.00    +0.000 C 
ATOM     10  O   UNL     1       2.826   3.111  18.171  0.00  0.00    +0.000 OA
BRANCH   9  15
ATOM     11  C   UNL     1       6.154   4.183  15.521  0.00  0.00    +0.000 A 
ATOM     12  C   UNL     1       7.273   4.499  16.298  0.00  0.00    +0.000 A 
ATOM     13  C   UNL     1       7.135   4.705  17.671  0.00  0.00    +0.000 A 
ATOM     14  C   UNL     1       5.881   4.590  18.272  0.00  0.00    +0.000 A 
ATOM     15  C   UNL     1       4.757   4.266  17.502  0.00  0.00    +0.000 A 
ATOM     16  C   UNL     1       4.893   4.078  16.121  0.00  0.00    +0.000 A 
BRANCH  11  18
ATOM     17  N   UNL     1       6.387   3.775  12.971  0.00  0.00    +0.000 NA
ATOM     18  C   UNL     1       6.293   3.962  14.114  0.00  0.00    +0.000 C 
ENDBRANCH  11  18
ENDBRANCH   9  15
ENDBRANCH   1   9
BRANCH   5  19
ATOM     19  C   UNL     1       0.441   8.621  21.738  0.00  0.00    +0.000 C 
BRANCH  19  20
ATOM     20  C   UNL     1      -0.303   9.926  21.812  0.00  0.00    +0.000 A 
ATOM     21  C   UNL     1      -0.860  10.377  23.015  0.00  0.00    +0.000 A 
ATOM     22  C   UNL     1      -1.573  11.571  23.046  0.00  0.00    +0.000 A 
ATOM     23  C   UNL     1      -1.711  12.279  21.865  0.00  0.00    +0.000 A 
ATOM     24  N   UNL     1      -1.197  11.877  20.681  0.00  0.00    +0.000 NA
ATOM     25  C   UNL     1      -0.508  10.712  20.683  0.00  0.00    +0.000 A 
ENDBRANCH  19  20
ENDBRANCH   5  19
TORSDOF 5
ENDMDL
