MODEL 1
REMARK VINA RESULT:     -10.3      0.000      0.000
REMARK  Name = 
REMARK  3 active torsions:
REMARK  status: ('A' for Active; 'I' for Inactive)
REMARK    1  A    between atoms: C_2  and  C_3
REMARK    2  A    between atoms: C_5  and  C_6
REMARK    3  A    between atoms: C_6  and  N_7
REMARK                            x       y       z     vdW  Elec       q    Type
REMARK                         _______ _______ _______ _____ _____    ______ ____
ROOT
ATOM      1  C   UNL     1       0.752   8.765  19.946  0.00  0.00    +0.000 A 
ATOM      2  C   UNL     1       1.854   7.854  19.995  0.00  0.00    +0.000 A 
ATOM      3  C   UNL     1       2.695   7.585  18.870  0.00  0.00    +0.000 A 
ATOM      4  C   UNL     1       2.384   8.299  17.692  0.00  0.00    +0.000 A 
ATOM      5  C   UNL     1       1.313   9.215  17.646  0.00  0.00    +0.000 A 
ATOM      6  C   UNL     1       0.511   9.441  18.759  0.00  0.00    +0.000 A 
ATOM      7  F   UNL     1      -0.489  10.326  18.650  0.00  0.00    +0.000 F 
ENDROOT
BRANCH   1   9
ATOM      8  O   UNL     1      -0.687   8.250  21.703  0.00  0.00    +0.000 OA
ATOM      9  C   UNL     1      -0.086   9.166  21.134  0.00  0.00    +0.000 C 
ATOM     10  N   UNL     1      -0.185  10.482  21.607  0.00  0.00    +0.000 N 
ATOM     11  C   UNL     1       0.565  11.638  21.105  0.00  0.00    +0.000 C 
ATOM     12  C   UNL     1      -0.277  12.926  21.187  0.00  0.00    +0.000 C 
ATOM     13  N   UNL     1      -0.692  13.131  22.577  0.00  0.00    +0.000 N 
ATOM     14  C   UNL     1      -0.639  14.388  23.141  0.00  0.00    +0.000 A 
ATOM     15  N   UNL     1      -0.000  15.355  22.456  0.00  0.00    +0.000 NA
ATOM     16  C   UNL     1       0.131  16.560  23.040  0.00  0.00    +0.000 A 
ATOM     17  C   UNL     1      -0.370  16.853  24.280  0.00  0.00    +0.000 A 
ATOM     18  C   UNL     1      -1.013  15.821  24.906  0.00  0.00    +0.000 A 
ATOM     19  N   UNL     1      -1.174  14.597  24.370  0.00  0.00    +0.000 NA
ATOM     20  C   UNL     1      -1.497  12.053  23.146  0.00  0.00    +0.000 C 
ATOM     21  C   UNL     1      -0.755  10.699  22.970  0.00  0.00    +0.000 C 
ENDBRANCH   1   9
BRANCH   3  22
ATOM     22  C   UNL     1       3.957   6.629  18.746  0.00  0.00    +0.000 C 
BRANCH  22  23
ATOM     23  N   UNL     1       4.100   5.301  19.447  0.00  0.00    +0.000 N 
ATOM     24  C   UNL     1       5.031   4.445  18.872  0.00  0.00    +0.000 A 
ATOM     25  O   UNL     1       6.175   4.346  19.300  0.00  0.00    +0.000 OA
ATOM     26  N   UNL     1       4.514   3.752  17.803  0.00  0.00    +0.000 N 
ATOM     27  C   UNL     1       3.518   2.907  18.193  0.00  0.00    +0.000 A 
ATOM     28  O   UNL     1       3.615   1.687  18.171  0.00  0.00    +0.000 OA
ATOM     29  C   UNL     1       2.409   3.567  18.925  0.00  0.00    +0.000 A 
ATOM     30  C   UNL     1       1.321   2.742  19.216  0.00  0.00    +0.000 A 
ATOM     31  F   UNL     1       0.796   1.949  18.271  0.00  0.00    +0.000 F 
ATOM     32  C   UNL     1       0.899   2.614  20.524  0.00  0.00    +0.000 A 
ATOM     33  C   UNL     1       1.554   3.368  21.499  0.00  0.00    +0.000 A 
ATOM     34  C   UNL     1       2.494   4.374  21.138  0.00  0.00    +0.000 A 
ATOM     35  C   UNL     1       2.871   4.569  19.798  0.00  0.00    +0.000 A 
ATOM     36  H   UNL     1       4.067   4.452  17.230  0.00  0.00    +0.000 HD
ENDBRANCH  22  23
ENDBRANCH   3  22
TORSDOF 3
ENDMDL
MODEL 2
REMARK VINA RESULT:      -9.8      3.538      4.677
REMARK  Name = 
REMARK  3 active torsions:
REMARK  status: ('A' for Active; 'I' for Inactive)
REMARK    1  A    between atoms: C_2  and  C_3
REMARK    2  A    between atoms: C_5  and  C_6
REMARK    3  A    between atoms: C_6  and  N_7
REMARK                            x       y       z     vdW  Elec       q    Type
REMARK                         _______ _______ _______ _____ _____    ______ ____
ROOT
ATOM      1  C   UNL     1       1.315   8.875  18.774  0.00  0.00    +0.000 A 
ATOM      2  C   UNL     1       1.974   8.007  17.848  0.00  0.00    +0.000 A 
ATOM      3  C   UNL     1       2.681   6.830  18.250  0.00  0.00    +0.000 A 
ATOM      4  C   UNL     1       2.672   6.557  19.635  0.00  0.00    +0.000 A 
ATOM      5  C   UNL     1       2.005   7.398  20.549  0.00  0.00    +0.000 A 
ATOM      6  C   UNL     1       1.337   8.539  20.120  0.00  0.00    +0.000 A 
ATOM      7  F   UNL     1       0.720   9.295  21.039  0.00  0.00    +0.000 F 
ENDROOT
BRANCH   1   9
ATOM      8  O   UNL     1      -0.594   9.794  17.806  0.00  0.00    +0.000 OA
ATOM      9  C   UNL     1       0.462  10.058  18.388  0.00  0.00    +0.000 C 
ATOM     10  N   UNL     1       0.802  11.388  18.673  0.00  0.00    +0.000 N 
ATOM     11  C   UNL     1       1.957  11.834  19.459  0.00  0.00    +0.000 C 
ATOM     12  C   UNL     1       2.506  13.173  18.931  0.00  0.00    +0.000 C 
ATOM     13  N   UNL     1       1.432  14.169  18.963  0.00  0.00    +0.000 N 
ATOM     14  C   UNL     1       1.682  15.450  19.405  0.00  0.00    +0.000 A 
ATOM     15  N   UNL     1       2.867  15.686  20.000  0.00  0.00    +0.000 NA
ATOM     16  C   UNL     1       3.083  16.912  20.512  0.00  0.00    +0.000 A 
ATOM     17  C   UNL     1       2.170  17.929  20.438  0.00  0.00    +0.000 A 
ATOM     18  C   UNL     1       0.997  17.612  19.809  0.00  0.00    +0.000 A 
ATOM     19  N   UNL     1       0.727  16.405  19.279  0.00  0.00    +0.000 NA
ATOM     20  C   UNL     1       0.258  13.837  18.158  0.00  0.00    +0.000 C 
ATOM     21  C   UNL     1      -0.263  12.428  18.553  0.00  0.00    +0.000 C 
ENDBRANCH   1   9
BRANCH   3  22
ATOM     22  C   UNL     1       3.449   5.753  17.372  0.00  0.00    +0.000 C 
BRANCH  22  23
ATOM     23  N   UNL     1       4.792   5.976  16.720  0.00  0.00    +0.000 N 
ATOM     24  C   UNL     1       5.284   4.877  16.028  0.00  0.00    +0.000 A 
ATOM     25  O   UNL     1       5.158   4.762  14.815  0.00  0.00    +0.000 OA
ATOM     26  N   UNL     1       5.907   3.973  16.856  0.00  0.00    +0.000 N 
ATOM     27  C   UNL     1       7.027   4.509  17.422  0.00  0.00    +0.000 A 
ATOM     28  O   UNL     1       8.164   4.143  17.155  0.00  0.00    +0.000 OA
ATOM     29  C   UNL     1       6.791   5.769  18.169  0.00  0.00    +0.000 A 
ATOM     30  C   UNL     1       7.899   6.260  18.863  0.00  0.00    +0.000 A 
ATOM     31  F   UNL     1       8.640   5.444  19.626  0.00  0.00    +0.000 F 
ATOM     32  C   UNL     1       8.333   7.547  18.622  0.00  0.00    +0.000 A 
ATOM     33  C   UNL     1       7.601   8.327  17.725  0.00  0.00    +0.000 A 
ATOM     34  C   UNL     1       6.347   7.881  17.220  0.00  0.00    +0.000 A 
ATOM     35  C   UNL     1       5.856   6.599  17.526  0.00  0.00    +0.000 A 
ATOM     36  H   UNL     1       5.262   3.829  17.618  0.00  0.00    +0.000 HD
ENDBRANCH  22  23
ENDBRANCH   3  22
TORSDOF 3
ENDMDL
MODEL 3
REMARK VINA RESULT:      -9.6      2.550      2.812
REMARK  Name = 
REMARK  3 active torsions:
REMARK  status: ('A' for Active; 'I' for Inactive)
REMARK    1  A    between atoms: C_2  and  C_3
REMARK    2  A    between atoms: C_5  and  C_6
REMARK    3  A    between atoms: C_6  and  N_7
REMARK                            x       y       z     vdW  Elec       q    Type
REMARK                         _______ _______ _______ _____ _____    ______ ____
ROOT
ATOM      1  C   UNL     1       0.752  10.454  20.265  0.00  0.00    +0.000 A 
ATOM      2  C   UNL     1       1.033   9.129  19.807  0.00  0.00    +0.000 A 
ATOM      3  C   UNL     1       1.760   8.856  18.605  0.00  0.00    +0.000 A 
ATOM      4  C   UNL     1       2.210   9.991  17.895  0.00  0.00    +0.000 A 
ATOM      5  C   UNL     1       1.954  11.299  18.355  0.00  0.00    +0.000 A 
ATOM      6  C   UNL     1       1.235  11.523  19.523  0.00  0.00    +0.000 A 
ATOM      7  F   UNL     1       1.028  12.789  19.907  0.00  0.00    +0.000 F 
ENDROOT
BRANCH   1   9
ATOM      8  O   UNL     1       0.662  10.362  22.590  0.00  0.00    +0.000 OA
ATOM      9  C   UNL     1       0.093  10.788  21.581  0.00  0.00    +0.000 C 
ATOM     10  N   UNL     1      -1.077  11.551  21.693  0.00  0.00    +0.000 N 
ATOM     11  C   UNL     1      -1.782  12.217  20.592  0.00  0.00    +0.000 C 
ATOM     12  C   UNL     1      -3.304  12.228  20.832  0.00  0.00    +0.000 C 
ATOM     13  N   UNL     1      -3.576  12.892  22.110  0.00  0.00    +0.000 N 
ATOM     14  C   UNL     1      -4.617  13.788  22.221  0.00  0.00    +0.000 A 
ATOM     15  N   UNL     1      -5.221  14.189  21.086  0.00  0.00    +0.000 NA
ATOM     16  C   UNL     1      -6.179  15.130  21.180  0.00  0.00    +0.000 A 
ATOM     17  C   UNL     1      -6.580  15.679  22.368  0.00  0.00    +0.000 A 
ATOM     18  C   UNL     1      -5.925  15.212  23.474  0.00  0.00    +0.000 A 
ATOM     19  N   UNL     1      -4.961  14.273  23.441  0.00  0.00    +0.000 NA
ATOM     20  C   UNL     1      -2.960  12.262  23.276  0.00  0.00    +0.000 C 
ATOM     21  C   UNL     1      -1.434  12.099  23.035  0.00  0.00    +0.000 C 
ENDBRANCH   1   9
BRANCH   3  22
ATOM     22  C   UNL     1       2.174   7.468  17.957  0.00  0.00    +0.000 C 
BRANCH  22  23
ATOM     23  N   UNL     1       2.925   6.374  18.677  0.00  0.00    +0.000 N 
ATOM     24  C   UNL     1       3.994   5.847  17.965  0.00  0.00    +0.000 A 
ATOM     25  O   UNL     1       5.147   6.217  18.152  0.00  0.00    +0.000 OA
ATOM     26  N   UNL     1       3.598   4.890  17.059  0.00  0.00    +0.000 N 
ATOM     27  C   UNL     1       3.076   3.798  17.687  0.00  0.00    +0.000 A 
ATOM     28  O   UNL     1       3.618   2.701  17.704  0.00  0.00    +0.000 OA
ATOM     29  C   UNL     1       1.945   4.100  18.598  0.00  0.00    +0.000 A 
ATOM     30  C   UNL     1       1.315   2.982  19.148  0.00  0.00    +0.000 A 
ATOM     31  F   UNL     1       0.971   1.945  18.370  0.00  0.00    +0.000 F 
ATOM     32  C   UNL     1       1.206   2.871  20.519  0.00  0.00    +0.000 A 
ATOM     33  C   UNL     1       1.688   3.922  21.300  0.00  0.00    +0.000 A 
ATOM     34  C   UNL     1       2.104   5.146  20.705  0.00  0.00    +0.000 A 
ATOM     35  C   UNL     1       2.142   5.299  19.308  0.00  0.00    +0.000 A 
ATOM     36  H   UNL     1       2.829   5.308  16.558  0.00  0.00    +0.000 HD
ENDBRANCH  22  23
ENDBRANCH   3  22
TORSDOF 3
ENDMDL
MODEL 4
REMARK VINA RESULT:      -9.5      2.518      2.902
REMARK  Name = 
REMARK  3 active torsions:
REMARK  status: ('A' for Active; 'I' for Inactive)
REMARK    1  A    between atoms: C_2  and  C_3
REMARK    2  A    between atoms: C_5  and  C_6
REMARK    3  A    between atoms: C_6  and  N_7
REMARK                            x       y       z     vdW  Elec       q    Type
REMARK                         _______ _______ _______ _____ _____    ______ ____
ROOT
ATOM      1  C   UNL     1       0.706   9.590  19.475  0.00  0.00    +0.000 A 
ATOM      2  C   UNL     1       1.629   8.845  18.677  0.00  0.00    +0.000 A 
ATOM      3  C   UNL     1       2.238   7.628  19.120  0.00  0.00    +0.000 A 
ATOM      4  C   UNL     1       1.852   7.185  20.404  0.00  0.00    +0.000 A 
ATOM      5  C   UNL     1       0.924   7.906  21.185  0.00  0.00    +0.000 A 
ATOM      6  C   UNL     1       0.362   9.090  20.723  0.00  0.00    +0.000 A 
ATOM      7  F   UNL     1      -0.515   9.725  21.512  0.00  0.00    +0.000 F 
ENDROOT
BRANCH   1   9
ATOM      8  O   UNL     1      -1.102  10.593  18.400  0.00  0.00    +0.000 OA
ATOM      9  C   UNL     1      -0.048  10.810  19.005  0.00  0.00    +0.000 C 
ATOM     10  N   UNL     1       0.378  12.125  19.241  0.00  0.00    +0.000 N 
ATOM     11  C   UNL     1       1.537  12.526  20.045  0.00  0.00    +0.000 C 
ATOM     12  C   UNL     1       2.197  13.796  19.475  0.00  0.00    +0.000 C 
ATOM     13  N   UNL     1       1.197  14.866  19.425  0.00  0.00    +0.000 N 
ATOM     14  C   UNL     1       1.525  16.146  19.816  0.00  0.00    +0.000 A 
ATOM     15  N   UNL     1       2.705  16.326  20.440  0.00  0.00    +0.000 NA
ATOM     16  C   UNL     1       2.992  17.556  20.902  0.00  0.00    +0.000 A 
ATOM     17  C   UNL     1       2.158  18.631  20.750  0.00  0.00    +0.000 A 
ATOM     18  C   UNL     1       0.985  18.367  20.097  0.00  0.00    +0.000 A 
ATOM     19  N   UNL     1       0.645  17.158  19.614  0.00  0.00    +0.000 NA
ATOM     20  C   UNL     1       0.028  14.578  18.596  0.00  0.00    +0.000 C 
ATOM     21  C   UNL     1      -0.605  13.230  19.038  0.00  0.00    +0.000 C 
ENDBRANCH   1   9
BRANCH   3  22
ATOM     22  C   UNL     1       3.261   6.670  18.374  0.00  0.00    +0.000 C 
BRANCH  22  23
ATOM     23  N   UNL     1       3.682   5.309  18.871  0.00  0.00    +0.000 N 
ATOM     24  C   UNL     1       4.399   4.557  17.949  0.00  0.00    +0.000 A 
ATOM     25  O   UNL     1       5.623   4.504  17.965  0.00  0.00    +0.000 OA
ATOM     26  N   UNL     1       3.581   3.907  17.055  0.00  0.00    +0.000 N 
ATOM     27  C   UNL     1       2.807   2.973  17.679  0.00  0.00    +0.000 A 
ATOM     28  O   UNL     1       2.938   1.767  17.521  0.00  0.00    +0.000 OA
ATOM     29  C   UNL     1       1.982   3.509  18.790  0.00  0.00    +0.000 A 
ATOM     30  C   UNL     1       1.087   2.596  19.353  0.00  0.00    +0.000 A 
ATOM     31  F   UNL     1       0.307   1.837  18.570  0.00  0.00    +0.000 F 
ATOM     32  C   UNL     1       1.133   2.353  20.711  0.00  0.00    +0.000 A 
ATOM     33  C   UNL     1       2.046   3.079  21.475  0.00  0.00    +0.000 A 
ATOM     34  C   UNL     1       2.772   4.166  20.912  0.00  0.00    +0.000 A 
ATOM     35  C   UNL     1       2.671   4.476  19.544  0.00  0.00    +0.000 A 
ATOM     36  H   UNL     1       2.941   4.613  16.725  0.00  0.00    +0.000 HD
ENDBRANCH  22  23
ENDBRANCH   3  22
TORSDOF 3
ENDMDL
MODEL 5
REMARK VINA RESULT:      -9.3      3.018      5.041
REMARK  Name = 
REMARK  3 active torsions:
REMARK  status: ('A' for Active; 'I' for Inactive)
REMARK    1  A    between atoms: C_2  and  C_3
REMARK    2  A    between atoms: C_5  and  C_6
REMARK    3  A    between atoms: C_6  and  N_7
REMARK                            x       y       z     vdW  Elec       q    Type
REMARK                         _______ _______ _______ _____ _____    ______ ____
ROOT
ATOM      1  C   UNL     1       2.465   5.611  19.225  0.00  0.00    +0.000 A 
ATOM      2  C   UNL     1       3.324   6.159  18.221  0.00  0.00    +0.000 A 
ATOM      3  C   UNL     1       3.724   5.433  17.055  0.00  0.00    +0.000 A 
ATOM      4  C   UNL     1       3.196   4.128  16.939  0.00  0.00    +0.000 A 
ATOM      5  C   UNL     1       2.331   3.593  17.915  0.00  0.00    +0.000 A 
ATOM      6  C   UNL     1       1.973   4.327  19.040  0.00  0.00    +0.000 A 
ATOM      7  F   UNL     1       1.145   3.762  19.929  0.00  0.00    +0.000 F 
ENDROOT
BRANCH   1   9
ATOM      8  O   UNL     1       1.778   5.730  21.448  0.00  0.00    +0.000 OA
ATOM      9  C   UNL     1       1.924   6.378  20.407  0.00  0.00    +0.000 C 
ATOM     10  N   UNL     1       1.617   7.745  20.373  0.00  0.00    +0.000 N 
ATOM     11  C   UNL     1       1.855   8.655  19.247  0.00  0.00    +0.000 C 
ATOM     12  C   UNL     1       0.759   9.735  19.163  0.00  0.00    +0.000 C 
ATOM     13  N   UNL     1       0.719  10.466  20.432  0.00  0.00    +0.000 N 
ATOM     14  C   UNL     1       0.593  11.839  20.441  0.00  0.00    +0.000 A 
ATOM     15  N   UNL     1       0.727  12.487  19.269  0.00  0.00    +0.000 NA
ATOM     16  C   UNL     1       0.693  13.832  19.284  0.00  0.00    +0.000 A 
ATOM     17  C   UNL     1       0.507  14.567  20.425  0.00  0.00    +0.000 A 
ATOM     18  C   UNL     1       0.369  13.834  21.571  0.00  0.00    +0.000 A 
ATOM     19  N   UNL     1       0.395  12.489  21.616  0.00  0.00    +0.000 NA
ATOM     20  C   UNL     1       0.429   9.648  21.607  0.00  0.00    +0.000 C 
ATOM     21  C   UNL     1       1.423   8.456  21.671  0.00  0.00    +0.000 C 
ENDBRANCH   1   9
BRANCH   3  22
ATOM     22  C   UNL     1       4.647   5.880  15.844  0.00  0.00    +0.000 C 
BRANCH  22  23
ATOM     23  N   UNL     1       6.150   5.995  15.906  0.00  0.00    +0.000 N 
ATOM     24  C   UNL     1       6.831   4.841  15.538  0.00  0.00    +0.000 A 
ATOM     25  O   UNL     1       7.286   4.686  14.411  0.00  0.00    +0.000 OA
ATOM     26  N   UNL     1       6.922   3.936  16.569  0.00  0.00    +0.000 N 
ATOM     27  C   UNL     1       7.676   4.426  17.595  0.00  0.00    +0.000 A 
ATOM     28  O   UNL     1       8.774   3.982  17.902  0.00  0.00    +0.000 OA
ATOM     29  C   UNL     1       7.206   5.727  18.131  0.00  0.00    +0.000 A 
ATOM     30  C   UNL     1       7.885   6.179  19.264  0.00  0.00    +0.000 A 
ATOM     31  F   UNL     1       8.117   5.351  20.294  0.00  0.00    +0.000 F 
ATOM     32  C   UNL     1       8.473   7.427  19.249  0.00  0.00    +0.000 A 
ATOM     33  C   UNL     1       8.311   8.212  18.107  0.00  0.00    +0.000 A 
ATOM     34  C   UNL     1       7.417   7.822  17.070  0.00  0.00    +0.000 A 
ATOM     35  C   UNL     1       6.748   6.586  17.115  0.00  0.00    +0.000 A 
ATOM     36  H   UNL     1       5.984   3.861  16.935  0.00  0.00    +0.000 HD
ENDBRANCH  22  23
ENDBRANCH   3  22
TORSDOF 3
ENDMDL
MODEL 6
REMARK VINA RESULT:      -9.2      2.703      3.899
REMARK  Name = 
REMARK  3 active torsions:
REMARK  status: ('A' for Active; 'I' for Inactive)
REMARK    1  A    between atoms: C_2  and  C_3
REMARK    2  A    between atoms: C_5  and  C_6
REMARK    3  A    between atoms: C_6  and  N_7
REMARK                            x       y       z     vdW  Elec       q    Type
REMARK                         _______ _______ _______ _____ _____    ______ ____
ROOT
ATOM      1  C   UNL     1       1.007  10.925  20.167  0.00  0.00    +0.000 A 
ATOM      2  C   UNL     1       1.348   9.599  20.583  0.00  0.00    +0.000 A 
ATOM      3  C   UNL     1       1.551   8.521  19.664  0.00  0.00    +0.000 A 
ATOM      4  C   UNL     1       1.415   8.852  18.298  0.00  0.00    +0.000 A 
ATOM      5  C   UNL     1       1.102  10.162  17.883  0.00  0.00    +0.000 A 
ATOM      6  C   UNL     1       0.901  11.181  18.808  0.00  0.00    +0.000 A 
ATOM      7  F   UNL     1       0.609  12.405  18.349  0.00  0.00    +0.000 F 
ENDROOT
BRANCH   1   9
ATOM      8  O   UNL     1       1.960  12.687  21.357  0.00  0.00    +0.000 OA
ATOM      9  C   UNL     1       0.899  12.114  21.089  0.00  0.00    +0.000 C 
ATOM     10  N   UNL     1      -0.313  12.585  21.612  0.00  0.00    +0.000 N 
ATOM     11  C   UNL     1      -1.650  12.078  21.282  0.00  0.00    +0.000 C 
ATOM     12  C   UNL     1      -2.592  12.160  22.498  0.00  0.00    +0.000 C 
ATOM     13  N   UNL     1      -2.654  13.551  22.955  0.00  0.00    +0.000 N 
ATOM     14  C   UNL     1      -3.860  14.113  23.315  0.00  0.00    +0.000 A 
ATOM     15  N   UNL     1      -4.981  13.424  23.029  0.00  0.00    +0.000 NA
ATOM     16  C   UNL     1      -6.165  14.006  23.297  0.00  0.00    +0.000 A 
ATOM     17  C   UNL     1      -6.281  15.247  23.864  0.00  0.00    +0.000 A 
ATOM     18  C   UNL     1      -5.097  15.876  24.134  0.00  0.00    +0.000 A 
ATOM     19  N   UNL     1      -3.886  15.343  23.887  0.00  0.00    +0.000 NA
ATOM     20  C   UNL     1      -1.373  14.124  23.362  0.00  0.00    +0.000 C 
ATOM     21  C   UNL     1      -0.336  13.949  22.219  0.00  0.00    +0.000 C 
ENDBRANCH   1   9
BRANCH   3  22
ATOM     22  C   UNL     1       1.944   7.008  19.939  0.00  0.00    +0.000 C 
BRANCH  22  23
ATOM     23  N   UNL     1       2.541   6.076  18.914  0.00  0.00    +0.000 N 
ATOM     24  C   UNL     1       2.319   4.728  19.165  0.00  0.00    +0.000 A 
ATOM     25  O   UNL     1       1.413   4.106  18.622  0.00  0.00    +0.000 OA
ATOM     26  N   UNL     1       3.217   4.208  20.067  0.00  0.00    +0.000 N 
ATOM     27  C   UNL     1       4.487   4.224  19.569  0.00  0.00    +0.000 A 
ATOM     28  O   UNL     1       5.112   3.215  19.272  0.00  0.00    +0.000 OA
ATOM     29  C   UNL     1       4.955   5.563  19.134  0.00  0.00    +0.000 A 
ATOM     30  C   UNL     1       6.295   5.622  18.744  0.00  0.00    +0.000 A 
ATOM     31  F   UNL     1       7.248   5.061  19.501  0.00  0.00    +0.000 F 
ATOM     32  C   UNL     1       6.615   6.103  17.491  0.00  0.00    +0.000 A 
ATOM     33  C   UNL     1       5.576   6.567  16.683  0.00  0.00    +0.000 A 
ATOM     34  C   UNL     1       4.257   6.715  17.199  0.00  0.00    +0.000 A 
ATOM     35  C   UNL     1       3.937   6.303  18.504  0.00  0.00    +0.000 A 
ATOM     36  H   UNL     1       3.221   4.860  20.837  0.00  0.00    +0.000 HD
ENDBRANCH  22  23
ENDBRANCH   3  22
TORSDOF 3
ENDMDL
MODEL 7
REMARK VINA RESULT:      -9.2      7.905     10.138
REMARK  Name = 
REMARK  3 active torsions:
REMARK  status: ('A' for Active; 'I' for Inactive)
REMARK    1  A    between atoms: C_2  and  C_3
REMARK    2  A    between atoms: C_5  and  C_6
REMARK    3  A    between atoms: C_6  and  N_7
REMARK                            x       y       z     vdW  Elec       q    Type
REMARK                         _______ _______ _______ _____ _____    ______ ____
ROOT
ATOM      1  C   UNL     1       5.109  16.663  19.824  0.00  0.00    +0.000 A 
ATOM      2  C   UNL     1       6.076  16.513  18.782  0.00  0.00    +0.000 A 
ATOM      3  C   UNL     1       7.471  16.318  19.035  0.00  0.00    +0.000 A 
ATOM      4  C   UNL     1       7.841  16.260  20.396  0.00  0.00    +0.000 A 
ATOM      5  C   UNL     1       6.887  16.385  21.427  0.00  0.00    +0.000 A 
ATOM      6  C   UNL     1       5.541  16.584  21.140  0.00  0.00    +0.000 A 
ATOM      7  F   UNL     1       4.685  16.692  22.164  0.00  0.00    +0.000 F 
ENDROOT
BRANCH   1   9
ATOM      8  O   UNL     1       3.144  17.892  19.588  0.00  0.00    +0.000 OA
ATOM      9  C   UNL     1       3.618  16.752  19.608  0.00  0.00    +0.000 C 
ATOM     10  N   UNL     1       2.791  15.637  19.416  0.00  0.00    +0.000 N 
ATOM     11  C   UNL     1       3.237  14.244  19.296  0.00  0.00    +0.000 C 
ATOM     12  C   UNL     1       2.204  13.275  19.904  0.00  0.00    +0.000 C 
ATOM     13  N   UNL     1       0.916  13.477  19.234  0.00  0.00    +0.000 N 
ATOM     14  C   UNL     1       0.146  12.394  18.867  0.00  0.00    +0.000 A 
ATOM     15  N   UNL     1       0.706  11.172  18.945  0.00  0.00    +0.000 NA
ATOM     16  C   UNL     1      -0.010  10.121  18.505  0.00  0.00    +0.000 A 
ATOM     17  C   UNL     1      -1.280  10.232  18.006  0.00  0.00    +0.000 A 
ATOM     18  C   UNL     1      -1.781  11.504  17.970  0.00  0.00    +0.000 A 
ATOM     19  N   UNL     1      -1.111  12.591  18.396  0.00  0.00    +0.000 NA
ATOM     20  C   UNL     1       0.364  14.825  19.350  0.00  0.00    +0.000 C 
ATOM     21  C   UNL     1       1.418  15.863  18.876  0.00  0.00    +0.000 C 
ENDBRANCH   1   9
BRANCH   3  22
ATOM     22  C   UNL     1       8.673  16.119  18.017  0.00  0.00    +0.000 C 
BRANCH  22  23
ATOM     23  N   UNL     1      10.021  15.547  18.381  0.00  0.00    +0.000 N 
ATOM     24  C   UNL     1      11.028  15.824  17.466  0.00  0.00    +0.000 A 
ATOM     25  O   UNL     1      11.819  16.746  17.628  0.00  0.00    +0.000 OA
ATOM     26  N   UNL     1      11.019  14.957  16.398  0.00  0.00    +0.000 N 
ATOM     27  C   UNL     1      11.302  13.682  16.792  0.00  0.00    +0.000 A 
ATOM     28  O   UNL     1      12.332  13.092  16.496  0.00  0.00    +0.000 OA
ATOM     29  C   UNL     1      10.405  13.157  17.851  0.00  0.00    +0.000 A 
ATOM     30  C   UNL     1      10.595  11.811  18.172  0.00  0.00    +0.000 A 
ATOM     31  F   UNL     1      10.699  10.889  17.205  0.00  0.00    +0.000 F 
ATOM     32  C   UNL     1      10.854  11.458  19.481  0.00  0.00    +0.000 A 
ATOM     33  C   UNL     1      10.857  12.469  20.443  0.00  0.00    +0.000 A 
ATOM     34  C   UNL     1      10.425  13.786  20.123  0.00  0.00    +0.000 A 
ATOM     35  C   UNL     1      10.080  14.138  18.806  0.00  0.00    +0.000 A 
ATOM     36  H   UNL     1      10.060  14.937  16.086  0.00  0.00    +0.000 HD
ENDBRANCH  22  23
ENDBRANCH   3  22
TORSDOF 3
ENDMDL
MODEL 8
REMARK VINA RESULT:      -9.0      3.116      3.772
REMARK  Name = 
REMARK  3 active torsions:
REMARK  status: ('A' for Active; 'I' for Inactive)
REMARK    1  A    between atoms: C_2  and  C_3
REMARK    2  A    between atoms: C_5  and  C_6
REMARK    3  A    between atoms: C_6  and  N_7
REMARK                            x       y       z     vdW  Elec       q    Type
REMARK                         _______ _______ _______ _____ _____    ______ ____
ROOT
ATOM      1  C   UNL     1       0.707  10.849  20.810  0.00  0.00    +0.000 A 
ATOM      2  C   UNL     1       1.265  10.036  19.774  0.00  0.00    +0.000 A 
ATOM      3  C   UNL     1       1.466   8.626  19.912  0.00  0.00    +0.000 A 
ATOM      4  C   UNL     1       1.057   8.069  21.143  0.00  0.00    +0.000 A 
ATOM      5  C   UNL     1       0.487   8.864  22.159  0.00  0.00    +0.000 A 
ATOM      6  C   UNL     1       0.317  10.233  21.991  0.00  0.00    +0.000 A 
ATOM      7  F   UNL     1      -0.234  10.931  22.993  0.00  0.00    +0.000 F 
ENDROOT
BRANCH   1   9
ATOM      8  O   UNL     1       1.330  13.076  20.535  0.00  0.00    +0.000 OA
ATOM      9  C   UNL     1       0.369  12.312  20.668  0.00  0.00    +0.000 C 
ATOM     10  N   UNL     1      -0.941  12.810  20.659  0.00  0.00    +0.000 N 
ATOM     11  C   UNL     1      -2.169  12.008  20.685  0.00  0.00    +0.000 C 
ATOM     12  C   UNL     1      -3.287  12.728  21.463  0.00  0.00    +0.000 C 
ATOM     13  N   UNL     1      -3.525  14.036  20.847  0.00  0.00    +0.000 N 
ATOM     14  C   UNL     1      -4.812  14.493  20.657  0.00  0.00    +0.000 A 
ATOM     15  N   UNL     1      -5.820  13.622  20.852  0.00  0.00    +0.000 NA
ATOM     16  C   UNL     1      -7.072  14.036  20.584  0.00  0.00    +0.000 A 
ATOM     17  C   UNL     1      -7.369  15.299  20.147  0.00  0.00    +0.000 A 
ATOM     18  C   UNL     1      -6.291  16.126  19.984  0.00  0.00    +0.000 A 
ATOM     19  N   UNL     1      -5.019  15.766  20.237  0.00  0.00    +0.000 NA
ATOM     20  C   UNL     1      -2.369  14.929  20.828  0.00  0.00    +0.000 C 
ATOM     21  C   UNL     1      -1.161  14.205  20.173  0.00  0.00    +0.000 C 
ENDBRANCH   1   9
BRANCH   3  22
ATOM     22  C   UNL     1       2.049   7.574  18.876  0.00  0.00    +0.000 C 
BRANCH  22  23
ATOM     23  N   UNL     1       2.836   6.342  19.252  0.00  0.00    +0.000 N 
ATOM     24  C   UNL     1       3.741   5.922  18.287  0.00  0.00    +0.000 A 
ATOM     25  O   UNL     1       4.930   6.213  18.339  0.00  0.00    +0.000 OA
ATOM     26  N   UNL     1       3.146   5.164  17.306  0.00  0.00    +0.000 N 
ATOM     27  C   UNL     1       2.664   3.991  17.808  0.00  0.00    +0.000 A 
ATOM     28  O   UNL     1       3.132   2.893  17.538  0.00  0.00    +0.000 OA
ATOM     29  C   UNL     1       1.715   4.155  18.937  0.00  0.00    +0.000 A 
ATOM     30  C   UNL     1       1.112   2.975  19.377  0.00  0.00    +0.000 A 
ATOM     31  F   UNL     1       0.583   2.113  18.497  0.00  0.00    +0.000 F 
ATOM     32  C   UNL     1       1.217   2.615  20.705  0.00  0.00    +0.000 A 
ATOM     33  C   UNL     1       1.883   3.486  21.568  0.00  0.00    +0.000 A 
ATOM     34  C   UNL     1       2.275   4.785  21.139  0.00  0.00    +0.000 A 
ATOM     35  C   UNL     1       2.098   5.194  19.805  0.00  0.00    +0.000 A 
ATOM     36  H   UNL     1       2.334   5.692  17.024  0.00  0.00    +0.000 HD
ENDBRANCH  22  23
ENDBRANCH   3  22
TORSDOF 3
ENDMDL
MODEL 9
REMARK VINA RESULT:      -8.9      2.841      4.399
REMARK  Name = 
REMARK  3 active torsions:
REMARK  status: ('A' for Active; 'I' for Inactive)
REMARK    1  A    between atoms: C_2  and  C_3
REMARK    2  A    between atoms: C_5  and  C_6
REMARK    3  A    between atoms: C_6  and  N_7
REMARK                            x       y       z     vdW  Elec       q    Type
REMARK                         _______ _______ _______ _____ _____    ______ ____
ROOT
ATOM      1  C   UNL     1       1.896   8.151  19.135  0.00  0.00    +0.000 A 
ATOM      2  C   UNL     1       2.080   7.111  18.172  0.00  0.00    +0.000 A 
ATOM      3  C   UNL     1       2.212   5.731  18.529  0.00  0.00    +0.000 A 
ATOM      4  C   UNL     1       2.126   5.448  19.910  0.00  0.00    +0.000 A 
ATOM      5  C   UNL     1       1.923   6.470  20.860  0.00  0.00    +0.000 A 
ATOM      6  C   UNL     1       1.810   7.800  20.474  0.00  0.00    +0.000 A 
ATOM      7  F   UNL     1       1.614   8.722  21.426  0.00  0.00    +0.000 F 
ENDROOT
BRANCH   1   9
ATOM      8  O   UNL     1       2.363  10.089  17.929  0.00  0.00    +0.000 OA
ATOM      9  C   UNL     1       1.636   9.599  18.798  0.00  0.00    +0.000 C 
ATOM     10  N   UNL     1       0.628  10.368  19.396  0.00  0.00    +0.000 N 
ATOM     11  C   UNL     1      -0.378   9.882  20.348  0.00  0.00    +0.000 C 
ATOM     12  C   UNL     1      -0.740  10.969  21.378  0.00  0.00    +0.000 C 
ATOM     13  N   UNL     1      -1.220  12.155  20.664  0.00  0.00    +0.000 N 
ATOM     14  C   UNL     1      -2.322  12.845  21.122  0.00  0.00    +0.000 A 
ATOM     15  N   UNL     1      -3.056  12.275  22.097  0.00  0.00    +0.000 NA
ATOM     16  C   UNL     1      -4.181  12.902  22.487  0.00  0.00    +0.000 A 
ATOM     17  C   UNL     1      -4.601  14.093  21.957  0.00  0.00    +0.000 A 
ATOM     18  C   UNL     1      -3.796  14.610  20.980  0.00  0.00    +0.000 A 
ATOM     19  N   UNL     1      -2.660  14.028  20.551  0.00  0.00    +0.000 NA
ATOM     20  C   UNL     1      -0.260  12.745  19.734  0.00  0.00    +0.000 C 
ATOM     21  C   UNL     1       0.248  11.657  18.748  0.00  0.00    +0.000 C 
ENDBRANCH   1   9
BRANCH   3  22
ATOM     22  C   UNL     1       2.404   4.454  17.606  0.00  0.00    +0.000 C 
BRANCH  22  23
ATOM     23  N   UNL     1       3.711   3.729  17.404  0.00  0.00    +0.000 N 
ATOM     24  C   UNL     1       4.312   3.289  18.577  0.00  0.00    +0.000 A 
ATOM     25  O   UNL     1       4.190   2.137  18.978  0.00  0.00    +0.000 OA
ATOM     26  N   UNL     1       5.032   4.281  19.200  0.00  0.00    +0.000 N 
ATOM     27  C   UNL     1       6.093   4.677  18.440  0.00  0.00    +0.000 A 
ATOM     28  O   UNL     1       7.260   4.465  18.741  0.00  0.00    +0.000 OA
ATOM     29  C   UNL     1       5.730   5.126  17.073  0.00  0.00    +0.000 A 
ATOM     30  C   UNL     1       6.785   5.657  16.328  0.00  0.00    +0.000 A 
ATOM     31  F   UNL     1       7.612   6.563  16.869  0.00  0.00    +0.000 F 
ATOM     32  C   UNL     1       7.080   5.118  15.092  0.00  0.00    +0.000 A 
ATOM     33  C   UNL     1       6.265   4.090  14.616  0.00  0.00    +0.000 A 
ATOM     34  C   UNL     1       5.062   3.737  15.289  0.00  0.00    +0.000 A 
ATOM     35  C   UNL     1       4.709   4.340  16.510  0.00  0.00    +0.000 A 
ATOM     36  H   UNL     1       4.410   5.075  19.231  0.00  0.00    +0.000 HD
ENDBRANCH  22  23
ENDBRANCH   3  22
TORSDOF 3
ENDMDL
