MODEL 1
REMARK VINA RESULT:      -6.1      0.000      0.000
REMARK  Name = 
REMARK  3 active torsions:
REMARK  status: ('A' for Active; 'I' for Inactive)
REMARK    1  A    between atoms: C_1  and  C_2
REMARK    2  A    between atoms: C_2  and  C_3
REMARK    3  A    between atoms: C_2  and  N_4
REMARK                            x       y       z     vdW  Elec       q    Type
REMARK                         _______ _______ _______ _____ _____    ______ ____
ROOT
ATOM      1  N   UNL     1       1.180   8.789  20.826  0.00  0.00    +0.000 N 
ATOM      2  C   UNL     1       1.782   7.760  20.196  0.00  0.00    +0.000 A 
ATOM      3  N   UNL     1       2.540   7.777  19.129  0.00  0.00    +0.000 NA
ATOM      4  C   UNL     1       2.894   6.468  18.883  0.00  0.00    +0.000 A 
ATOM      5  C   UNL     1       3.714   5.918  17.878  0.00  0.00    +0.000 A 
ATOM      6 BR   UNL     1       4.532   7.124  16.653  0.00  0.00    +0.000 Br
ATOM      7  C   UNL     1       3.889   4.516  17.833  0.00  0.00    +0.000 A 
ATOM      8 BR   UNL     1       5.018   3.760  16.477  0.00  0.00    +0.000 Br
ATOM      9  C   UNL     1       3.240   3.682  18.774  0.00  0.00    +0.000 A 
ATOM     10 BR   UNL     1       3.446   1.775  18.695  0.00  0.00    +0.000 Br
ATOM     11  C   UNL     1       2.431   4.237  19.788  0.00  0.00    +0.000 A 
ATOM     12 BR   UNL     1       1.508   3.224  21.102  0.00  0.00    +0.000 Br
ATOM     13  C   UNL     1       2.298   5.627  19.813  0.00  0.00    +0.000 A 
ATOM     14  N   UNL     1       1.626   6.483  20.657  0.00  0.00    +0.000 N 
ATOM     15  H   UNL     1       0.565   8.625  21.614  0.00  0.00    +0.000 HD
ATOM     16  H   UNL     1       1.083   6.213  21.461  0.00  0.00    +0.000 HD
ENDROOT
BRANCH   1  18
ATOM     17  C   UNL     1      -0.646   9.829  19.598  0.00  0.00    +0.000 C 
ATOM     18  C   UNL     1       0.815   9.964  20.031  0.00  0.00    +0.000 C 
ATOM     19  C   UNL     1       1.005  11.226  20.869  0.00  0.00    +0.000 C 
ENDBRANCH   1  18
TORSDOF 1
ENDMDL
MODEL 2
REMARK VINA RESULT:      -6.0      3.205      6.247
REMARK  Name = 
REMARK  3 active torsions:
REMARK  status: ('A' for Active; 'I' for Inactive)
REMARK    1  A    between atoms: C_1  and  C_2
REMARK    2  A    between atoms: C_2  and  C_3
REMARK    3  A    between atoms: C_2  and  N_4
REMARK                            x       y       z     vdW  Elec       q    Type
REMARK                         _______ _______ _______ _____ _____    ______ ____
ROOT
ATOM      1  N   UNL     1       6.248   5.734  15.163  0.00  0.00    +0.000 N 
ATOM      2  C   UNL     1       5.457   5.608  16.248  0.00  0.00    +0.000 A 
ATOM      3  N   UNL     1       5.295   4.574  17.035  0.00  0.00    +0.000 NA
ATOM      4  C   UNL     1       4.372   4.950  17.985  0.00  0.00    +0.000 A 
ATOM      5  C   UNL     1       3.851   4.238  19.084  0.00  0.00    +0.000 A 
ATOM      6 BR   UNL     1       4.518   2.481  19.388  0.00  0.00    +0.000 Br
ATOM      7  C   UNL     1       2.875   4.856  19.896  0.00  0.00    +0.000 A 
ATOM      8 BR   UNL     1       2.172   3.898  21.405  0.00  0.00    +0.000 Br
ATOM      9  C   UNL     1       2.421   6.165  19.603  0.00  0.00    +0.000 A 
ATOM     10 BR   UNL     1       1.069   6.995  20.682  0.00  0.00    +0.000 Br
ATOM     11  C   UNL     1       2.954   6.881  18.511  0.00  0.00    +0.000 A 
ATOM     12 BR   UNL     1       2.425   8.635  18.014  0.00  0.00    +0.000 Br
ATOM     13  C   UNL     1       3.932   6.244  17.742  0.00  0.00    +0.000 A 
ATOM     14  N   UNL     1       4.668   6.649  16.651  0.00  0.00    +0.000 N 
ATOM     15  H   UNL     1       6.229   6.579  14.604  0.00  0.00    +0.000 HD
ATOM     16  H   UNL     1       4.612   7.549  16.202  0.00  0.00    +0.000 HD
ENDROOT
BRANCH   1  18
ATOM     17  C   UNL     1       5.271   4.021  13.736  0.00  0.00    +0.000 C 
ATOM     18  C   UNL     1       6.556   4.527  14.392  0.00  0.00    +0.000 C 
ATOM     19  C   UNL     1       7.602   4.855  13.329  0.00  0.00    +0.000 C 
ENDBRANCH   1  18
TORSDOF 1
ENDMDL
MODEL 3
REMARK VINA RESULT:      -5.6      1.134      3.226
REMARK  Name = 
REMARK  3 active torsions:
REMARK  status: ('A' for Active; 'I' for Inactive)
REMARK    1  A    between atoms: C_1  and  C_2
REMARK    2  A    between atoms: C_2  and  C_3
REMARK    3  A    between atoms: C_2  and  N_4
REMARK                            x       y       z     vdW  Elec       q    Type
REMARK                         _______ _______ _______ _____ _____    ______ ____
ROOT
ATOM      1  N   UNL     1       1.271   8.588  20.575  0.00  0.00    +0.000 N 
ATOM      2  C   UNL     1       1.781   7.460  20.042  0.00  0.00    +0.000 A 
ATOM      3  N   UNL     1       1.585   6.216  20.402  0.00  0.00    +0.000 NA
ATOM      4  C   UNL     1       2.343   5.442  19.551  0.00  0.00    +0.000 A 
ATOM      5  C   UNL     1       2.485   4.042  19.474  0.00  0.00    +0.000 A 
ATOM      6 BR   UNL     1       1.461   2.987  20.685  0.00  0.00    +0.000 Br
ATOM      7  C   UNL     1       3.366   3.498  18.514  0.00  0.00    +0.000 A 
ATOM      8 BR   UNL     1       3.553   1.590  18.391  0.00  0.00    +0.000 Br
ATOM      9  C   UNL     1       4.101   4.347  17.652  0.00  0.00    +0.000 A 
ATOM     10 BR   UNL     1       5.326   3.614  16.369  0.00  0.00    +0.000 Br
ATOM     11  C   UNL     1       3.946   5.747  17.722  0.00  0.00    +0.000 A 
ATOM     12 BR   UNL     1       4.877   6.988  16.626  0.00  0.00    +0.000 Br
ATOM     13  C   UNL     1       3.051   6.248  18.671  0.00  0.00    +0.000 A 
ATOM     14  N   UNL     1       2.645   7.526  18.985  0.00  0.00    +0.000 N 
ATOM     15  H   UNL     1       1.559   9.498  20.234  0.00  0.00    +0.000 HD
ATOM     16  H   UNL     1       2.956   8.371  18.534  0.00  0.00    +0.000 HD
ENDROOT
BRANCH   1  18
ATOM     17  C   UNL     1       1.842   9.543  22.739  0.00  0.00    +0.000 C 
ATOM     18  C   UNL     1       0.916   8.580  21.996  0.00  0.00    +0.000 C 
ATOM     19  C   UNL     1      -0.540   9.010  22.160  0.00  0.00    +0.000 C 
ENDBRANCH   1  18
TORSDOF 1
ENDMDL
MODEL 4
REMARK VINA RESULT:      -5.4      3.509      6.007
REMARK  Name = 
REMARK  3 active torsions:
REMARK  status: ('A' for Active; 'I' for Inactive)
REMARK    1  A    between atoms: C_1  and  C_2
REMARK    2  A    between atoms: C_2  and  C_3
REMARK    3  A    between atoms: C_2  and  N_4
REMARK                            x       y       z     vdW  Elec       q    Type
REMARK                         _______ _______ _______ _____ _____    ______ ____
ROOT
ATOM      1  N   UNL     1       5.776   3.873  14.908  0.00  0.00    +0.000 N 
ATOM      2  C   UNL     1       5.046   4.172  16.001  0.00  0.00    +0.000 A 
ATOM      3  N   UNL     1       4.546   5.325  16.369  0.00  0.00    +0.000 NA
ATOM      4  C   UNL     1       3.898   5.105  17.564  0.00  0.00    +0.000 A 
ATOM      5  C   UNL     1       3.169   5.989  18.384  0.00  0.00    +0.000 A 
ATOM      6 BR   UNL     1       2.975   7.785  17.783  0.00  0.00    +0.000 Br
ATOM      7  C   UNL     1       2.624   5.504  19.594  0.00  0.00    +0.000 A 
ATOM      8 BR   UNL     1       1.616   6.699  20.709  0.00  0.00    +0.000 Br
ATOM      9  C   UNL     1       2.818   4.156  19.978  0.00  0.00    +0.000 A 
ATOM     10 BR   UNL     1       2.110   3.502  21.638  0.00  0.00    +0.000 Br
ATOM     11  C   UNL     1       3.536   3.269  19.149  0.00  0.00    +0.000 A 
ATOM     12 BR   UNL     1       3.866   1.444  19.557  0.00  0.00    +0.000 Br
ATOM     13  C   UNL     1       4.043   3.779  17.951  0.00  0.00    +0.000 A 
ATOM     14  N   UNL     1       4.748   3.203  16.918  0.00  0.00    +0.000 N 
ATOM     15  H   UNL     1       6.155   2.943  14.778  0.00  0.00    +0.000 HD
ATOM     16  H   UNL     1       5.027   2.237  16.861  0.00  0.00    +0.000 HD
ENDROOT
BRANCH   1  18
ATOM     17  C   UNL     1       7.768   5.225  15.264  0.00  0.00    +0.000 C 
ATOM     18  C   UNL     1       6.601   4.931  14.320  0.00  0.00    +0.000 C 
ATOM     19  C   UNL     1       7.122   4.474  12.959  0.00  0.00    +0.000 C 
ENDBRANCH   1  18
TORSDOF 1
ENDMDL
MODEL 5
REMARK VINA RESULT:      -5.1      1.239      3.249
REMARK  Name = 
REMARK  3 active torsions:
REMARK  status: ('A' for Active; 'I' for Inactive)
REMARK    1  A    between atoms: C_1  and  C_2
REMARK    2  A    between atoms: C_2  and  C_3
REMARK    3  A    between atoms: C_2  and  N_4
REMARK                            x       y       z     vdW  Elec       q    Type
REMARK                         _______ _______ _______ _____ _____    ______ ____
ROOT
ATOM      1  N   UNL     1       1.366   9.741  18.565  0.00  0.00    +0.000 N 
ATOM      2  C   UNL     1       1.977   8.539  18.556  0.00  0.00    +0.000 A 
ATOM      3  N   UNL     1       1.878   7.558  19.418  0.00  0.00    +0.000 NA
ATOM      4  C   UNL     1       2.711   6.559  18.965  0.00  0.00    +0.000 A 
ATOM      5  C   UNL     1       2.970   5.278  19.492  0.00  0.00    +0.000 A 
ATOM      6 BR   UNL     1       2.018   4.764  21.059  0.00  0.00    +0.000 Br
ATOM      7  C   UNL     1       3.909   4.449  18.839  0.00  0.00    +0.000 A 
ATOM      8 BR   UNL     1       4.255   2.695  19.541  0.00  0.00    +0.000 Br
ATOM      9  C   UNL     1       4.585   4.904  17.681  0.00  0.00    +0.000 A 
ATOM     10 BR   UNL     1       5.887   3.795  16.810  0.00  0.00    +0.000 Br
ATOM     11  C   UNL     1       4.313   6.181  17.148  0.00  0.00    +0.000 A 
ATOM     12 BR   UNL     1       5.156   6.905  15.608  0.00  0.00    +0.000 Br
ATOM     13  C   UNL     1       3.364   6.965  17.810  0.00  0.00    +0.000 A 
ATOM     14  N   UNL     1       2.849   8.216  17.555  0.00  0.00    +0.000 N 
ATOM     15  H   UNL     1       1.583  10.437  17.861  0.00  0.00    +0.000 HD
ATOM     16  H   UNL     1       3.096   8.809  16.779  0.00  0.00    +0.000 HD
ENDROOT
BRANCH   1  18
ATOM     17  C   UNL     1       1.242  11.821  19.823  0.00  0.00    +0.000 C 
ATOM     18  C   UNL     1       0.990  10.313  19.860  0.00  0.00    +0.000 C 
ATOM     19  C   UNL     1      -0.486  10.029  20.133  0.00  0.00    +0.000 C 
ENDBRANCH   1  18
TORSDOF 1
ENDMDL
MODEL 6
REMARK VINA RESULT:      -5.1      4.333      7.260
REMARK  Name = 
REMARK  3 active torsions:
REMARK  status: ('A' for Active; 'I' for Inactive)
REMARK    1  A    between atoms: C_1  and  C_2
REMARK    2  A    between atoms: C_2  and  C_3
REMARK    3  A    between atoms: C_2  and  N_4
REMARK                            x       y       z     vdW  Elec       q    Type
REMARK                         _______ _______ _______ _____ _____    ______ ____
ROOT
ATOM      1  N   UNL     1       2.575   8.080  17.606  0.00  0.00    +0.000 N 
ATOM      2  C   UNL     1       1.739   8.789  18.390  0.00  0.00    +0.000 A 
ATOM      3  N   UNL     1       1.678   8.839  19.697  0.00  0.00    +0.000 NA
ATOM      4  C   UNL     1       0.645   9.697  20.005  0.00  0.00    +0.000 A 
ATOM      5  C   UNL     1       0.161  10.131  21.255  0.00  0.00    +0.000 A 
ATOM      6 BR   UNL     1       1.058   9.500  22.812  0.00  0.00    +0.000 Br
ATOM      7  C   UNL     1      -0.951  11.002  21.290  0.00  0.00    +0.000 A 
ATOM      8 BR   UNL     1      -1.607  11.611  22.990  0.00  0.00    +0.000 Br
ATOM      9  C   UNL     1      -1.572  11.422  20.090  0.00  0.00    +0.000 A 
ATOM     10 BR   UNL     1      -3.104  12.578  20.134  0.00  0.00    +0.000 Br
ATOM     11  C   UNL     1      -1.076  10.997  18.839  0.00  0.00    +0.000 A 
ATOM     12 BR   UNL     1      -1.824  11.487  17.164  0.00  0.00    +0.000 Br
ATOM     13  C   UNL     1       0.037  10.152  18.843  0.00  0.00    +0.000 A 
ATOM     14  N   UNL     1       0.778   9.584  17.831  0.00  0.00    +0.000 N 
ATOM     15  H   UNL     1       2.471   8.086  16.598  0.00  0.00    +0.000 HD
ATOM     16  H   UNL     1       0.621   9.707  16.844  0.00  0.00    +0.000 HD
ENDROOT
BRANCH   1  18
ATOM     17  C   UNL     1       2.071   5.720  17.928  0.00  0.00    +0.000 C 
ATOM     18  C   UNL     1       3.112   6.822  18.132  0.00  0.00    +0.000 C 
ATOM     19  C   UNL     1       4.405   6.473  17.398  0.00  0.00    +0.000 C 
ENDBRANCH   1  18
TORSDOF 1
ENDMDL
MODEL 7
REMARK VINA RESULT:      -5.1      7.382      9.749
REMARK  Name = 
REMARK  3 active torsions:
REMARK  status: ('A' for Active; 'I' for Inactive)
REMARK    1  A    between atoms: C_1  and  C_2
REMARK    2  A    between atoms: C_2  and  C_3
REMARK    3  A    between atoms: C_2  and  N_4
REMARK                            x       y       z     vdW  Elec       q    Type
REMARK                         _______ _______ _______ _____ _____    ______ ____
ROOT
ATOM      1  N   UNL     1      -0.201  12.266  18.187  0.00  0.00    +0.000 N 
ATOM      2  C   UNL     1      -1.306  12.376  18.950  0.00  0.00    +0.000 A 
ATOM      3  N   UNL     1      -1.402  12.624  20.233  0.00  0.00    +0.000 NA
ATOM      4  C   UNL     1      -2.746  12.620  20.530  0.00  0.00    +0.000 A 
ATOM      5  C   UNL     1      -3.412  12.854  21.750  0.00  0.00    +0.000 A 
ATOM      6 BR   UNL     1      -2.344  13.291  23.264  0.00  0.00    +0.000 Br
ATOM      7  C   UNL     1      -4.821  12.755  21.788  0.00  0.00    +0.000 A 
ATOM      8 BR   UNL     1      -5.737  13.088  23.442  0.00  0.00    +0.000 Br
ATOM      9  C   UNL     1      -5.548  12.417  20.621  0.00  0.00    +0.000 A 
ATOM     10 BR   UNL     1      -7.459  12.248  20.675  0.00  0.00    +0.000 Br
ATOM     11  C   UNL     1      -4.880  12.197  19.398  0.00  0.00    +0.000 A 
ATOM     12 BR   UNL     1      -5.742  11.734  17.770  0.00  0.00    +0.000 Br
ATOM     13  C   UNL     1      -3.488  12.323  19.395  0.00  0.00    +0.000 A 
ATOM     14  N   UNL     1      -2.546  12.208  18.398  0.00  0.00    +0.000 N 
ATOM     15  H   UNL     1      -0.270  12.007  17.210  0.00  0.00    +0.000 HD
ATOM     16  H   UNL     1      -2.732  12.003  17.430  0.00  0.00    +0.000 HD
ENDROOT
BRANCH   1  18
ATOM     17  C   UNL     1       1.220  10.321  18.539  0.00  0.00    +0.000 C 
ATOM     18  C   UNL     1       1.036  11.812  18.827  0.00  0.00    +0.000 C 
ATOM     19  C   UNL     1       2.217  12.609  18.277  0.00  0.00    +0.000 C 
ENDBRANCH   1  18
TORSDOF 1
ENDMDL
MODEL 8
REMARK VINA RESULT:      -5.0      8.863     10.440
REMARK  Name = 
REMARK  3 active torsions:
REMARK  status: ('A' for Active; 'I' for Inactive)
REMARK    1  A    between atoms: C_1  and  C_2
REMARK    2  A    between atoms: C_2  and  C_3
REMARK    3  A    between atoms: C_2  and  N_4
REMARK                            x       y       z     vdW  Elec       q    Type
REMARK                         _______ _______ _______ _____ _____    ______ ____
ROOT
ATOM      1  N   UNL     1       7.672  11.421  24.254  0.00  0.00    +0.000 N 
ATOM      2  C   UNL     1       8.357  11.985  23.238  0.00  0.00    +0.000 A 
ATOM      3  N   UNL     1       8.865  13.189  23.154  0.00  0.00    +0.000 NA
ATOM      4  C   UNL     1       9.452  13.276  21.911  0.00  0.00    +0.000 A 
ATOM      5  C   UNL     1      10.161  14.335  21.309  0.00  0.00    +0.000 A 
ATOM      6 BR   UNL     1      10.423  15.915  22.339  0.00  0.00    +0.000 Br
ATOM      7  C   UNL     1      10.638  14.172  19.989  0.00  0.00    +0.000 A 
ATOM      8 BR   UNL     1      11.620  15.604  19.168  0.00  0.00    +0.000 Br
ATOM      9  C   UNL     1      10.397  12.970  19.282  0.00  0.00    +0.000 A 
ATOM     10 BR   UNL     1      11.013  12.757  17.477  0.00  0.00    +0.000 Br
ATOM     11  C   UNL     1       9.699  11.906  19.892  0.00  0.00    +0.000 A 
ATOM     12 BR   UNL     1       9.310  10.251  19.048  0.00  0.00    +0.000 Br
ATOM     13  C   UNL     1       9.260  12.096  21.205  0.00  0.00    +0.000 A 
ATOM     14  N   UNL     1       8.590  11.281  22.090  0.00  0.00    +0.000 N 
ATOM     15  H   UNL     1       7.279  10.493  24.160  0.00  0.00    +0.000 HD
ATOM     16  H   UNL     1       8.293  10.335  21.912  0.00  0.00    +0.000 HD
ENDROOT
BRANCH   1  18
ATOM     17  C   UNL     1       5.672  11.537  25.636  0.00  0.00    +0.000 C 
ATOM     18  C   UNL     1       6.898  12.301  25.134  0.00  0.00    +0.000 C 
ATOM     19  C   UNL     1       7.768  12.738  26.310  0.00  0.00    +0.000 C 
ENDBRANCH   1  18
TORSDOF 1
ENDMDL
MODEL 9
REMARK VINA RESULT:      -4.9      8.034     10.732
REMARK  Name = 
REMARK  3 active torsions:
REMARK  status: ('A' for Active; 'I' for Inactive)
REMARK    1  A    between atoms: C_1  and  C_2
REMARK    2  A    between atoms: C_2  and  C_3
REMARK    3  A    between atoms: C_2  and  N_4
REMARK                            x       y       z     vdW  Elec       q    Type
REMARK                         _______ _______ _______ _____ _____    ______ ____
ROOT
ATOM      1  N   UNL     1      -3.800  11.819  17.050  0.00  0.00    +0.000 N 
ATOM      2  C   UNL     1      -3.980  12.179  18.336  0.00  0.00    +0.000 A 
ATOM      3  N   UNL     1      -3.137  12.119  19.336  0.00  0.00    +0.000 NA
ATOM      4  C   UNL     1      -3.810  12.592  20.441  0.00  0.00    +0.000 A 
ATOM      5  C   UNL     1      -3.373  12.768  21.769  0.00  0.00    +0.000 A 
ATOM      6 BR   UNL     1      -1.560  12.341  22.162  0.00  0.00    +0.000 Br
ATOM      7  C   UNL     1      -4.291  13.249  22.730  0.00  0.00    +0.000 A 
ATOM      8 BR   UNL     1      -3.699  13.508  24.539  0.00  0.00    +0.000 Br
ATOM      9  C   UNL     1      -5.627  13.538  22.364  0.00  0.00    +0.000 A 
ATOM     10 BR   UNL     1      -6.887  14.158  23.674  0.00  0.00    +0.000 Br
ATOM     11  C   UNL     1      -6.058  13.374  21.031  0.00  0.00    +0.000 A 
ATOM     12 BR   UNL     1      -7.822  13.722  20.420  0.00  0.00    +0.000 Br
ATOM     13  C   UNL     1      -5.118  12.915  20.104  0.00  0.00    +0.000 A 
ATOM     14  N   UNL     1      -5.185  12.675  18.751  0.00  0.00    +0.000 N 
ATOM     15  H   UNL     1      -4.565  11.862  16.388  0.00  0.00    +0.000 HD
ATOM     16  H   UNL     1      -5.994  12.811  18.167  0.00  0.00    +0.000 HD
ENDROOT
BRANCH   1  18
ATOM     17  C   UNL     1      -3.251   9.494  17.520  0.00  0.00    +0.000 C 
ATOM     18  C   UNL     1      -2.834  10.756  16.762  0.00  0.00    +0.000 C 
ATOM     19  C   UNL     1      -2.805  10.486  15.259  0.00  0.00    +0.000 C 
ENDBRANCH   1  18
TORSDOF 1
ENDMDL
