MODEL 1
REMARK VINA RESULT:      -8.6      0.000      0.000
REMARK  Name = 
REMARK  2 active torsions:
REMARK  status: ('A' for Active; 'I' for Inactive)
REMARK    1  A    between atoms: N_5  and  N_6
REMARK    2  A    between atoms: C_9  and  C_10
REMARK                            x       y       z     vdW  Elec       q    Type
REMARK                         _______ _______ _______ _____ _____    ______ ____
ROOT
ATOM      1  N   UNL     1       2.607   6.356  20.352  0.00  0.00    +0.000 N 
ATOM      2  C   UNL     1       3.306   5.476  19.576  0.00  0.00    +0.000 A 
ATOM      3  N   UNL     1       3.977   5.752  18.476  0.00  0.00    +0.000 NA
ATOM      4  C   UNL     1       4.519   4.600  17.926  0.00  0.00    +0.000 A 
ATOM      5  C   UNL     1       4.257   3.446  18.635  0.00  0.00    +0.000 A 
ATOM      6  S   UNL     1       3.338   3.810  20.033  0.00  0.00    +0.000 S 
ATOM      7  H   UNL     1       2.083   5.912  21.100  0.00  0.00    +0.000 HD
ENDROOT
BRANCH   1  12
ATOM      8  N   UNL     1       0.303   9.753  23.640  0.00  0.00    +0.000 NA
ATOM      9  C   UNL     1       0.594   9.392  22.446  0.00  0.00    +0.000 C 
ATOM     10  N   UNL     1       1.288   8.298  21.991  0.00  0.00    +0.000 N 
ATOM     11  C   UNL     1       1.449   8.278  20.619  0.00  0.00    +0.000 C 
ATOM     12  N   UNL     1       2.057   7.483  19.812  0.00  0.00    +0.000 NA
ATOM     13  C   UNL     1       0.735   9.477  20.132  0.00  0.00    +0.000 A 
ATOM     14  C   UNL     1       0.542   9.931  18.843  0.00  0.00    +0.000 A 
ATOM     15  C   UNL     1      -0.191  11.111  18.687  0.00  0.00    +0.000 A 
ATOM     16  C   UNL     1      -0.705  11.803  19.805  0.00  0.00    +0.000 A 
ATOM     17  C   UNL     1      -0.505  11.324  21.106  0.00  0.00    +0.000 A 
ATOM     18  C   UNL     1       0.215  10.154  21.241  0.00  0.00    +0.000 A 
ATOM     19  H   UNL     1       0.663   9.080  24.319  0.00  0.00    +0.000 HD
ATOM     20  H   UNL     1       1.802   7.685  22.598  0.00  0.00    +0.000 HD
ENDBRANCH   1  12
BRANCH   4  21
ATOM     21  C   UNL     1       5.352   4.637  16.726  0.00  0.00    +0.000 A 
ATOM     22  C   UNL     1       4.826   4.195  15.503  0.00  0.00    +0.000 A 
ATOM     23  C   UNL     1       5.575   4.296  14.325  0.00  0.00    +0.000 A 
ATOM     24  C   UNL     1       6.862   4.827  14.367  0.00  0.00    +0.000 A 
ATOM     25 BR   UNL     1       7.864   4.999  12.772  0.00  0.00    +0.000 Br
ATOM     26  C   UNL     1       7.415   5.240  15.577  0.00  0.00    +0.000 A 
ATOM     27  C   UNL     1       6.662   5.142  16.753  0.00  0.00    +0.000 A 
ENDBRANCH   4  21
TORSDOF 2
ENDMDL
MODEL 2
REMARK VINA RESULT:      -8.3      1.282      1.513
REMARK  Name = 
REMARK  2 active torsions:
REMARK  status: ('A' for Active; 'I' for Inactive)
REMARK    1  A    between atoms: N_5  and  N_6
REMARK    2  A    between atoms: C_9  and  C_10
REMARK                            x       y       z     vdW  Elec       q    Type
REMARK                         _______ _______ _______ _____ _____    ______ ____
ROOT
ATOM      1  N   UNL     1       1.758   7.439  20.729  0.00  0.00    +0.000 N 
ATOM      2  C   UNL     1       2.366   6.413  20.065  0.00  0.00    +0.000 A 
ATOM      3  N   UNL     1       3.067   6.496  18.952  0.00  0.00    +0.000 NA
ATOM      4  C   UNL     1       3.491   5.241  18.541  0.00  0.00    +0.000 A 
ATOM      5  C   UNL     1       3.108   4.205  19.368  0.00  0.00    +0.000 A 
ATOM      6  S   UNL     1       2.226   4.813  20.703  0.00  0.00    +0.000 S 
ATOM      7  H   UNL     1       1.188   7.137  21.514  0.00  0.00    +0.000 HD
ENDROOT
BRANCH   1  12
ATOM      8  N   UNL     1      -1.097  10.945  23.416  0.00  0.00    +0.000 NA
ATOM      9  C   UNL     1      -0.589  10.545  22.310  0.00  0.00    +0.000 C 
ATOM     10  N   UNL     1       0.170   9.436  22.029  0.00  0.00    +0.000 N 
ATOM     11  C   UNL     1       0.586   9.372  20.713  0.00  0.00    +0.000 C 
ATOM     12  N   UNL     1       1.329   8.549  20.060  0.00  0.00    +0.000 NA
ATOM     13  C   UNL     1      -0.014  10.556  20.063  0.00  0.00    +0.000 A 
ATOM     14  C   UNL     1       0.043  10.968  18.748  0.00  0.00    +0.000 A 
ATOM     15  C   UNL     1      -0.638  12.145  18.419  0.00  0.00    +0.000 A 
ATOM     16  C   UNL     1      -1.348  12.872  19.399  0.00  0.00    +0.000 A 
ATOM     17  C   UNL     1      -1.400  12.436  20.728  0.00  0.00    +0.000 A 
ATOM     18  C   UNL     1      -0.728  11.269  21.033  0.00  0.00    +0.000 A 
ATOM     19  H   UNL     1      -0.877  10.293  24.173  0.00  0.00    +0.000 HD
ATOM     20  H   UNL     1       0.555   8.841  22.741  0.00  0.00    +0.000 HD
ENDBRANCH   1  12
BRANCH   4  21
ATOM     21  C   UNL     1       4.328   5.061  17.357  0.00  0.00    +0.000 A 
ATOM     22  C   UNL     1       4.724   3.769  16.978  0.00  0.00    +0.000 A 
ATOM     23  C   UNL     1       5.457   3.563  15.805  0.00  0.00    +0.000 A 
ATOM     24  C   UNL     1       5.811   4.650  15.009  0.00  0.00    +0.000 A 
ATOM     25 BR   UNL     1       6.771   4.372  13.404  0.00  0.00    +0.000 Br
ATOM     26  C   UNL     1       5.457   5.943  15.387  0.00  0.00    +0.000 A 
ATOM     27  C   UNL     1       4.720   6.147  16.558  0.00  0.00    +0.000 A 
ENDBRANCH   4  21
TORSDOF 2
ENDMDL
MODEL 3
REMARK VINA RESULT:      -8.2      1.300      1.659
REMARK  Name = 
REMARK  2 active torsions:
REMARK  status: ('A' for Active; 'I' for Inactive)
REMARK    1  A    between atoms: N_5  and  N_6
REMARK    2  A    between atoms: C_9  and  C_10
REMARK                            x       y       z     vdW  Elec       q    Type
REMARK                         _______ _______ _______ _____ _____    ______ ____
ROOT
ATOM      1  N   UNL     1       1.672   7.473  20.747  0.00  0.00    +0.000 N 
ATOM      2  C   UNL     1       2.292   6.454  20.082  0.00  0.00    +0.000 A 
ATOM      3  N   UNL     1       2.978   6.544  18.960  0.00  0.00    +0.000 NA
ATOM      4  C   UNL     1       3.421   5.296  18.550  0.00  0.00    +0.000 A 
ATOM      5  C   UNL     1       3.067   4.257  19.388  0.00  0.00    +0.000 A 
ATOM      6  S   UNL     1       2.189   4.855  20.729  0.00  0.00    +0.000 S 
ATOM      7  H   UNL     1       1.117   7.164  21.540  0.00  0.00    +0.000 HD
ENDROOT
BRANCH   1  12
ATOM      8  N   UNL     1      -1.131  10.990  23.473  0.00  0.00    +0.000 NA
ATOM      9  C   UNL     1      -0.653  10.580  22.358  0.00  0.00    +0.000 C 
ATOM     10  N   UNL     1       0.107   9.473  22.068  0.00  0.00    +0.000 N 
ATOM     11  C   UNL     1       0.485   9.396  20.742  0.00  0.00    +0.000 C 
ATOM     12  N   UNL     1       1.214   8.571  20.078  0.00  0.00    +0.000 NA
ATOM     13  C   UNL     1      -0.144  10.567  20.095  0.00  0.00    +0.000 A 
ATOM     14  C   UNL     1      -0.129  10.963  18.773  0.00  0.00    +0.000 A 
ATOM     15  C   UNL     1      -0.829  12.130  18.450  0.00  0.00    +0.000 A 
ATOM     16  C   UNL     1      -1.516  12.864  19.441  0.00  0.00    +0.000 A 
ATOM     17  C   UNL     1      -1.525  12.444  20.777  0.00  0.00    +0.000 A 
ATOM     18  C   UNL     1      -0.835  11.287  21.076  0.00  0.00    +0.000 A 
ATOM     19  H   UNL     1      -0.883  10.350  24.231  0.00  0.00    +0.000 HD
ATOM     20  H   UNL     1       0.518   8.891  22.776  0.00  0.00    +0.000 HD
ENDBRANCH   1  12
BRANCH   4  21
ATOM     21  C   UNL     1       4.248   5.124  17.358  0.00  0.00    +0.000 A 
ATOM     22  C   UNL     1       4.683   6.253  16.648  0.00  0.00    +0.000 A 
ATOM     23  C   UNL     1       5.541   6.120  15.551  0.00  0.00    +0.000 A 
ATOM     24  C   UNL     1       5.959   4.853  15.149  0.00  0.00    +0.000 A 
ATOM     25 BR   UNL     1       7.148   4.670  13.691  0.00  0.00    +0.000 Br
ATOM     26  C   UNL     1       5.511   3.718  15.821  0.00  0.00    +0.000 A 
ATOM     27  C   UNL     1       4.656   3.854  16.920  0.00  0.00    +0.000 A 
ENDBRANCH   4  21
TORSDOF 2
ENDMDL
MODEL 4
REMARK VINA RESULT:      -8.1      3.318      7.851
REMARK  Name = 
REMARK  2 active torsions:
REMARK  status: ('A' for Active; 'I' for Inactive)
REMARK    1  A    between atoms: N_5  and  N_6
REMARK    2  A    between atoms: C_9  and  C_10
REMARK                            x       y       z     vdW  Elec       q    Type
REMARK                         _______ _______ _______ _____ _____    ______ ____
ROOT
ATOM      1  N   UNL     1       2.959   2.662  18.323  0.00  0.00    +0.000 N 
ATOM      2  C   UNL     1       2.645   3.685  19.170  0.00  0.00    +0.000 A 
ATOM      3  N   UNL     1       2.414   4.941  18.843  0.00  0.00    +0.000 NA
ATOM      4  C   UNL     1       2.177   5.710  19.971  0.00  0.00    +0.000 A 
ATOM      5  C   UNL     1       2.221   5.013  21.162  0.00  0.00    +0.000 A 
ATOM      6  S   UNL     1       2.537   3.358  20.864  0.00  0.00    +0.000 S 
ATOM      7  H   UNL     1       3.193   1.795  18.799  0.00  0.00    +0.000 HD
ENDROOT
BRANCH   1  12
ATOM      8  N   UNL     1       7.673   4.981  18.571  0.00  0.00    +0.000 NA
ATOM      9  C   UNL     1       6.700   4.522  17.876  0.00  0.00    +0.000 C 
ATOM     10  N   UNL     1       5.520   3.941  18.270  0.00  0.00    +0.000 N 
ATOM     11  C   UNL     1       4.734   3.517  17.216  0.00  0.00    +0.000 C 
ATOM     12  N   UNL     1       3.608   2.901  17.146  0.00  0.00    +0.000 NA
ATOM     13  C   UNL     1       5.477   3.913  16.002  0.00  0.00    +0.000 A 
ATOM     14  C   UNL     1       5.140   3.770  14.671  0.00  0.00    +0.000 A 
ATOM     15  C   UNL     1       6.052   4.253  13.728  0.00  0.00    +0.000 A 
ATOM     16  C   UNL     1       7.263   4.858  14.129  0.00  0.00    +0.000 A 
ATOM     17  C   UNL     1       7.586   5.000  15.484  0.00  0.00    +0.000 A 
ATOM     18  C   UNL     1       6.671   4.524  16.401  0.00  0.00    +0.000 A 
ATOM     19  H   UNL     1       7.484   4.878  19.571  0.00  0.00    +0.000 HD
ATOM     20  H   UNL     1       5.335   3.666  19.219  0.00  0.00    +0.000 HD
ENDBRANCH   1  12
BRANCH   4  21
ATOM     21  C   UNL     1       1.846   7.130  19.880  0.00  0.00    +0.000 A 
ATOM     22  C   UNL     1       2.072   7.820  18.680  0.00  0.00    +0.000 A 
ATOM     23  C   UNL     1       1.689   9.158  18.542  0.00  0.00    +0.000 A 
ATOM     24  C   UNL     1       1.089   9.820  19.610  0.00  0.00    +0.000 A 
ATOM     25 BR   UNL     1       0.536  11.618  19.417  0.00  0.00    +0.000 Br
ATOM     26  C   UNL     1       0.887   9.163  20.822  0.00  0.00    +0.000 A 
ATOM     27  C   UNL     1       1.267   7.823  20.956  0.00  0.00    +0.000 A 
ENDBRANCH   4  21
TORSDOF 2
ENDMDL
MODEL 5
REMARK VINA RESULT:      -7.9      4.485      9.314
REMARK  Name = 
REMARK  2 active torsions:
REMARK  status: ('A' for Active; 'I' for Inactive)
REMARK    1  A    between atoms: N_5  and  N_6
REMARK    2  A    between atoms: C_9  and  C_10
REMARK                            x       y       z     vdW  Elec       q    Type
REMARK                         _______ _______ _______ _____ _____    ______ ____
ROOT
ATOM      1  N   UNL     1       2.475   8.184  18.782  0.00  0.00    +0.000 N 
ATOM      2  C   UNL     1       1.731   9.303  19.025  0.00  0.00    +0.000 A 
ATOM      3  N   UNL     1       0.914   9.504  20.040  0.00  0.00    +0.000 NA
ATOM      4  C   UNL     1       0.288  10.736  19.933  0.00  0.00    +0.000 A 
ATOM      5  C   UNL     1       0.653  11.473  18.824  0.00  0.00    +0.000 A 
ATOM      6  S   UNL     1       1.824  10.621  17.911  0.00  0.00    +0.000 S 
ATOM      7  H   UNL     1       2.961   8.204  17.890  0.00  0.00    +0.000 HD
ENDROOT
BRANCH   1  12
ATOM      8  N   UNL     1       4.642   3.945  16.547  0.00  0.00    +0.000 NA
ATOM      9  C   UNL     1       3.789   4.458  17.353  0.00  0.00    +0.000 C 
ATOM     10  N   UNL     1       3.528   5.771  17.657  0.00  0.00    +0.000 N 
ATOM     11  C   UNL     1       2.560   5.931  18.629  0.00  0.00    +0.000 C 
ATOM     12  N   UNL     1       2.063   6.959  19.221  0.00  0.00    +0.000 NA
ATOM     13  C   UNL     1       2.115   4.560  18.956  0.00  0.00    +0.000 A 
ATOM     14  C   UNL     1       1.142   4.130  19.834  0.00  0.00    +0.000 A 
ATOM     15  C   UNL     1       0.935   2.750  19.931  0.00  0.00    +0.000 A 
ATOM     16  C   UNL     1       1.695   1.845  19.160  0.00  0.00    +0.000 A 
ATOM     17  C   UNL     1       2.675   2.299  18.268  0.00  0.00    +0.000 A 
ATOM     18  C   UNL     1       2.861   3.664  18.181  0.00  0.00    +0.000 A 
ATOM     19  H   UNL     1       5.181   4.676  16.077  0.00  0.00    +0.000 HD
ATOM     20  H   UNL     1       4.116   6.529  17.358  0.00  0.00    +0.000 HD
ENDBRANCH   1  12
BRANCH   4  21
ATOM     21  C   UNL     1      -0.633  11.224  20.957  0.00  0.00    +0.000 A 
ATOM     22  C   UNL     1      -1.615  12.166  20.615  0.00  0.00    +0.000 A 
ATOM     23  C   UNL     1      -2.559  12.587  21.557  0.00  0.00    +0.000 A 
ATOM     24  C   UNL     1      -2.518  12.079  22.853  0.00  0.00    +0.000 A 
ATOM     25 BR   UNL     1      -3.814  12.618  24.121  0.00  0.00    +0.000 Br
ATOM     26  C   UNL     1      -1.530  11.169  23.222  0.00  0.00    +0.000 A 
ATOM     27  C   UNL     1      -0.589  10.746  22.277  0.00  0.00    +0.000 A 
ENDBRANCH   4  21
TORSDOF 2
ENDMDL
MODEL 6
REMARK VINA RESULT:      -7.9      3.234      7.875
REMARK  Name = 
REMARK  2 active torsions:
REMARK  status: ('A' for Active; 'I' for Inactive)
REMARK    1  A    between atoms: N_5  and  N_6
REMARK    2  A    between atoms: C_9  and  C_10
REMARK                            x       y       z     vdW  Elec       q    Type
REMARK                         _______ _______ _______ _____ _____    ______ ____
ROOT
ATOM      1  N   UNL     1       2.786   3.190  18.288  0.00  0.00    +0.000 N 
ATOM      2  C   UNL     1       2.474   4.285  19.042  0.00  0.00    +0.000 A 
ATOM      3  N   UNL     1       2.272   5.513  18.609  0.00  0.00    +0.000 NA
ATOM      4  C   UNL     1       2.025   6.375  19.666  0.00  0.00    +0.000 A 
ATOM      5  C   UNL     1       2.033   5.777  20.910  0.00  0.00    +0.000 A 
ATOM      6  S   UNL     1       2.326   4.098  20.754  0.00  0.00    +0.000 S 
ATOM      7  H   UNL     1       2.995   2.362  18.838  0.00  0.00    +0.000 HD
ENDROOT
BRANCH   1  12
ATOM      8  N   UNL     1       7.733   4.965  18.507  0.00  0.00    +0.000 NA
ATOM      9  C   UNL     1       6.716   4.601  17.818  0.00  0.00    +0.000 C 
ATOM     10  N   UNL     1       5.476   4.169  18.219  0.00  0.00    +0.000 N 
ATOM     11  C   UNL     1       4.651   3.808  17.171  0.00  0.00    +0.000 C 
ATOM     12  N   UNL     1       3.462   3.322  17.109  0.00  0.00    +0.000 NA
ATOM     13  C   UNL     1       5.439   4.084  15.952  0.00  0.00    +0.000 A 
ATOM     14  C   UNL     1       5.093   3.944  14.623  0.00  0.00    +0.000 A 
ATOM     15  C   UNL     1       6.058   4.295  13.673  0.00  0.00    +0.000 A 
ATOM     16  C   UNL     1       7.328   4.769  14.067  0.00  0.00    +0.000 A 
ATOM     17  C   UNL     1       7.660   4.910  15.420  0.00  0.00    +0.000 A 
ATOM     18  C   UNL     1       6.694   4.566  16.343  0.00  0.00    +0.000 A 
ATOM     19  H   UNL     1       7.529   4.911  19.508  0.00  0.00    +0.000 HD
ATOM     20  H   UNL     1       5.258   3.942  19.173  0.00  0.00    +0.000 HD
ENDBRANCH   1  12
BRANCH   4  21
ATOM     21  C   UNL     1       1.722   7.788  19.453  0.00  0.00    +0.000 A 
ATOM     22  C   UNL     1       1.186   8.549  20.504  0.00  0.00    +0.000 A 
ATOM     23  C   UNL     1       0.963   9.921  20.350  0.00  0.00    +0.000 A 
ATOM     24  C   UNL     1       1.260  10.539  19.138  0.00  0.00    +0.000 A 
ATOM     25 BR   UNL     1       0.993  12.401  18.937  0.00  0.00    +0.000 Br
ATOM     26  C   UNL     1       1.760   9.795  18.071  0.00  0.00    +0.000 A 
ATOM     27  C   UNL     1       1.987   8.423  18.229  0.00  0.00    +0.000 A 
ENDBRANCH   4  21
TORSDOF 2
ENDMDL
MODEL 7
REMARK VINA RESULT:      -7.8      4.262      8.591
REMARK  Name = 
REMARK  2 active torsions:
REMARK  status: ('A' for Active; 'I' for Inactive)
REMARK    1  A    between atoms: N_5  and  N_6
REMARK    2  A    between atoms: C_9  and  C_10
REMARK                            x       y       z     vdW  Elec       q    Type
REMARK                         _______ _______ _______ _____ _____    ______ ____
ROOT
ATOM      1  N   UNL     1       1.923   7.647  20.973  0.00  0.00    +0.000 N 
ATOM      2  C   UNL     1       1.188   8.792  20.849  0.00  0.00    +0.000 A 
ATOM      3  N   UNL     1       0.162   8.990  20.046  0.00  0.00    +0.000 NA
ATOM      4  C   UNL     1      -0.305  10.291  20.153  0.00  0.00    +0.000 A 
ATOM      5  C   UNL     1       0.379  11.075  21.060  0.00  0.00    +0.000 A 
ATOM      6  S   UNL     1       1.612  10.159  21.817  0.00  0.00    +0.000 S 
ATOM      7  H   UNL     1       2.731   7.745  21.581  0.00  0.00    +0.000 HD
ENDROOT
BRANCH   1  12
ATOM      8  N   UNL     1       2.116   2.508  22.074  0.00  0.00    +0.000 NA
ATOM      9  C   UNL     1       2.189   3.462  21.221  0.00  0.00    +0.000 C 
ATOM     10  N   UNL     1       2.073   4.819  21.392  0.00  0.00    +0.000 N 
ATOM     11  C   UNL     1       2.154   5.532  20.212  0.00  0.00    +0.000 C 
ATOM     12  N   UNL     1       2.053   6.782  19.925  0.00  0.00    +0.000 NA
ATOM     13  C   UNL     1       2.396   4.516  19.166  0.00  0.00    +0.000 A 
ATOM     14  C   UNL     1       2.594   4.671  17.809  0.00  0.00    +0.000 A 
ATOM     15  C   UNL     1       2.807   3.509  17.060  0.00  0.00    +0.000 A 
ATOM     16  C   UNL     1       2.815   2.238  17.674  0.00  0.00    +0.000 A 
ATOM     17  C   UNL     1       2.619   2.101  19.054  0.00  0.00    +0.000 A 
ATOM     18  C   UNL     1       2.417   3.258  19.779  0.00  0.00    +0.000 A 
ATOM     19  H   UNL     1       1.953   2.875  23.014  0.00  0.00    +0.000 HD
ATOM     20  H   UNL     1       1.758   5.238  22.249  0.00  0.00    +0.000 HD
ENDBRANCH   1  12
BRANCH   4  21
ATOM     21  C   UNL     1      -1.468  10.756  19.402  0.00  0.00    +0.000 A 
ATOM     22  C   UNL     1      -1.847  10.091  18.226  0.00  0.00    +0.000 A 
ATOM     23  C   UNL     1      -3.003  10.466  17.534  0.00  0.00    +0.000 A 
ATOM     24  C   UNL     1      -3.781  11.520  18.007  0.00  0.00    +0.000 A 
ATOM     25 BR   UNL     1      -5.365  12.008  17.095  0.00  0.00    +0.000 Br
ATOM     26  C   UNL     1      -3.404  12.216  19.153  0.00  0.00    +0.000 A 
ATOM     27  C   UNL     1      -2.249  11.836  19.847  0.00  0.00    +0.000 A 
ENDBRANCH   4  21
TORSDOF 2
ENDMDL
MODEL 8
REMARK VINA RESULT:      -7.8      4.520      9.173
REMARK  Name = 
REMARK  2 active torsions:
REMARK  status: ('A' for Active; 'I' for Inactive)
REMARK    1  A    between atoms: N_5  and  N_6
REMARK    2  A    between atoms: C_9  and  C_10
REMARK                            x       y       z     vdW  Elec       q    Type
REMARK                         _______ _______ _______ _____ _____    ______ ____
ROOT
ATOM      1  N   UNL     1       2.642   8.118  18.410  0.00  0.00    +0.000 N 
ATOM      2  C   UNL     1       1.946   9.243  18.748  0.00  0.00    +0.000 A 
ATOM      3  N   UNL     1       1.041   9.358  19.699  0.00  0.00    +0.000 NA
ATOM      4  C   UNL     1       0.506  10.636  19.721  0.00  0.00    +0.000 A 
ATOM      5  C   UNL     1       1.030  11.495  18.775  0.00  0.00    +0.000 A 
ATOM      6  S   UNL     1       2.235  10.697  17.860  0.00  0.00    +0.000 S 
ATOM      7  H   UNL     1       3.219   8.229  17.581  0.00  0.00    +0.000 HD
ENDROOT
BRANCH   1  12
ATOM      8  N   UNL     1       5.978   4.060  18.663  0.00  0.00    +0.000 NA
ATOM      9  C   UNL     1       4.778   4.508  18.648  0.00  0.00    +0.000 C 
ATOM     10  N   UNL     1       4.308   5.794  18.546  0.00  0.00    +0.000 N 
ATOM     11  C   UNL     1       2.932   5.887  18.623  0.00  0.00    +0.000 C 
ATOM     12  N   UNL     1       2.112   6.877  18.618  0.00  0.00    +0.000 NA
ATOM     13  C   UNL     1       2.460   4.492  18.744  0.00  0.00    +0.000 A 
ATOM     14  C   UNL     1       1.175   3.995  18.818  0.00  0.00    +0.000 A 
ATOM     15  C   UNL     1       1.034   2.607  18.922  0.00  0.00    +0.000 A 
ATOM     16  C   UNL     1       2.164   1.761  18.951  0.00  0.00    +0.000 A 
ATOM     17  C   UNL     1       3.460   2.282  18.868  0.00  0.00    +0.000 A 
ATOM     18  C   UNL     1       3.581   3.653  18.759  0.00  0.00    +0.000 A 
ATOM     19  H   UNL     1       6.651   4.825  18.575  0.00  0.00    +0.000 HD
ATOM     20  H   UNL     1       4.903   6.601  18.615  0.00  0.00    +0.000 HD
ENDBRANCH   1  12
BRANCH   4  21
ATOM     21  C   UNL     1      -0.486  11.040  20.714  0.00  0.00    +0.000 A 
ATOM     22  C   UNL     1      -0.383  10.564  22.030  0.00  0.00    +0.000 A 
ATOM     23  C   UNL     1      -1.272  11.000  23.019  0.00  0.00    +0.000 A 
ATOM     24  C   UNL     1      -2.280  11.904  22.694  0.00  0.00    +0.000 A 
ATOM     25 BR   UNL     1      -3.461  12.524  24.034  0.00  0.00    +0.000 Br
ATOM     26  C   UNL     1      -2.420  12.362  21.385  0.00  0.00    +0.000 A 
ATOM     27  C   UNL     1      -1.527  11.929  20.399  0.00  0.00    +0.000 A 
ENDBRANCH   4  21
TORSDOF 2
ENDMDL
MODEL 9
REMARK VINA RESULT:      -7.8      3.724      8.549
REMARK  Name = 
REMARK  2 active torsions:
REMARK  status: ('A' for Active; 'I' for Inactive)
REMARK    1  A    between atoms: N_5  and  N_6
REMARK    2  A    between atoms: C_9  and  C_10
REMARK                            x       y       z     vdW  Elec       q    Type
REMARK                         _______ _______ _______ _____ _____    ______ ____
ROOT
ATOM      1  N   UNL     1       2.499   7.388  20.254  0.00  0.00    +0.000 N 
ATOM      2  C   UNL     1       1.517   8.320  20.436  0.00  0.00    +0.000 A 
ATOM      3  N   UNL     1       0.644   8.734  19.541  0.00  0.00    +0.000 NA
ATOM      4  C   UNL     1      -0.171   9.725  20.067  0.00  0.00    +0.000 A 
ATOM      5  C   UNL     1       0.093  10.048  21.383  0.00  0.00    +0.000 A 
ATOM      6  S   UNL     1       1.365   9.073  21.984  0.00  0.00    +0.000 S 
ATOM      7  H   UNL     1       3.122   7.291  21.050  0.00  0.00    +0.000 HD
ENDROOT
BRANCH   1  12
ATOM      8  N   UNL     1       4.985   2.829  19.423  0.00  0.00    +0.000 NA
ATOM      9  C   UNL     1       4.646   3.995  19.016  0.00  0.00    +0.000 C 
ATOM     10  N   UNL     1       3.914   4.977  19.638  0.00  0.00    +0.000 N 
ATOM     11  C   UNL     1       3.704   6.092  18.849  0.00  0.00    +0.000 C 
ATOM     12  N   UNL     1       3.052   7.187  19.022  0.00  0.00    +0.000 NA
ATOM     13  C   UNL     1       4.425   5.811  17.590  0.00  0.00    +0.000 A 
ATOM     14  C   UNL     1       4.583   6.595  16.466  0.00  0.00    +0.000 A 
ATOM     15  C   UNL     1       5.334   6.059  15.415  0.00  0.00    +0.000 A 
ATOM     16  C   UNL     1       5.900   4.769  15.510  0.00  0.00    +0.000 A 
ATOM     17  C   UNL     1       5.736   3.990  16.661  0.00  0.00    +0.000 A 
ATOM     18  C   UNL     1       4.998   4.537  17.691  0.00  0.00    +0.000 A 
ATOM     19  H   UNL     1       4.635   2.659  20.369  0.00  0.00    +0.000 HD
ATOM     20  H   UNL     1       3.409   4.825  20.493  0.00  0.00    +0.000 HD
ENDBRANCH   1  12
BRANCH   4  21
ATOM     21  C   UNL     1      -1.256  10.322  19.293  0.00  0.00    +0.000 A 
ATOM     22  C   UNL     1      -1.663   9.723  18.091  0.00  0.00    +0.000 A 
ATOM     23  C   UNL     1      -2.752  10.228  17.374  0.00  0.00    +0.000 A 
ATOM     24  C   UNL     1      -3.434  11.346  17.847  0.00  0.00    +0.000 A 
ATOM     25 BR   UNL     1      -4.930  12.011  16.900  0.00  0.00    +0.000 Br
ATOM     26  C   UNL     1      -3.024  11.977  19.020  0.00  0.00    +0.000 A 
ATOM     27  C   UNL     1      -1.937  11.467  19.738  0.00  0.00    +0.000 A 
ENDBRANCH   4  21
TORSDOF 2
ENDMDL
