MODEL 1
REMARK VINA RESULT:      -8.1      0.000      0.000
REMARK  Name = 
REMARK  9 active torsions:
REMARK  status: ('A' for Active; 'I' for Inactive)
REMARK    1  A    between atoms: C_1  and  O_2
REMARK    2  A    between atoms: O_2  and  C_3
REMARK    3  A    between atoms: C_6  and  N_7
REMARK    4  A    between atoms: C_12  and  N_13
REMARK    5  A    between atoms: N_13  and  C_14
REMARK    6  A    between atoms: C_14  and  C_15
REMARK    7  A    between atoms: C_18  and  C_19
REMARK    8  A    between atoms: C_19  and  N_20
REMARK    9  A    between atoms: N_23  and  C_24
REMARK                            x       y       z     vdW  Elec       q    Type
REMARK                         _______ _______ _______ _____ _____    ______ ____
ROOT
ATOM      1  N   UNL     1       1.425   8.605  19.553  0.00  0.00    +0.000 N 
ATOM      2  C   UNL     1       1.791   9.378  18.456  0.00  0.00    +0.000 A 
ATOM      3  N   UNL     1       2.367   8.719  17.505  0.00  0.00    +0.000 NA
ATOM      4  C   UNL     1       2.731   7.575  18.115  0.00  0.00    +0.000 A 
ATOM      5  C   UNL     1       3.607   6.641  17.550  0.00  0.00    +0.000 A 
ATOM      6  C   UNL     1       4.177   5.600  18.271  0.00  0.00    +0.000 A 
ATOM      7  C   UNL     1       3.661   5.420  19.568  0.00  0.00    +0.000 A 
ATOM      8  C   UNL     1       2.672   6.315  20.168  0.00  0.00    +0.000 A 
ATOM      9  C   UNL     1       2.248   7.456  19.438  0.00  0.00    +0.000 A 
ENDROOT
BRANCH   1  13
ATOM     10  C   UNL     1      -0.617  10.973  22.431  0.00  0.00    +0.000 A 
ATOM     11  C   UNL     1      -0.269  11.460  21.186  0.00  0.00    +0.000 A 
ATOM     12  C   UNL     1       0.219  10.594  20.216  0.00  0.00    +0.000 A 
ATOM     13  C   UNL     1       0.489   9.222  20.474  0.00  0.00    +0.000 A 
ATOM     14  C   UNL     1       0.005   8.695  21.669  0.00  0.00    +0.000 A 
ATOM     15  C   UNL     1      -0.545   9.587  22.652  0.00  0.00    +0.000 A 
BRANCH  10  17
ATOM     16  C   UNL     1      -1.299  13.241  22.799  0.00  0.00    +0.000 C 
ATOM     17  O   UNL     1      -0.937  11.971  23.303  0.00  0.00    +0.000 OA
ENDBRANCH  10  17
ENDBRANCH   1  13
BRANCH   6  18
ATOM     18  N   UNL     1       5.273   5.006  17.656  0.00  0.00    +0.000 N 
ATOM     19  H   UNL     1       5.700   4.310  18.261  0.00  0.00    +0.000 HD
BRANCH  18  20
ATOM     20  C   UNL     1       6.286   5.497  16.737  0.00  0.00    +0.000 C 
BRANCH  20  21
ATOM     21  C   UNL     1       7.090   6.611  17.434  0.00  0.00    +0.000 A 
ATOM     22  C   UNL     1       7.072   7.909  16.899  0.00  0.00    +0.000 A 
ATOM     23  C   UNL     1       7.781   8.966  17.502  0.00  0.00    +0.000 A 
ATOM     24  C   UNL     1       8.533   8.775  18.672  0.00  0.00    +0.000 A 
ATOM     25  C   UNL     1       8.567   7.478  19.209  0.00  0.00    +0.000 A 
ATOM     26  C   UNL     1       7.864   6.409  18.593  0.00  0.00    +0.000 A 
BRANCH  24  27
ATOM     27  C   UNL     1       9.269   9.948  19.317  0.00  0.00    +0.000 C 
BRANCH  27  28
ATOM     28  N   UNL     1       9.695  11.015  18.387  0.00  0.00    +0.000 NA
ATOM     29  C   UNL     1      11.139  11.314  18.492  0.00  0.00    +0.000 C 
ATOM     30  C   UNL     1      11.575  12.466  17.551  0.00  0.00    +0.000 C 
ATOM     31  N   UNL     1      10.822  13.727  17.700  0.00  0.00    +0.000 NA
ATOM     32  C   UNL     1      11.231  14.465  18.891  0.00  0.00    +0.000 C 
ATOM     33  C   UNL     1       9.377  13.425  17.700  0.00  0.00    +0.000 C 
ATOM     34  C   UNL     1       8.942  12.267  18.637  0.00  0.00    +0.000 C 
ENDBRANCH  27  28
ENDBRANCH  24  27
ENDBRANCH  20  21
ENDBRANCH  18  20
ENDBRANCH   6  18
TORSDOF 7
ENDMDL
MODEL 2
REMARK VINA RESULT:      -7.6      0.712      1.106
REMARK  Name = 
REMARK  9 active torsions:
REMARK  status: ('A' for Active; 'I' for Inactive)
REMARK    1  A    between atoms: C_1  and  O_2
REMARK    2  A    between atoms: O_2  and  C_3
REMARK    3  A    between atoms: C_6  and  N_7
REMARK    4  A    between atoms: C_12  and  N_13
REMARK    5  A    between atoms: N_13  and  C_14
REMARK    6  A    between atoms: C_14  and  C_15
REMARK    7  A    between atoms: C_18  and  C_19
REMARK    8  A    between atoms: C_19  and  N_20
REMARK    9  A    between atoms: N_23  and  C_24
REMARK                            x       y       z     vdW  Elec       q    Type
REMARK                         _______ _______ _______ _____ _____    ______ ____
ROOT
ATOM      1  N   UNL     1       1.942   8.081  19.367  0.00  0.00    +0.000 N 
ATOM      2  C   UNL     1       2.305   8.777  18.218  0.00  0.00    +0.000 A 
ATOM      3  N   UNL     1       2.846   8.049  17.298  0.00  0.00    +0.000 NA
ATOM      4  C   UNL     1       3.196   6.935  17.970  0.00  0.00    +0.000 A 
ATOM      5  C   UNL     1       4.039   5.948  17.446  0.00  0.00    +0.000 A 
ATOM      6  C   UNL     1       4.599   4.938  18.219  0.00  0.00    +0.000 A 
ATOM      7  C   UNL     1       4.105   4.849  19.533  0.00  0.00    +0.000 A 
ATOM      8  C   UNL     1       3.148   5.803  20.096  0.00  0.00    +0.000 A 
ATOM      9  C   UNL     1       2.736   6.907  19.306  0.00  0.00    +0.000 A 
ENDROOT
BRANCH   1  13
ATOM     10  C   UNL     1      -0.181  10.838  21.805  0.00  0.00    +0.000 A 
ATOM     11  C   UNL     1      -0.214  10.895  20.425  0.00  0.00    +0.000 A 
ATOM     12  C   UNL     1       0.334   9.860  19.678  0.00  0.00    +0.000 A 
ATOM     13  C   UNL     1       1.040   8.775  20.265  0.00  0.00    +0.000 A 
ATOM     14  C   UNL     1       0.948   8.634  21.648  0.00  0.00    +0.000 A 
ATOM     15  C   UNL     1       0.337   9.684  22.416  0.00  0.00    +0.000 A 
BRANCH  10  17
ATOM     16  C   UNL     1      -0.154  13.234  21.894  0.00  0.00    +0.000 C 
ATOM     17  O   UNL     1      -0.627  11.993  22.378  0.00  0.00    +0.000 OA
ENDBRANCH  10  17
ENDBRANCH   1  13
BRANCH   6  18
ATOM     18  N   UNL     1       5.668   4.282  17.621  0.00  0.00    +0.000 N 
ATOM     19  H   UNL     1       5.976   3.494  18.184  0.00  0.00    +0.000 HD
BRANCH  18  20
ATOM     20  C   UNL     1       6.791   4.735  16.816  0.00  0.00    +0.000 C 
BRANCH  20  21
ATOM     21  C   UNL     1       7.328   6.051  17.411  0.00  0.00    +0.000 A 
ATOM     22  C   UNL     1       7.972   6.028  18.658  0.00  0.00    +0.000 A 
ATOM     23  C   UNL     1       8.490   7.200  19.244  0.00  0.00    +0.000 A 
ATOM     24  C   UNL     1       8.396   8.445  18.604  0.00  0.00    +0.000 A 
ATOM     25  C   UNL     1       7.745   8.481  17.360  0.00  0.00    +0.000 A 
ATOM     26  C   UNL     1       7.209   7.303  16.778  0.00  0.00    +0.000 A 
BRANCH  24  27
ATOM     27  C   UNL     1       8.993   9.693  19.252  0.00  0.00    +0.000 C 
BRANCH  27  28
ATOM     28  N   UNL     1       9.408  10.756  18.312  0.00  0.00    +0.000 NA
ATOM     29  C   UNL     1      10.842  11.094  18.436  0.00  0.00    +0.000 C 
ATOM     30  C   UNL     1      11.265  12.242  17.484  0.00  0.00    +0.000 C 
ATOM     31  N   UNL     1      10.478  13.485  17.600  0.00  0.00    +0.000 NA
ATOM     32  C   UNL     1      10.847  14.251  18.786  0.00  0.00    +0.000 C 
ATOM     33  C   UNL     1       9.041  13.146  17.580  0.00  0.00    +0.000 C 
ATOM     34  C   UNL     1       8.620  11.992  18.528  0.00  0.00    +0.000 C 
ENDBRANCH  27  28
ENDBRANCH  24  27
ENDBRANCH  20  21
ENDBRANCH  18  20
ENDBRANCH   6  18
TORSDOF 7
ENDMDL
MODEL 3
REMARK VINA RESULT:      -7.4      5.331     10.203
REMARK  Name = 
REMARK  9 active torsions:
REMARK  status: ('A' for Active; 'I' for Inactive)
REMARK    1  A    between atoms: C_1  and  O_2
REMARK    2  A    between atoms: O_2  and  C_3
REMARK    3  A    between atoms: C_6  and  N_7
REMARK    4  A    between atoms: C_12  and  N_13
REMARK    5  A    between atoms: N_13  and  C_14
REMARK    6  A    between atoms: C_14  and  C_15
REMARK    7  A    between atoms: C_18  and  C_19
REMARK    8  A    between atoms: C_19  and  N_20
REMARK    9  A    between atoms: N_23  and  C_24
REMARK                            x       y       z     vdW  Elec       q    Type
REMARK                         _______ _______ _______ _____ _____    ______ ____
ROOT
ATOM      1  N   UNL     1       4.281   4.846  18.081  0.00  0.00    +0.000 N 
ATOM      2  C   UNL     1       4.330   3.947  19.142  0.00  0.00    +0.000 A 
ATOM      3  N   UNL     1       3.352   4.053  19.980  0.00  0.00    +0.000 NA
ATOM      4  C   UNL     1       2.850   5.270  19.695  0.00  0.00    +0.000 A 
ATOM      5  C   UNL     1       1.924   5.935  20.508  0.00  0.00    +0.000 A 
ATOM      6  C   UNL     1       1.602   7.278  20.353  0.00  0.00    +0.000 A 
ATOM      7  C   UNL     1       2.118   7.884  19.193  0.00  0.00    +0.000 A 
ATOM      8  C   UNL     1       3.013   7.199  18.261  0.00  0.00    +0.000 A 
ATOM      9  C   UNL     1       3.434   5.877  18.561  0.00  0.00    +0.000 A 
ENDROOT
BRANCH   1  13
ATOM     10  C   UNL     1       7.028   4.845  14.838  0.00  0.00    +0.000 A 
ATOM     11  C   UNL     1       7.432   5.008  16.149  0.00  0.00    +0.000 A 
ATOM     12  C   UNL     1       6.526   4.807  17.183  0.00  0.00    +0.000 A 
ATOM     13  C   UNL     1       5.148   4.543  16.959  0.00  0.00    +0.000 A 
ATOM     14  C   UNL     1       4.766   4.231  15.655  0.00  0.00    +0.000 A 
ATOM     15  C   UNL     1       5.720   4.393  14.592  0.00  0.00    +0.000 A 
BRANCH  10  17
ATOM     16  C   UNL     1       7.719   5.168  12.566  0.00  0.00    +0.000 C 
ATOM     17  O   UNL     1       7.993   5.220  13.952  0.00  0.00    +0.000 OA
ENDBRANCH  10  17
ENDBRANCH   1  13
BRANCH   6  18
ATOM     18  N   UNL     1       0.958   7.844  21.446  0.00  0.00    +0.000 N 
ATOM     19  H   UNL     1      -0.045   7.678  21.407  0.00  0.00    +0.000 HD
BRANCH  18  20
ATOM     20  C   UNL     1       1.191   9.049  22.226  0.00  0.00    +0.000 C 
BRANCH  20  21
ATOM     21  C   UNL     1       0.144  10.107  21.830  0.00  0.00    +0.000 A 
ATOM     22  C   UNL     1      -0.605  10.741  22.834  0.00  0.00    +0.000 A 
ATOM     23  C   UNL     1      -1.569  11.722  22.528  0.00  0.00    +0.000 A 
ATOM     24  C   UNL     1      -1.820  12.119  21.206  0.00  0.00    +0.000 A 
ATOM     25  C   UNL     1      -1.084  11.483  20.193  0.00  0.00    +0.000 A 
ATOM     26  C   UNL     1      -0.124  10.484  20.500  0.00  0.00    +0.000 A 
BRANCH  24  27
ATOM     27  C   UNL     1      -2.852  13.206  20.909  0.00  0.00    +0.000 C 
BRANCH  27  28
ATOM     28  N   UNL     1      -2.434  14.583  21.248  0.00  0.00    +0.000 NA
ATOM     29  C   UNL     1      -3.580  15.512  21.355  0.00  0.00    +0.000 C 
ATOM     30  C   UNL     1      -3.137  16.965  21.663  0.00  0.00    +0.000 C 
ATOM     31  N   UNL     1      -2.153  17.540  20.726  0.00  0.00    +0.000 NA
ATOM     32  C   UNL     1      -2.771  17.932  19.463  0.00  0.00    +0.000 C 
ATOM     33  C   UNL     1      -1.054  16.574  20.532  0.00  0.00    +0.000 C 
ATOM     34  C   UNL     1      -1.498  15.117  20.231  0.00  0.00    +0.000 C 
ENDBRANCH  27  28
ENDBRANCH  24  27
ENDBRANCH  20  21
ENDBRANCH  18  20
ENDBRANCH   6  18
TORSDOF 7
ENDMDL
MODEL 4
REMARK VINA RESULT:      -7.3      4.802      9.041
REMARK  Name = 
REMARK  9 active torsions:
REMARK  status: ('A' for Active; 'I' for Inactive)
REMARK    1  A    between atoms: C_1  and  O_2
REMARK    2  A    between atoms: O_2  and  C_3
REMARK    3  A    between atoms: C_6  and  N_7
REMARK    4  A    between atoms: C_12  and  N_13
REMARK    5  A    between atoms: N_13  and  C_14
REMARK    6  A    between atoms: C_14  and  C_15
REMARK    7  A    between atoms: C_18  and  C_19
REMARK    8  A    between atoms: C_19  and  N_20
REMARK    9  A    between atoms: N_23  and  C_24
REMARK                            x       y       z     vdW  Elec       q    Type
REMARK                         _______ _______ _______ _____ _____    ______ ____
ROOT
ATOM      1  N   UNL     1       4.401   4.947  17.950  0.00  0.00    +0.000 N 
ATOM      2  C   UNL     1       4.520   4.091  19.041  0.00  0.00    +0.000 A 
ATOM      3  N   UNL     1       3.581   4.211  19.921  0.00  0.00    +0.000 NA
ATOM      4  C   UNL     1       3.040   5.406  19.615  0.00  0.00    +0.000 A 
ATOM      5  C   UNL     1       2.140   6.084  20.446  0.00  0.00    +0.000 A 
ATOM      6  C   UNL     1       1.783   7.413  20.256  0.00  0.00    +0.000 A 
ATOM      7  C   UNL     1       2.229   7.984  19.050  0.00  0.00    +0.000 A 
ATOM      8  C   UNL     1       3.093   7.279  18.102  0.00  0.00    +0.000 A 
ATOM      9  C   UNL     1       3.556   5.979  18.431  0.00  0.00    +0.000 A 
ENDROOT
BRANCH   1  13
ATOM     10  C   UNL     1       6.872   4.885  14.494  0.00  0.00    +0.000 A 
ATOM     11  C   UNL     1       7.342   5.281  15.731  0.00  0.00    +0.000 A 
ATOM     12  C   UNL     1       6.554   5.099  16.861  0.00  0.00    +0.000 A 
ATOM     13  C   UNL     1       5.219   4.617  16.799  0.00  0.00    +0.000 A 
ATOM     14  C   UNL     1       4.795   4.079  15.586  0.00  0.00    +0.000 A 
ATOM     15  C   UNL     1       5.633   4.225  14.428  0.00  0.00    +0.000 A 
BRANCH  10  17
ATOM     16  C   UNL     1       7.470   4.780  12.175  0.00  0.00    +0.000 C 
ATOM     17  O   UNL     1       7.702   5.266  13.482  0.00  0.00    +0.000 OA
ENDBRANCH  10  17
ENDBRANCH   1  13
BRANCH   6  18
ATOM     18  N   UNL     1       1.179   8.009  21.356  0.00  0.00    +0.000 N 
ATOM     19  H   UNL     1       1.677   7.785  22.214  0.00  0.00    +0.000 HD
BRANCH  18  20
ATOM     20  C   UNL     1      -0.203   8.308  21.695  0.00  0.00    +0.000 C 
BRANCH  20  21
ATOM     21  C   UNL     1      -0.429   9.826  21.566  0.00  0.00    +0.000 A 
ATOM     22  C   UNL     1      -0.452  10.411  20.291  0.00  0.00    +0.000 A 
ATOM     23  C   UNL     1      -0.664  11.793  20.116  0.00  0.00    +0.000 A 
ATOM     24  C   UNL     1      -0.871  12.649  21.208  0.00  0.00    +0.000 A 
ATOM     25  C   UNL     1      -0.838  12.076  22.489  0.00  0.00    +0.000 A 
ATOM     26  C   UNL     1      -0.610  10.686  22.666  0.00  0.00    +0.000 A 
BRANCH  24  27
ATOM     27  C   UNL     1      -1.125  14.139  20.984  0.00  0.00    +0.000 C 
BRANCH  27  28
ATOM     28  N   UNL     1       0.074  14.944  20.666  0.00  0.00    +0.000 NA
ATOM     29  C   UNL     1       0.289  15.088  19.210  0.00  0.00    +0.000 C 
ATOM     30  C   UNL     1       1.573  15.890  18.879  0.00  0.00    +0.000 C 
ATOM     31  N   UNL     1       2.816  15.381  19.490  0.00  0.00    +0.000 NA
ATOM     32  C   UNL     1       3.310  14.191  18.803  0.00  0.00    +0.000 C 
ATOM     33  C   UNL     1       2.579  15.136  20.926  0.00  0.00    +0.000 C 
ATOM     34  C   UNL     1       1.290  14.339  21.258  0.00  0.00    +0.000 C 
ENDBRANCH  27  28
ENDBRANCH  24  27
ENDBRANCH  20  21
ENDBRANCH  18  20
ENDBRANCH   6  18
TORSDOF 7
ENDMDL
MODEL 5
REMARK VINA RESULT:      -7.3      3.588      6.880
REMARK  Name = 
REMARK  9 active torsions:
REMARK  status: ('A' for Active; 'I' for Inactive)
REMARK    1  A    between atoms: C_1  and  O_2
REMARK    2  A    between atoms: O_2  and  C_3
REMARK    3  A    between atoms: C_6  and  N_7
REMARK    4  A    between atoms: C_12  and  N_13
REMARK    5  A    between atoms: N_13  and  C_14
REMARK    6  A    between atoms: C_14  and  C_15
REMARK    7  A    between atoms: C_18  and  C_19
REMARK    8  A    between atoms: C_19  and  N_20
REMARK    9  A    between atoms: N_23  and  C_24
REMARK                            x       y       z     vdW  Elec       q    Type
REMARK                         _______ _______ _______ _____ _____    ______ ____
ROOT
ATOM      1  N   UNL     1       2.207   7.231  18.952  0.00  0.00    +0.000 N 
ATOM      2  C   UNL     1       2.034   7.037  20.319  0.00  0.00    +0.000 A 
ATOM      3  N   UNL     1       1.304   7.931  20.899  0.00  0.00    +0.000 NA
ATOM      4  C   UNL     1       1.299   8.936  20.002  0.00  0.00    +0.000 A 
ATOM      5  C   UNL     1       0.837  10.227  20.288  0.00  0.00    +0.000 A 
ATOM      6  C   UNL     1       1.063  11.317  19.457  0.00  0.00    +0.000 A 
ATOM      7  C   UNL     1       1.617  11.004  18.202  0.00  0.00    +0.000 A 
ATOM      8  C   UNL     1       2.026   9.652  17.820  0.00  0.00    +0.000 A 
ATOM      9  C   UNL     1       1.918   8.609  18.775  0.00  0.00    +0.000 A 
ENDROOT
BRANCH   1  13
ATOM     10  C   UNL     1       3.551   3.445  17.568  0.00  0.00    +0.000 A 
ATOM     11  C   UNL     1       2.220   3.706  17.830  0.00  0.00    +0.000 A 
ATOM     12  C   UNL     1       1.809   5.007  18.091  0.00  0.00    +0.000 A 
ATOM     13  C   UNL     1       2.718   6.093  18.213  0.00  0.00    +0.000 A 
ATOM     14  C   UNL     1       4.031   5.868  17.806  0.00  0.00    +0.000 A 
ATOM     15  C   UNL     1       4.443   4.528  17.490  0.00  0.00    +0.000 A 
BRANCH  10  17
ATOM     16  C   UNL     1       3.609   1.289  18.614  0.00  0.00    +0.000 C 
ATOM     17  O   UNL     1       3.805   2.108  17.479  0.00  0.00    +0.000 OA
ENDBRANCH  10  17
ENDBRANCH   1  13
BRANCH   6  18
ATOM     18  N   UNL     1       0.855  12.551  20.059  0.00  0.00    +0.000 N 
ATOM     19  H   UNL     1       0.125  12.496  20.765  0.00  0.00    +0.000 HD
BRANCH  18  20
ATOM     20  C   UNL     1       0.918  13.920  19.572  0.00  0.00    +0.000 C 
BRANCH  20  21
ATOM     21  C   UNL     1       2.396  14.339  19.461  0.00  0.00    +0.000 A 
ATOM     22  C   UNL     1       3.116  14.636  20.628  0.00  0.00    +0.000 A 
ATOM     23  C   UNL     1       4.472  15.014  20.584  0.00  0.00    +0.000 A 
ATOM     24  C   UNL     1       5.171  15.105  19.370  0.00  0.00    +0.000 A 
ATOM     25  C   UNL     1       4.457  14.821  18.195  0.00  0.00    +0.000 A 
ATOM     26  C   UNL     1       3.086  14.454  18.239  0.00  0.00    +0.000 A 
BRANCH  24  27
ATOM     27  C   UNL     1       6.649  15.491  19.357  0.00  0.00    +0.000 C 
BRANCH  27  28
ATOM     28  N   UNL     1       7.595  14.367  19.193  0.00  0.00    +0.000 NA
ATOM     29  C   UNL     1       8.358  14.084  20.427  0.00  0.00    +0.000 C 
ATOM     30  C   UNL     1       9.384  12.937  20.238  0.00  0.00    +0.000 C 
ATOM     31  N   UNL     1      10.337  13.114  19.126  0.00  0.00    +0.000 NA
ATOM     32  C   UNL     1      11.384  14.076  19.457  0.00  0.00    +0.000 C 
ATOM     33  C   UNL     1       9.591  13.498  17.912  0.00  0.00    +0.000 C 
ATOM     34  C   UNL     1       8.559  14.642  18.102  0.00  0.00    +0.000 C 
ENDBRANCH  27  28
ENDBRANCH  24  27
ENDBRANCH  20  21
ENDBRANCH  18  20
ENDBRANCH   6  18
TORSDOF 7
ENDMDL
MODEL 6
REMARK VINA RESULT:      -7.3      3.559      6.723
REMARK  Name = 
REMARK  9 active torsions:
REMARK  status: ('A' for Active; 'I' for Inactive)
REMARK    1  A    between atoms: C_1  and  O_2
REMARK    2  A    between atoms: O_2  and  C_3
REMARK    3  A    between atoms: C_6  and  N_7
REMARK    4  A    between atoms: C_12  and  N_13
REMARK    5  A    between atoms: N_13  and  C_14
REMARK    6  A    between atoms: C_14  and  C_15
REMARK    7  A    between atoms: C_18  and  C_19
REMARK    8  A    between atoms: C_19  and  N_20
REMARK    9  A    between atoms: N_23  and  C_24
REMARK                            x       y       z     vdW  Elec       q    Type
REMARK                         _______ _______ _______ _____ _____    ______ ____
ROOT
ATOM      1  N   UNL     1       2.016   7.411  19.604  0.00  0.00    +0.000 N 
ATOM      2  C   UNL     1       1.606   7.437  20.934  0.00  0.00    +0.000 A 
ATOM      3  N   UNL     1       0.819   8.418  21.232  0.00  0.00    +0.000 NA
ATOM      4  C   UNL     1       1.001   9.267  20.203  0.00  0.00    +0.000 A 
ATOM      5  C   UNL     1       0.543  10.590  20.200  0.00  0.00    +0.000 A 
ATOM      6  C   UNL     1       0.945  11.532  19.262  0.00  0.00    +0.000 A 
ATOM      7  C   UNL     1       1.693  11.020  18.185  0.00  0.00    +0.000 A 
ATOM      8  C   UNL     1       2.114   9.622  18.096  0.00  0.00    +0.000 A 
ATOM      9  C   UNL     1       1.809   8.744  19.168  0.00  0.00    +0.000 A 
ENDROOT
BRANCH   1  13
ATOM     10  C   UNL     1       2.897   3.436  18.384  0.00  0.00    +0.000 A 
ATOM     11  C   UNL     1       2.131   4.292  17.617  0.00  0.00    +0.000 A 
ATOM     12  C   UNL     1       2.035   5.634  17.964  0.00  0.00    +0.000 A 
ATOM     13  C   UNL     1       2.605   6.165  19.152  0.00  0.00    +0.000 A 
ATOM     14  C   UNL     1       3.497   5.349  19.847  0.00  0.00    +0.000 A 
ATOM     15  C   UNL     1       3.631   3.973  19.455  0.00  0.00    +0.000 A 
BRANCH  10  17
ATOM     16  C   UNL     1       3.699   1.178  18.448  0.00  0.00    +0.000 C 
ATOM     17  O   UNL     1       2.765   2.137  17.993  0.00  0.00    +0.000 OA
ENDBRANCH  10  17
ENDBRANCH   1  13
BRANCH   6  18
ATOM     18  N   UNL     1       0.680  12.849  19.618  0.00  0.00    +0.000 N 
ATOM     19  H   UNL     1      -0.170  12.914  20.172  0.00  0.00    +0.000 HD
BRANCH  18  20
ATOM     20  C   UNL     1       0.889  14.124  18.951  0.00  0.00    +0.000 C 
BRANCH  20  21
ATOM     21  C   UNL     1       2.387  14.477  19.016  0.00  0.00    +0.000 A 
ATOM     22  C   UNL     1       3.056  14.852  17.840  0.00  0.00    +0.000 A 
ATOM     23  C   UNL     1       4.422  15.194  17.845  0.00  0.00    +0.000 A 
ATOM     24  C   UNL     1       5.179  15.185  19.026  0.00  0.00    +0.000 A 
ATOM     25  C   UNL     1       4.522  14.801  20.207  0.00  0.00    +0.000 A 
ATOM     26  C   UNL     1       3.149  14.441  20.199  0.00  0.00    +0.000 A 
BRANCH  24  27
ATOM     27  C   UNL     1       6.652  15.587  19.003  0.00  0.00    +0.000 C 
BRANCH  27  28
ATOM     28  N   UNL     1       7.615  14.468  19.087  0.00  0.00    +0.000 NA
ATOM     29  C   UNL     1       8.963  14.910  19.506  0.00  0.00    +0.000 C 
ATOM     30  C   UNL     1       9.982  13.743  19.546  0.00  0.00    +0.000 C 
ATOM     31  N   UNL     1      10.108  12.967  18.298  0.00  0.00    +0.000 NA
ATOM     32  C   UNL     1      10.880  13.685  17.288  0.00  0.00    +0.000 C 
ATOM     33  C   UNL     1       8.759  12.608  17.817  0.00  0.00    +0.000 C 
ATOM     34  C   UNL     1       7.737  13.776  17.783  0.00  0.00    +0.000 C 
ENDBRANCH  27  28
ENDBRANCH  24  27
ENDBRANCH  20  21
ENDBRANCH  18  20
ENDBRANCH   6  18
TORSDOF 7
ENDMDL
MODEL 7
REMARK VINA RESULT:      -7.3      5.285     11.403
REMARK  Name = 
REMARK  9 active torsions:
REMARK  status: ('A' for Active; 'I' for Inactive)
REMARK    1  A    between atoms: C_1  and  O_2
REMARK    2  A    between atoms: O_2  and  C_3
REMARK    3  A    between atoms: C_6  and  N_7
REMARK    4  A    between atoms: C_12  and  N_13
REMARK    5  A    between atoms: N_13  and  C_14
REMARK    6  A    between atoms: C_14  and  C_15
REMARK    7  A    between atoms: C_18  and  C_19
REMARK    8  A    between atoms: C_19  and  N_20
REMARK    9  A    between atoms: N_23  and  C_24
REMARK                            x       y       z     vdW  Elec       q    Type
REMARK                         _______ _______ _______ _____ _____    ______ ____
ROOT
ATOM      1  N   UNL     1       3.937   6.009  18.058  0.00  0.00    +0.000 N 
ATOM      2  C   UNL     1       3.926   5.470  19.340  0.00  0.00    +0.000 A 
ATOM      3  N   UNL     1       2.933   5.851  20.074  0.00  0.00    +0.000 NA
ATOM      4  C   UNL     1       2.484   6.939  19.421  0.00  0.00    +0.000 A 
ATOM      5  C   UNL     1       1.564   7.844  19.965  0.00  0.00    +0.000 A 
ATOM      6  C   UNL     1       1.296   9.086  19.405  0.00  0.00    +0.000 A 
ATOM      7  C   UNL     1       1.862   9.301  18.134  0.00  0.00    +0.000 A 
ATOM      8  C   UNL     1       2.753   8.342  17.481  0.00  0.00    +0.000 A 
ATOM      9  C   UNL     1       3.117   7.161  18.177  0.00  0.00    +0.000 A 
ENDROOT
BRANCH   1  13
ATOM     10  C   UNL     1       5.878   4.337  14.667  0.00  0.00    +0.000 A 
ATOM     11  C   UNL     1       5.755   5.701  14.851  0.00  0.00    +0.000 A 
ATOM     12  C   UNL     1       5.289   6.197  16.061  0.00  0.00    +0.000 A 
ATOM     13  C   UNL     1       4.818   5.358  17.108  0.00  0.00    +0.000 A 
ATOM     14  C   UNL     1       5.076   3.994  16.990  0.00  0.00    +0.000 A 
ATOM     15  C   UNL     1       5.605   3.488  15.753  0.00  0.00    +0.000 A 
BRANCH  10  17
ATOM     16  C   UNL     1       5.245   3.400  12.554  0.00  0.00    +0.000 C 
ATOM     17  O   UNL     1       6.208   4.019  13.383  0.00  0.00    +0.000 OA
ENDBRANCH  10  17
ENDBRANCH   1  13
BRANCH   6  18
ATOM     18  N   UNL     1       0.648   9.973  20.254  0.00  0.00    +0.000 N 
ATOM     19  H   UNL     1       1.053  10.904  20.192  0.00  0.00    +0.000 HD
BRANCH  18  20
ATOM     20  C   UNL     1       0.034   9.829  21.565  0.00  0.00    +0.000 C 
BRANCH  20  21
ATOM     21  C   UNL     1      -0.922  11.015  21.797  0.00  0.00    +0.000 A 
ATOM     22  C   UNL     1      -1.281  11.831  20.713  0.00  0.00    +0.000 A 
ATOM     23  C   UNL     1      -2.158  12.922  20.868  0.00  0.00    +0.000 A 
ATOM     24  C   UNL     1      -2.723  13.240  22.112  0.00  0.00    +0.000 A 
ATOM     25  C   UNL     1      -2.363  12.437  23.206  0.00  0.00    +0.000 A 
ATOM     26  C   UNL     1      -1.466  11.347  23.053  0.00  0.00    +0.000 A 
BRANCH  24  27
ATOM     27  C   UNL     1      -3.693  14.413  22.242  0.00  0.00    +0.000 C 
BRANCH  27  28
ATOM     28  N   UNL     1      -5.100  14.110  21.903  0.00  0.00    +0.000 NA
ATOM     29  C   UNL     1      -5.531  12.788  22.405  0.00  0.00    +0.000 C 
ATOM     30  C   UNL     1      -6.991  12.451  22.007  0.00  0.00    +0.000 C 
ATOM     31  N   UNL     1      -7.289  12.525  20.563  0.00  0.00    +0.000 NA
ATOM     32  C   UNL     1      -6.761  11.372  19.841  0.00  0.00    +0.000 C 
ATOM     33  C   UNL     1      -6.768  13.801  20.032  0.00  0.00    +0.000 C 
ATOM     34  C   UNL     1      -5.309  14.141  20.437  0.00  0.00    +0.000 C 
ENDBRANCH  27  28
ENDBRANCH  24  27
ENDBRANCH  20  21
ENDBRANCH  18  20
ENDBRANCH   6  18
TORSDOF 7
ENDMDL
MODEL 8
REMARK VINA RESULT:      -7.3      3.590      7.055
REMARK  Name = 
REMARK  9 active torsions:
REMARK  status: ('A' for Active; 'I' for Inactive)
REMARK    1  A    between atoms: C_1  and  O_2
REMARK    2  A    between atoms: O_2  and  C_3
REMARK    3  A    between atoms: C_6  and  N_7
REMARK    4  A    between atoms: C_12  and  N_13
REMARK    5  A    between atoms: N_13  and  C_14
REMARK    6  A    between atoms: C_14  and  C_15
REMARK    7  A    between atoms: C_18  and  C_19
REMARK    8  A    between atoms: C_19  and  N_20
REMARK    9  A    between atoms: N_23  and  C_24
REMARK                            x       y       z     vdW  Elec       q    Type
REMARK                         _______ _______ _______ _____ _____    ______ ____
ROOT
ATOM      1  N   UNL     1       2.542   6.730  19.137  0.00  0.00    +0.000 N 
ATOM      2  C   UNL     1       2.229   6.578  20.485  0.00  0.00    +0.000 A 
ATOM      3  N   UNL     1       1.322   7.390  20.919  0.00  0.00    +0.000 NA
ATOM      4  C   UNL     1       1.294   8.340  19.965  0.00  0.00    +0.000 A 
ATOM      5  C   UNL     1       0.635   9.567  20.113  0.00  0.00    +0.000 A 
ATOM      6  C   UNL     1       0.816  10.637  19.246  0.00  0.00    +0.000 A 
ATOM      7  C   UNL     1       1.556  10.345  18.085  0.00  0.00    +0.000 A 
ATOM      8  C   UNL     1       2.183   9.046  17.840  0.00  0.00    +0.000 A 
ATOM      9  C   UNL     1       2.097   8.044  18.841  0.00  0.00    +0.000 A 
ENDROOT
BRANCH   1  13
ATOM     10  C   UNL     1       4.884   4.139  16.716  0.00  0.00    +0.000 A 
ATOM     11  C   UNL     1       5.430   5.213  17.393  0.00  0.00    +0.000 A 
ATOM     12  C   UNL     1       4.664   5.908  18.320  0.00  0.00    +0.000 A 
ATOM     13  C   UNL     1       3.285   5.639  18.537  0.00  0.00    +0.000 A 
ATOM     14  C   UNL     1       2.771   4.473  17.974  0.00  0.00    +0.000 A 
ATOM     15  C   UNL     1       3.583   3.728  17.051  0.00  0.00    +0.000 A 
BRANCH  10  17
ATOM     16  C   UNL     1       5.911   4.425  14.569  0.00  0.00    +0.000 C 
ATOM     17  O   UNL     1       5.716   3.666  15.745  0.00  0.00    +0.000 OA
ENDBRANCH  10  17
ENDBRANCH   1  13
BRANCH   6  18
ATOM     18  N   UNL     1       0.374  11.858  19.739  0.00  0.00    +0.000 N 
ATOM     19  H   UNL     1      -0.106  12.392  19.019  0.00  0.00    +0.000 HD
BRANCH  18  20
ATOM     20  C   UNL     1       0.909  12.789  20.719  0.00  0.00    +0.000 C 
BRANCH  20  21
ATOM     21  C   UNL     1       2.081  13.560  20.082  0.00  0.00    +0.000 A 
ATOM     22  C   UNL     1       3.194  13.891  20.870  0.00  0.00    +0.000 A 
ATOM     23  C   UNL     1       4.296  14.587  20.336  0.00  0.00    +0.000 A 
ATOM     24  C   UNL     1       4.338  14.974  18.988  0.00  0.00    +0.000 A 
ATOM     25  C   UNL     1       3.225  14.657  18.193  0.00  0.00    +0.000 A 
ATOM     26  C   UNL     1       2.108  13.970  18.736  0.00  0.00    +0.000 A 
BRANCH  24  27
ATOM     27  C   UNL     1       5.560  15.703  18.432  0.00  0.00    +0.000 C 
BRANCH  27  28
ATOM     28  N   UNL     1       6.868  15.187  18.892  0.00  0.00    +0.000 NA
ATOM     29  C   UNL     1       7.831  16.269  19.189  0.00  0.00    +0.000 C 
ATOM     30  C   UNL     1       9.215  15.725  19.625  0.00  0.00    +0.000 C 
ATOM     31  N   UNL     1       9.849  14.777  18.688  0.00  0.00    +0.000 NA
ATOM     32  C   UNL     1      10.413  15.458  17.527  0.00  0.00    +0.000 C 
ATOM     33  C   UNL     1       8.860  13.750  18.304  0.00  0.00    +0.000 C 
ATOM     34  C   UNL     1       7.471  14.294  17.875  0.00  0.00    +0.000 C 
ENDBRANCH  27  28
ENDBRANCH  24  27
ENDBRANCH  20  21
ENDBRANCH  18  20
ENDBRANCH   6  18
TORSDOF 7
ENDMDL
MODEL 9
REMARK VINA RESULT:      -7.2      3.599      6.797
REMARK  Name = 
REMARK  9 active torsions:
REMARK  status: ('A' for Active; 'I' for Inactive)
REMARK    1  A    between atoms: C_1  and  O_2
REMARK    2  A    between atoms: O_2  and  C_3
REMARK    3  A    between atoms: C_6  and  N_7
REMARK    4  A    between atoms: C_12  and  N_13
REMARK    5  A    between atoms: N_13  and  C_14
REMARK    6  A    between atoms: C_14  and  C_15
REMARK    7  A    between atoms: C_18  and  C_19
REMARK    8  A    between atoms: C_19  and  N_20
REMARK    9  A    between atoms: N_23  and  C_24
REMARK                            x       y       z     vdW  Elec       q    Type
REMARK                         _______ _______ _______ _____ _____    ______ ____
ROOT
ATOM      1  N   UNL     1       2.126   7.608  19.322  0.00  0.00    +0.000 N 
ATOM      2  C   UNL     1       2.222   7.816  17.949  0.00  0.00    +0.000 A 
ATOM      3  N   UNL     1       2.151   9.055  17.588  0.00  0.00    +0.000 NA
ATOM      4  C   UNL     1       1.627   9.650  18.677  0.00  0.00    +0.000 A 
ATOM      5  C   UNL     1       1.135  10.961  18.682  0.00  0.00    +0.000 A 
ATOM      6  C   UNL     1       0.372  11.484  19.718  0.00  0.00    +0.000 A 
ATOM      7  C   UNL     1       0.291  10.673  20.866  0.00  0.00    +0.000 A 
ATOM      8  C   UNL     1       0.872   9.333  20.943  0.00  0.00    +0.000 A 
ATOM      9  C   UNL     1       1.501   8.791  19.792  0.00  0.00    +0.000 A 
ENDROOT
BRANCH   1  13
ATOM     10  C   UNL     1       3.159   3.518  19.834  0.00  0.00    +0.000 A 
ATOM     11  C   UNL     1       3.930   4.387  19.086  0.00  0.00    +0.000 A 
ATOM     12  C   UNL     1       3.657   5.749  19.110  0.00  0.00    +0.000 A 
ATOM     13  C   UNL     1       2.537   6.299  19.790  0.00  0.00    +0.000 A 
ATOM     14  C   UNL     1       1.849   5.457  20.661  0.00  0.00    +0.000 A 
ATOM     15  C   UNL     1       2.166   4.055  20.671  0.00  0.00    +0.000 A 
BRANCH  10  17
ATOM     16  C   UNL     1       3.423   1.733  18.256  0.00  0.00    +0.000 C 
ATOM     17  O   UNL     1       3.465   2.213  19.585  0.00  0.00    +0.000 OA
ENDBRANCH  10  17
ENDBRANCH   1  13
BRANCH   6  18
ATOM     18  N   UNL     1      -0.315  12.647  19.396  0.00  0.00    +0.000 N 
ATOM     19  H   UNL     1      -1.317  12.480  19.352  0.00  0.00    +0.000 HD
BRANCH  18  20
ATOM     20  C   UNL     1      -0.004  13.787  18.549  0.00  0.00    +0.000 C 
BRANCH  20  21
ATOM     21  C   UNL     1       1.398  14.309  18.915  0.00  0.00    +0.000 A 
ATOM     22  C   UNL     1       2.427  14.240  17.964  0.00  0.00    +0.000 A 
ATOM     23  C   UNL     1       3.725  14.711  18.243  0.00  0.00    +0.000 A 
ATOM     24  C   UNL     1       4.049  15.281  19.484  0.00  0.00    +0.000 A 
ATOM     25  C   UNL     1       3.029  15.346  20.447  0.00  0.00    +0.000 A 
ATOM     26  C   UNL     1       1.726  14.856  20.171  0.00  0.00    +0.000 A 
BRANCH  24  27
ATOM     27  C   UNL     1       5.458  15.809  19.747  0.00  0.00    +0.000 C 
BRANCH  27  28
ATOM     28  N   UNL     1       6.545  14.820  19.577  0.00  0.00    +0.000 NA
ATOM     29  C   UNL     1       7.493  14.820  20.712  0.00  0.00    +0.000 C 
ATOM     30  C   UNL     1       8.658  13.818  20.509  0.00  0.00    +0.000 C 
ATOM     31  N   UNL     1       9.423  13.978  19.257  0.00  0.00    +0.000 NA
ATOM     32  C   UNL     1      10.334  15.117  19.320  0.00  0.00    +0.000 C 
ATOM     33  C   UNL     1       8.478  14.083  18.128  0.00  0.00    +0.000 C 
ATOM     34  C   UNL     1       7.308  15.081  18.334  0.00  0.00    +0.000 C 
ENDBRANCH  27  28
ENDBRANCH  24  27
ENDBRANCH  20  21
ENDBRANCH  18  20
ENDBRANCH   6  18
TORSDOF 7
ENDMDL
