MODEL 1
REMARK VINA RESULT:      -8.7      0.000      0.000
REMARK  Name = 
REMARK  10 active torsions:
REMARK  status: ('A' for Active; 'I' for Inactive)
REMARK    1  A    between atoms: C_1  and  C_2
REMARK    2  A    between atoms: C_2  and  C_3
REMARK    3  A    between atoms: C_2  and  N_4
REMARK    4  A    between atoms: C_8  and  N_9
REMARK    5  A    between atoms: N_9  and  C_10
REMARK    6  A    between atoms: C_10  and  C_11
REMARK    7  A    between atoms: C_18  and  O_19
REMARK    8  A    between atoms: O_19  and  C_20
REMARK    9  A    between atoms: C_20  and  C_21
REMARK   10  A    between atoms: N_24  and  C_25
REMARK                            x       y       z     vdW  Elec       q    Type
REMARK                         _______ _______ _______ _____ _____    ______ ____
ROOT
ATOM      1  N   UNL     1       2.852   3.122  18.998  0.00  0.00    +0.000 N 
ATOM      2  C   UNL     1       3.669   2.478  18.108  0.00  0.00    +0.000 A 
ATOM      3  N   UNL     1       4.302   3.318  17.326  0.00  0.00    +0.000 NA
ATOM      4  C   UNL     1       3.879   4.574  17.712  0.00  0.00    +0.000 A 
ATOM      5  C   UNL     1       4.241   5.844  17.195  0.00  0.00    +0.000 A 
ATOM      6  C   UNL     1       3.676   6.969  17.823  0.00  0.00    +0.000 A 
ATOM      7  C   UNL     1       2.741   6.863  18.854  0.00  0.00    +0.000 A 
ATOM      8  C   UNL     1       2.362   5.607  19.340  0.00  0.00    +0.000 A 
ATOM      9  C   UNL     1       2.966   4.476  18.767  0.00  0.00    +0.000 A 
ENDROOT
BRANCH   1  11
ATOM     10  C   UNL     1       2.484   2.793  21.413  0.00  0.00    +0.000 C 
ATOM     11  C   UNL     1       2.006   2.471  19.997  0.00  0.00    +0.000 C 
ATOM     12  C   UNL     1       0.521   2.822  19.847  0.00  0.00    +0.000 C 
ENDBRANCH   1  11
BRANCH   5  13
ATOM     13  N   UNL     1       5.036   6.107  16.061  0.00  0.00    +0.000 N 
ATOM     14  H   UNL     1       5.036   7.088  15.797  0.00  0.00    +0.000 HD
BRANCH  13  15
ATOM     15  C   UNL     1       6.346   5.482  15.974  0.00  0.00    +0.000 C 
BRANCH  15  16
ATOM     16  C   UNL     1       6.514   4.920  14.577  0.00  0.00    +0.000 A 
ATOM     17  C   UNL     1       5.612   3.978  14.067  0.00  0.00    +0.000 A 
ATOM     18  C   UNL     1       5.771   3.476  12.773  0.00  0.00    +0.000 A 
ATOM     19  C   UNL     1       6.830   3.912  11.976  0.00  0.00    +0.000 A 
ATOM     20  C   UNL     1       7.728   4.856  12.466  0.00  0.00    +0.000 A 
ATOM     21  C   UNL     1       7.568   5.362  13.757  0.00  0.00    +0.000 A 
ENDBRANCH  15  16
ENDBRANCH  13  15
ENDBRANCH   5  13
BRANCH   7  22
ATOM     22  O   UNL     1       2.107   7.931  19.441  0.00  0.00    +0.000 OA
BRANCH  22  23
ATOM     23  C   UNL     1       1.503   7.673  20.712  0.00  0.00    +0.000 C 
BRANCH  23  24
ATOM     24  C   UNL     1       0.520   8.789  21.057  0.00  0.00    +0.000 C 
ATOM     25  C   UNL     1       0.847  10.047  20.245  0.00  0.00    +0.000 C 
ATOM     26  C   UNL     1      -0.089  11.195  20.615  0.00  0.00    +0.000 C 
ATOM     27  N   UNL     1      -0.028  11.485  22.053  0.00  0.00    +0.000 NA
ATOM     28  C   UNL     1      -0.917  12.601  22.379  0.00  0.00    +0.000 C 
ATOM     29  C   UNL     1      -0.377  10.307  22.859  0.00  0.00    +0.000 C 
ATOM     30  C   UNL     1       0.542   9.125  22.552  0.00  0.00    +0.000 C 
ENDBRANCH  23  24
ENDBRANCH  22  23
ENDBRANCH   7  22
TORSDOF 7
ENDMDL
MODEL 2
REMARK VINA RESULT:      -8.4      1.521      2.770
REMARK  Name = 
REMARK  10 active torsions:
REMARK  status: ('A' for Active; 'I' for Inactive)
REMARK    1  A    between atoms: C_1  and  C_2
REMARK    2  A    between atoms: C_2  and  C_3
REMARK    3  A    between atoms: C_2  and  N_4
REMARK    4  A    between atoms: C_8  and  N_9
REMARK    5  A    between atoms: N_9  and  C_10
REMARK    6  A    between atoms: C_10  and  C_11
REMARK    7  A    between atoms: C_18  and  O_19
REMARK    8  A    between atoms: O_19  and  C_20
REMARK    9  A    between atoms: C_20  and  C_21
REMARK   10  A    between atoms: N_24  and  C_25
REMARK                            x       y       z     vdW  Elec       q    Type
REMARK                         _______ _______ _______ _____ _____    ______ ____
ROOT
ATOM      1  N   UNL     1       2.832   3.331  19.093  0.00  0.00    +0.000 N 
ATOM      2  C   UNL     1       3.651   2.687  18.207  0.00  0.00    +0.000 A 
ATOM      3  N   UNL     1       4.232   3.521  17.379  0.00  0.00    +0.000 NA
ATOM      4  C   UNL     1       3.771   4.773  17.731  0.00  0.00    +0.000 A 
ATOM      5  C   UNL     1       4.072   6.036  17.160  0.00  0.00    +0.000 A 
ATOM      6  C   UNL     1       3.480   7.161  17.763  0.00  0.00    +0.000 A 
ATOM      7  C   UNL     1       2.574   7.058  18.820  0.00  0.00    +0.000 A 
ATOM      8  C   UNL     1       2.256   5.806  19.360  0.00  0.00    +0.000 A 
ATOM      9  C   UNL     1       2.889   4.679  18.812  0.00  0.00    +0.000 A 
ENDROOT
BRANCH   1  11
ATOM     10  C   UNL     1       2.382   3.247  21.515  0.00  0.00    +0.000 C 
ATOM     11  C   UNL     1       2.036   2.686  20.137  0.00  0.00    +0.000 C 
ATOM     12  C   UNL     1       0.526   2.786  19.889  0.00  0.00    +0.000 C 
ENDBRANCH   1  11
BRANCH   5  13
ATOM     13  N   UNL     1       4.829   6.287  15.998  0.00  0.00    +0.000 N 
ATOM     14  H   UNL     1       4.776   7.255  15.694  0.00  0.00    +0.000 HD
BRANCH  13  15
ATOM     15  C   UNL     1       6.164   5.720  15.905  0.00  0.00    +0.000 C 
BRANCH  15  16
ATOM     16  C   UNL     1       6.998   6.278  17.040  0.00  0.00    +0.000 A 
ATOM     17  C   UNL     1       7.367   7.628  17.065  0.00  0.00    +0.000 A 
ATOM     18  C   UNL     1       8.127   8.134  18.122  0.00  0.00    +0.000 A 
ATOM     19  C   UNL     1       8.523   7.297  19.165  0.00  0.00    +0.000 A 
ATOM     20  C   UNL     1       8.156   5.953  19.158  0.00  0.00    +0.000 A 
ATOM     21  C   UNL     1       7.392   5.449  18.105  0.00  0.00    +0.000 A 
ENDBRANCH  15  16
ENDBRANCH  13  15
ENDBRANCH   5  13
BRANCH   7  22
ATOM     22  O   UNL     1       1.915   8.122  19.386  0.00  0.00    +0.000 OA
BRANCH  22  23
ATOM     23  C   UNL     1       1.457   7.927  20.728  0.00  0.00    +0.000 C 
BRANCH  23  24
ATOM     24  C   UNL     1       0.446   9.011  21.094  0.00  0.00    +0.000 C 
ATOM     25  C   UNL     1       0.879  10.357  20.502  0.00  0.00    +0.000 C 
ATOM     26  C   UNL     1      -0.088  11.467  20.903  0.00  0.00    +0.000 C 
ATOM     27  N   UNL     1      -0.205  11.566  22.363  0.00  0.00    +0.000 NA
ATOM     28  C   UNL     1      -1.121  12.649  22.722  0.00  0.00    +0.000 C 
ATOM     29  C   UNL     1      -0.659  10.300  22.957  0.00  0.00    +0.000 C 
ATOM     30  C   UNL     1       0.283   9.148  22.612  0.00  0.00    +0.000 C 
ENDBRANCH  23  24
ENDBRANCH  22  23
ENDBRANCH   7  22
TORSDOF 7
ENDMDL
MODEL 3
REMARK VINA RESULT:      -8.3      1.116      1.738
REMARK  Name = 
REMARK  10 active torsions:
REMARK  status: ('A' for Active; 'I' for Inactive)
REMARK    1  A    between atoms: C_1  and  C_2
REMARK    2  A    between atoms: C_2  and  C_3
REMARK    3  A    between atoms: C_2  and  N_4
REMARK    4  A    between atoms: C_8  and  N_9
REMARK    5  A    between atoms: N_9  and  C_10
REMARK    6  A    between atoms: C_10  and  C_11
REMARK    7  A    between atoms: C_18  and  O_19
REMARK    8  A    between atoms: O_19  and  C_20
REMARK    9  A    between atoms: C_20  and  C_21
REMARK   10  A    between atoms: N_24  and  C_25
REMARK                            x       y       z     vdW  Elec       q    Type
REMARK                         _______ _______ _______ _____ _____    ______ ____
ROOT
ATOM      1  N   UNL     1       3.067   3.826  19.678  0.00  0.00    +0.000 N 
ATOM      2  C   UNL     1       4.257   3.151  19.651  0.00  0.00    +0.000 A 
ATOM      3  N   UNL     1       5.169   3.790  18.958  0.00  0.00    +0.000 NA
ATOM      4  C   UNL     1       4.551   4.936  18.501  0.00  0.00    +0.000 A 
ATOM      5  C   UNL     1       5.073   5.981  17.698  0.00  0.00    +0.000 A 
ATOM      6  C   UNL     1       4.213   7.060  17.421  0.00  0.00    +0.000 A 
ATOM      7  C   UNL     1       2.881   7.084  17.839  0.00  0.00    +0.000 A 
ATOM      8  C   UNL     1       2.360   6.035  18.606  0.00  0.00    +0.000 A 
ATOM      9  C   UNL     1       3.225   4.982  18.945  0.00  0.00    +0.000 A 
ENDROOT
BRANCH   1  11
ATOM     10  C   UNL     1       0.999   2.508  19.432  0.00  0.00    +0.000 C 
ATOM     11  C   UNL     1       1.852   3.377  20.356  0.00  0.00    +0.000 C 
ATOM     12  C   UNL     1       2.135   2.635  21.668  0.00  0.00    +0.000 C 
ENDBRANCH   1  11
BRANCH   5  13
ATOM     13  N   UNL     1       6.333   6.022  17.066  0.00  0.00    +0.000 N 
ATOM     14  H   UNL     1       6.970   6.685  17.499  0.00  0.00    +0.000 HD
BRANCH  13  15
ATOM     15  C   UNL     1       6.963   4.765  16.697  0.00  0.00    +0.000 C 
BRANCH  15  16
ATOM     16  C   UNL     1       6.857   4.603  15.195  0.00  0.00    +0.000 A 
ATOM     17  C   UNL     1       7.742   5.264  14.335  0.00  0.00    +0.000 A 
ATOM     18  C   UNL     1       7.642   5.097  12.952  0.00  0.00    +0.000 A 
ATOM     19  C   UNL     1       6.658   4.267  12.415  0.00  0.00    +0.000 A 
ATOM     20  C   UNL     1       5.776   3.596  13.258  0.00  0.00    +0.000 A 
ATOM     21  C   UNL     1       5.879   3.757  14.640  0.00  0.00    +0.000 A 
ENDBRANCH  15  16
ENDBRANCH  13  15
ENDBRANCH   5  13
BRANCH   7  22
ATOM     22  O   UNL     1       1.986   8.078  17.526  0.00  0.00    +0.000 OA
BRANCH  22  23
ATOM     23  C   UNL     1       2.177   9.323  18.207  0.00  0.00    +0.000 C 
BRANCH  23  24
ATOM     24  C   UNL     1       1.050   9.542  19.213  0.00  0.00    +0.000 C 
ATOM     25  C   UNL     1       0.927  11.033  19.548  0.00  0.00    +0.000 C 
ATOM     26  C   UNL     1      -0.157  11.270  20.596  0.00  0.00    +0.000 C 
ATOM     27  N   UNL     1       0.105  10.493  21.814  0.00  0.00    +0.000 NA
ATOM     28  C   UNL     1      -0.936  10.752  22.809  0.00  0.00    +0.000 C 
ATOM     29  C   UNL     1       0.187   9.053  21.530  0.00  0.00    +0.000 C 
ATOM     30  C   UNL     1       1.275   8.744  20.502  0.00  0.00    +0.000 C 
ENDBRANCH  23  24
ENDBRANCH  22  23
ENDBRANCH   7  22
TORSDOF 7
ENDMDL
MODEL 4
REMARK VINA RESULT:      -8.3      0.961      1.356
REMARK  Name = 
REMARK  10 active torsions:
REMARK  status: ('A' for Active; 'I' for Inactive)
REMARK    1  A    between atoms: C_1  and  C_2
REMARK    2  A    between atoms: C_2  and  C_3
REMARK    3  A    between atoms: C_2  and  N_4
REMARK    4  A    between atoms: C_8  and  N_9
REMARK    5  A    between atoms: N_9  and  C_10
REMARK    6  A    between atoms: C_10  and  C_11
REMARK    7  A    between atoms: C_18  and  O_19
REMARK    8  A    between atoms: O_19  and  C_20
REMARK    9  A    between atoms: C_20  and  C_21
REMARK   10  A    between atoms: N_24  and  C_25
REMARK                            x       y       z     vdW  Elec       q    Type
REMARK                         _______ _______ _______ _____ _____    ______ ____
ROOT
ATOM      1  N   UNL     1       3.025   3.942  18.982  0.00  0.00    +0.000 N 
ATOM      2  C   UNL     1       4.200   3.292  18.719  0.00  0.00    +0.000 A 
ATOM      3  N   UNL     1       5.030   4.037  18.031  0.00  0.00    +0.000 NA
ATOM      4  C   UNL     1       4.372   5.232  17.824  0.00  0.00    +0.000 A 
ATOM      5  C   UNL     1       4.806   6.391  17.132  0.00  0.00    +0.000 A 
ATOM      6  C   UNL     1       3.926   7.489  17.120  0.00  0.00    +0.000 A 
ATOM      7  C   UNL     1       2.651   7.437  17.686  0.00  0.00    +0.000 A 
ATOM      8  C   UNL     1       2.214   6.279  18.341  0.00  0.00    +0.000 A 
ATOM      9  C   UNL     1       3.105   5.197  18.417  0.00  0.00    +0.000 A 
ENDROOT
BRANCH   1  11
ATOM     10  C   UNL     1       1.359   2.127  19.032  0.00  0.00    +0.000 C 
ATOM     11  C   UNL     1       1.893   3.383  19.719  0.00  0.00    +0.000 C 
ATOM     12  C   UNL     1       2.219   3.085  21.187  0.00  0.00    +0.000 C 
ENDBRANCH   1  11
BRANCH   5  13
ATOM     13  N   UNL     1       5.985   6.540  16.374  0.00  0.00    +0.000 N 
ATOM     14  H   UNL     1       6.468   7.413  16.564  0.00  0.00    +0.000 HD
BRANCH  13  15
ATOM     15  C   UNL     1       6.875   5.397  16.249  0.00  0.00    +0.000 C 
BRANCH  15  16
ATOM     16  C   UNL     1       6.819   4.904  14.818  0.00  0.00    +0.000 A 
ATOM     17  C   UNL     1       5.851   3.977  14.414  0.00  0.00    +0.000 A 
ATOM     18  C   UNL     1       5.802   3.538  13.089  0.00  0.00    +0.000 A 
ATOM     19  C   UNL     1       6.717   4.023  12.155  0.00  0.00    +0.000 A 
ATOM     20  C   UNL     1       7.679   4.953  12.540  0.00  0.00    +0.000 A 
ATOM     21  C   UNL     1       7.726   5.396  13.862  0.00  0.00    +0.000 A 
ENDBRANCH  15  16
ENDBRANCH  13  15
ENDBRANCH   5  13
BRANCH   7  22
ATOM     22  O   UNL     1       1.732   8.456  17.629  0.00  0.00    +0.000 OA
BRANCH  22  23
ATOM     23  C   UNL     1       2.013   9.592  18.454  0.00  0.00    +0.000 C 
BRANCH  23  24
ATOM     24  C   UNL     1       0.893   9.781  19.475  0.00  0.00    +0.000 C 
ATOM     25  C   UNL     1       0.777  11.260  19.859  0.00  0.00    +0.000 C 
ATOM     26  C   UNL     1      -0.300  11.466  20.921  0.00  0.00    +0.000 C 
ATOM     27  N   UNL     1      -0.032  10.649  22.111  0.00  0.00    +0.000 NA
ATOM     28  C   UNL     1      -1.065  10.879  23.122  0.00  0.00    +0.000 C 
ATOM     29  C   UNL     1       0.045   9.219  21.781  0.00  0.00    +0.000 C 
ATOM     30  C   UNL     1       1.125   8.942  20.736  0.00  0.00    +0.000 C 
ENDBRANCH  23  24
ENDBRANCH  22  23
ENDBRANCH   7  22
TORSDOF 7
ENDMDL
MODEL 5
REMARK VINA RESULT:      -8.2      2.191      3.245
REMARK  Name = 
REMARK  10 active torsions:
REMARK  status: ('A' for Active; 'I' for Inactive)
REMARK    1  A    between atoms: C_1  and  C_2
REMARK    2  A    between atoms: C_2  and  C_3
REMARK    3  A    between atoms: C_2  and  N_4
REMARK    4  A    between atoms: C_8  and  N_9
REMARK    5  A    between atoms: N_9  and  C_10
REMARK    6  A    between atoms: C_10  and  C_11
REMARK    7  A    between atoms: C_18  and  O_19
REMARK    8  A    between atoms: O_19  and  C_20
REMARK    9  A    between atoms: C_20  and  C_21
REMARK   10  A    between atoms: N_24  and  C_25
REMARK                            x       y       z     vdW  Elec       q    Type
REMARK                         _______ _______ _______ _____ _____    ______ ____
ROOT
ATOM      1  N   UNL     1       2.709   2.933  19.096  0.00  0.00    +0.000 N 
ATOM      2  C   UNL     1       3.418   2.098  18.276  0.00  0.00    +0.000 A 
ATOM      3  N   UNL     1       4.099   2.759  17.372  0.00  0.00    +0.000 NA
ATOM      4  C   UNL     1       3.823   4.092  17.601  0.00  0.00    +0.000 A 
ATOM      5  C   UNL     1       4.290   5.239  16.912  0.00  0.00    +0.000 A 
ATOM      6  C   UNL     1       3.869   6.489  17.403  0.00  0.00    +0.000 A 
ATOM      7  C   UNL     1       2.973   6.616  18.465  0.00  0.00    +0.000 A 
ATOM      8  C   UNL     1       2.490   5.479  19.123  0.00  0.00    +0.000 A 
ATOM      9  C   UNL     1       2.951   4.227  18.686  0.00  0.00    +0.000 A 
ENDROOT
BRANCH   1  11
ATOM     10  C   UNL     1       2.501   2.791  21.548  0.00  0.00    +0.000 C 
ATOM     11  C   UNL     1       1.845   2.509  20.197  0.00  0.00    +0.000 C 
ATOM     12  C   UNL     1       0.449   3.141  20.143  0.00  0.00    +0.000 C 
ENDBRANCH   1  11
BRANCH   5  13
ATOM     13  N   UNL     1       5.058   5.270  15.730  0.00  0.00    +0.000 N 
ATOM     14  H   UNL     1       4.895   6.105  15.175  0.00  0.00    +0.000 HD
BRANCH  13  15
ATOM     15  C   UNL     1       6.458   4.884  15.805  0.00  0.00    +0.000 C 
BRANCH  15  16
ATOM     16  C   UNL     1       7.112   5.679  16.917  0.00  0.00    +0.000 A 
ATOM     17  C   UNL     1       7.304   7.060  16.797  0.00  0.00    +0.000 A 
ATOM     18  C   UNL     1       7.898   7.784  17.833  0.00  0.00    +0.000 A 
ATOM     19  C   UNL     1       8.303   7.136  19.000  0.00  0.00    +0.000 A 
ATOM     20  C   UNL     1       8.110   5.764  19.138  0.00  0.00    +0.000 A 
ATOM     21  C   UNL     1       7.511   5.040  18.105  0.00  0.00    +0.000 A 
ENDBRANCH  15  16
ENDBRANCH  13  15
ENDBRANCH   5  13
BRANCH   7  22
ATOM     22  O   UNL     1       2.476   7.811  18.926  0.00  0.00    +0.000 OA
BRANCH  22  23
ATOM     23  C   UNL     1       1.798   8.616  17.956  0.00  0.00    +0.000 C 
BRANCH  23  24
ATOM     24  C   UNL     1       1.235   9.869  18.624  0.00  0.00    +0.000 C 
ATOM     25  C   UNL     1      -0.227  10.073  18.212  0.00  0.00    +0.000 C 
ATOM     26  C   UNL     1      -0.794  11.351  18.824  0.00  0.00    +0.000 C 
ATOM     27  N   UNL     1       0.010  12.520  18.447  0.00  0.00    +0.000 NA
ATOM     28  C   UNL     1      -0.564  13.734  19.028  0.00  0.00    +0.000 C 
ATOM     29  C   UNL     1       1.411  12.372  18.866  0.00  0.00    +0.000 C 
ATOM     30  C   UNL     1       2.047  11.118  18.266  0.00  0.00    +0.000 C 
ENDBRANCH  23  24
ENDBRANCH  22  23
ENDBRANCH   7  22
TORSDOF 7
ENDMDL
MODEL 6
REMARK VINA RESULT:      -8.2      0.983      1.554
REMARK  Name = 
REMARK  10 active torsions:
REMARK  status: ('A' for Active; 'I' for Inactive)
REMARK    1  A    between atoms: C_1  and  C_2
REMARK    2  A    between atoms: C_2  and  C_3
REMARK    3  A    between atoms: C_2  and  N_4
REMARK    4  A    between atoms: C_8  and  N_9
REMARK    5  A    between atoms: N_9  and  C_10
REMARK    6  A    between atoms: C_10  and  C_11
REMARK    7  A    between atoms: C_18  and  O_19
REMARK    8  A    between atoms: O_19  and  C_20
REMARK    9  A    between atoms: C_20  and  C_21
REMARK   10  A    between atoms: N_24  and  C_25
REMARK                            x       y       z     vdW  Elec       q    Type
REMARK                         _______ _______ _______ _____ _____    ______ ____
ROOT
ATOM      1  N   UNL     1       3.017   3.335  18.814  0.00  0.00    +0.000 N 
ATOM      2  C   UNL     1       3.921   2.677  18.026  0.00  0.00    +0.000 A 
ATOM      3  N   UNL     1       4.596   3.499  17.260  0.00  0.00    +0.000 NA
ATOM      4  C   UNL     1       4.111   4.758  17.549  0.00  0.00    +0.000 A 
ATOM      5  C   UNL     1       4.482   6.013  17.004  0.00  0.00    +0.000 A 
ATOM      6  C   UNL     1       3.838   7.148  17.530  0.00  0.00    +0.000 A 
ATOM      7  C   UNL     1       2.822   7.061  18.484  0.00  0.00    +0.000 A 
ATOM      8  C   UNL     1       2.437   5.817  18.996  0.00  0.00    +0.000 A 
ATOM      9  C   UNL     1       3.115   4.680  18.529  0.00  0.00    +0.000 A 
ENDROOT
BRANCH   1  11
ATOM     10  C   UNL     1       2.357   3.222  21.186  0.00  0.00    +0.000 C 
ATOM     11  C   UNL     1       2.107   2.706  19.770  0.00  0.00    +0.000 C 
ATOM     12  C   UNL     1       0.630   2.878  19.397  0.00  0.00    +0.000 C 
ENDBRANCH   1  11
BRANCH   5  13
ATOM     13  N   UNL     1       5.363   6.248  15.929  0.00  0.00    +0.000 N 
ATOM     14  H   UNL     1       5.522   7.237  15.758  0.00  0.00    +0.000 HD
BRANCH  13  15
ATOM     15  C   UNL     1       6.566   5.439  15.830  0.00  0.00    +0.000 C 
BRANCH  15  16
ATOM     16  C   UNL     1       6.659   4.893  14.420  0.00  0.00    +0.000 A 
ATOM     17  C   UNL     1       7.674   5.313  13.552  0.00  0.00    +0.000 A 
ATOM     18  C   UNL     1       7.756   4.795  12.258  0.00  0.00    +0.000 A 
ATOM     19  C   UNL     1       6.828   3.850  11.820  0.00  0.00    +0.000 A 
ATOM     20  C   UNL     1       5.819   3.415  12.676  0.00  0.00    +0.000 A 
ATOM     21  C   UNL     1       5.739   3.929  13.971  0.00  0.00    +0.000 A 
ENDBRANCH  15  16
ENDBRANCH  13  15
ENDBRANCH   5  13
BRANCH   7  22
ATOM     22  O   UNL     1       2.114   8.136  18.966  0.00  0.00    +0.000 OA
BRANCH  22  23
ATOM     23  C   UNL     1       1.525   8.985  17.976  0.00  0.00    +0.000 C 
BRANCH  23  24
ATOM     24  C   UNL     1       0.829  10.164  18.652  0.00  0.00    +0.000 C 
ATOM     25  C   UNL     1       1.733  11.401  18.614  0.00  0.00    +0.000 C 
ATOM     26  C   UNL     1       1.080  12.578  19.334  0.00  0.00    +0.000 C 
ATOM     27  N   UNL     1       0.748  12.231  20.722  0.00  0.00    +0.000 NA
ATOM     28  C   UNL     1       0.142  13.380  21.396  0.00  0.00    +0.000 C 
ATOM     29  C   UNL     1      -0.152  11.071  20.790  0.00  0.00    +0.000 C 
ATOM     30  C   UNL     1       0.456   9.848  20.105  0.00  0.00    +0.000 C 
ENDBRANCH  23  24
ENDBRANCH  22  23
ENDBRANCH   7  22
TORSDOF 7
ENDMDL
MODEL 7
REMARK VINA RESULT:      -8.2      1.738      2.148
REMARK  Name = 
REMARK  10 active torsions:
REMARK  status: ('A' for Active; 'I' for Inactive)
REMARK    1  A    between atoms: C_1  and  C_2
REMARK    2  A    between atoms: C_2  and  C_3
REMARK    3  A    between atoms: C_2  and  N_4
REMARK    4  A    between atoms: C_8  and  N_9
REMARK    5  A    between atoms: N_9  and  C_10
REMARK    6  A    between atoms: C_10  and  C_11
REMARK    7  A    between atoms: C_18  and  O_19
REMARK    8  A    between atoms: O_19  and  C_20
REMARK    9  A    between atoms: C_20  and  C_21
REMARK   10  A    between atoms: N_24  and  C_25
REMARK                            x       y       z     vdW  Elec       q    Type
REMARK                         _______ _______ _______ _____ _____    ______ ____
ROOT
ATOM      1  N   UNL     1       2.616   4.122  18.559  0.00  0.00    +0.000 N 
ATOM      2  C   UNL     1       3.608   3.249  18.202  0.00  0.00    +0.000 A 
ATOM      3  N   UNL     1       4.609   3.858  17.614  0.00  0.00    +0.000 NA
ATOM      4  C   UNL     1       4.260   5.192  17.575  0.00  0.00    +0.000 A 
ATOM      5  C   UNL     1       4.976   6.295  17.042  0.00  0.00    +0.000 A 
ATOM      6  C   UNL     1       4.384   7.563  17.184  0.00  0.00    +0.000 A 
ATOM      7  C   UNL     1       3.119   7.744  17.747  0.00  0.00    +0.000 A 
ATOM      8  C   UNL     1       2.403   6.649  18.243  0.00  0.00    +0.000 A 
ATOM      9  C   UNL     1       3.008   5.384  18.167  0.00  0.00    +0.000 A 
ENDROOT
BRANCH   1  11
ATOM     10  C   UNL     1       0.874   2.389  18.753  0.00  0.00    +0.000 C 
ATOM     11  C   UNL     1       1.365   3.758  19.222  0.00  0.00    +0.000 C 
ATOM     12  C   UNL     1       1.465   3.789  20.752  0.00  0.00    +0.000 C 
ENDBRANCH   1  11
BRANCH   5  13
ATOM     13  N   UNL     1       6.176   6.255  16.303  0.00  0.00    +0.000 N 
ATOM     14  H   UNL     1       6.820   6.998  16.556  0.00  0.00    +0.000 HD
BRANCH  13  15
ATOM     15  C   UNL     1       6.821   4.968  16.100  0.00  0.00    +0.000 C 
BRANCH  15  16
ATOM     16  C   UNL     1       6.820   4.663  14.617  0.00  0.00    +0.000 A 
ATOM     17  C   UNL     1       7.712   5.303  13.749  0.00  0.00    +0.000 A 
ATOM     18  C   UNL     1       7.709   5.005  12.385  0.00  0.00    +0.000 A 
ATOM     19  C   UNL     1       6.817   4.063  11.874  0.00  0.00    +0.000 A 
ATOM     20  C   UNL     1       5.930   3.410  12.726  0.00  0.00    +0.000 A 
ATOM     21  C   UNL     1       5.935   3.703  14.091  0.00  0.00    +0.000 A 
ENDBRANCH  15  16
ENDBRANCH  13  15
ENDBRANCH   5  13
BRANCH   7  22
ATOM     22  O   UNL     1       2.473   8.952  17.835  0.00  0.00    +0.000 OA
BRANCH  22  23
ATOM     23  C   UNL     1       1.043   8.892  17.847  0.00  0.00    +0.000 C 
BRANCH  23  24
ATOM     24  C   UNL     1       0.486   9.969  18.775  0.00  0.00    +0.000 C 
ATOM     25  C   UNL     1      -0.937  10.346  18.349  0.00  0.00    +0.000 C 
ATOM     26  C   UNL     1      -1.493  11.462  19.229  0.00  0.00    +0.000 C 
ATOM     27  N   UNL     1      -0.622  12.643  19.200  0.00  0.00    +0.000 NA
ATOM     28  C   UNL     1      -1.187  13.705  20.035  0.00  0.00    +0.000 C 
ATOM     29  C   UNL     1       0.742  12.321  19.644  0.00  0.00    +0.000 C 
ATOM     30  C   UNL     1       1.367  11.223  18.785  0.00  0.00    +0.000 C 
ENDBRANCH  23  24
ENDBRANCH  22  23
ENDBRANCH   7  22
TORSDOF 7
ENDMDL
MODEL 8
REMARK VINA RESULT:      -8.2      1.422      1.952
REMARK  Name = 
REMARK  10 active torsions:
REMARK  status: ('A' for Active; 'I' for Inactive)
REMARK    1  A    between atoms: C_1  and  C_2
REMARK    2  A    between atoms: C_2  and  C_3
REMARK    3  A    between atoms: C_2  and  N_4
REMARK    4  A    between atoms: C_8  and  N_9
REMARK    5  A    between atoms: N_9  and  C_10
REMARK    6  A    between atoms: C_10  and  C_11
REMARK    7  A    between atoms: C_18  and  O_19
REMARK    8  A    between atoms: O_19  and  C_20
REMARK    9  A    between atoms: C_20  and  C_21
REMARK   10  A    between atoms: N_24  and  C_25
REMARK                            x       y       z     vdW  Elec       q    Type
REMARK                         _______ _______ _______ _____ _____    ______ ____
ROOT
ATOM      1  N   UNL     1       3.005   4.085  19.824  0.00  0.00    +0.000 N 
ATOM      2  C   UNL     1       3.847   3.107  19.368  0.00  0.00    +0.000 A 
ATOM      3  N   UNL     1       4.622   3.538  18.403  0.00  0.00    +0.000 NA
ATOM      4  C   UNL     1       4.273   4.858  18.207  0.00  0.00    +0.000 A 
ATOM      5  C   UNL     1       4.790   5.799  17.281  0.00  0.00    +0.000 A 
ATOM      6  C   UNL     1       4.264   7.102  17.340  0.00  0.00    +0.000 A 
ATOM      7  C   UNL     1       3.227   7.456  18.205  0.00  0.00    +0.000 A 
ATOM      8  C   UNL     1       2.697   6.515  19.096  0.00  0.00    +0.000 A 
ATOM      9  C   UNL     1       3.256   5.227  19.094  0.00  0.00    +0.000 A 
ENDROOT
BRANCH   1  11
ATOM     10  C   UNL     1       0.608   3.770  20.304  0.00  0.00    +0.000 C 
ATOM     11  C   UNL     1       2.013   3.923  20.886  0.00  0.00    +0.000 C 
ATOM     12  C   UNL     1       2.327   2.754  21.828  0.00  0.00    +0.000 C 
ENDBRANCH   1  11
BRANCH   5  13
ATOM     13  N   UNL     1       5.712   5.554  16.242  0.00  0.00    +0.000 N 
ATOM     14  H   UNL     1       6.598   6.029  16.381  0.00  0.00    +0.000 HD
BRANCH  13  15
ATOM     15  C   UNL     1       5.851   4.194  15.748  0.00  0.00    +0.000 C 
BRANCH  15  16
ATOM     16  C   UNL     1       6.349   4.255  14.319  0.00  0.00    +0.000 A 
ATOM     17  C   UNL     1       5.760   3.475  13.317  0.00  0.00    +0.000 A 
ATOM     18  C   UNL     1       6.221   3.549  12.001  0.00  0.00    +0.000 A 
ATOM     19  C   UNL     1       7.272   4.403  11.672  0.00  0.00    +0.000 A 
ATOM     20  C   UNL     1       7.862   5.193  12.656  0.00  0.00    +0.000 A 
ATOM     21  C   UNL     1       7.399   5.124  13.970  0.00  0.00    +0.000 A 
ENDBRANCH  15  16
ENDBRANCH  13  15
ENDBRANCH   5  13
BRANCH   7  22
ATOM     22  O   UNL     1       2.632   8.693  18.241  0.00  0.00    +0.000 OA
BRANCH  22  23
ATOM     23  C   UNL     1       1.310   8.763  17.699  0.00  0.00    +0.000 C 
BRANCH  23  24
ATOM     24  C   UNL     1       0.612  10.028  18.193  0.00  0.00    +0.000 C 
ATOM     25  C   UNL     1       0.840  10.200  19.699  0.00  0.00    +0.000 C 
ATOM     26  C   UNL     1       0.104  11.429  20.225  0.00  0.00    +0.000 C 
ATOM     27  N   UNL     1      -1.333  11.352  19.932  0.00  0.00    +0.000 NA
ATOM     28  C   UNL     1      -2.019  12.531  20.464  0.00  0.00    +0.000 C 
ATOM     29  C   UNL     1      -1.586  11.227  18.489  0.00  0.00    +0.000 C 
ATOM     30  C   UNL     1      -0.893   9.998  17.903  0.00  0.00    +0.000 C 
ENDBRANCH  23  24
ENDBRANCH  22  23
ENDBRANCH   7  22
TORSDOF 7
ENDMDL
MODEL 9
REMARK VINA RESULT:      -8.2      1.131      1.843
REMARK  Name = 
REMARK  10 active torsions:
REMARK  status: ('A' for Active; 'I' for Inactive)
REMARK    1  A    between atoms: C_1  and  C_2
REMARK    2  A    between atoms: C_2  and  C_3
REMARK    3  A    between atoms: C_2  and  N_4
REMARK    4  A    between atoms: C_8  and  N_9
REMARK    5  A    between atoms: N_9  and  C_10
REMARK    6  A    between atoms: C_10  and  C_11
REMARK    7  A    between atoms: C_18  and  O_19
REMARK    8  A    between atoms: O_19  and  C_20
REMARK    9  A    between atoms: C_20  and  C_21
REMARK   10  A    between atoms: N_24  and  C_25
REMARK                            x       y       z     vdW  Elec       q    Type
REMARK                         _______ _______ _______ _____ _____    ______ ____
ROOT
ATOM      1  N   UNL     1       2.857   3.302  19.272  0.00  0.00    +0.000 N 
ATOM      2  C   UNL     1       3.751   2.553  18.556  0.00  0.00    +0.000 A 
ATOM      3  N   UNL     1       4.446   3.284  17.719  0.00  0.00    +0.000 NA
ATOM      4  C   UNL     1       3.985   4.574  17.884  0.00  0.00    +0.000 A 
ATOM      5  C   UNL     1       4.385   5.764  17.223  0.00  0.00    +0.000 A 
ATOM      6  C   UNL     1       3.762   6.957  17.634  0.00  0.00    +0.000 A 
ATOM      7  C   UNL     1       2.741   6.983  18.586  0.00  0.00    +0.000 A 
ATOM      8  C   UNL     1       2.328   5.801  19.212  0.00  0.00    +0.000 A 
ATOM      9  C   UNL     1       2.985   4.611  18.860  0.00  0.00    +0.000 A 
ENDROOT
BRANCH   1  11
ATOM     10  C   UNL     1       2.238   3.369  21.656  0.00  0.00    +0.000 C 
ATOM     11  C   UNL     1       1.930   2.785  20.278  0.00  0.00    +0.000 C 
ATOM     12  C   UNL     1       0.459   3.023  19.918  0.00  0.00    +0.000 C 
ENDBRANCH   1  11
BRANCH   5  13
ATOM     13  N   UNL     1       5.275   5.877  16.136  0.00  0.00    +0.000 N 
ATOM     14  H   UNL     1       5.579   6.832  15.972  0.00  0.00    +0.000 HD
BRANCH  13  15
ATOM     15  C   UNL     1       6.341   4.897  16.009  0.00  0.00    +0.000 C 
BRANCH  15  16
ATOM     16  C   UNL     1       6.615   4.679  14.535  0.00  0.00    +0.000 A 
ATOM     17  C   UNL     1       7.564   5.453  13.857  0.00  0.00    +0.000 A 
ATOM     18  C   UNL     1       7.816   5.235  12.501  0.00  0.00    +0.000 A 
ATOM     19  C   UNL     1       7.125   4.241  11.810  0.00  0.00    +0.000 A 
ATOM     20  C   UNL     1       6.184   3.456  12.473  0.00  0.00    +0.000 A 
ATOM     21  C   UNL     1       5.935   3.670  13.829  0.00  0.00    +0.000 A 
ENDBRANCH  15  16
ENDBRANCH  13  15
ENDBRANCH   5  13
BRANCH   7  22
ATOM     22  O   UNL     1       2.054   8.112  18.958  0.00  0.00    +0.000 OA
BRANCH  22  23
ATOM     23  C   UNL     1       1.702   9.003  17.896  0.00  0.00    +0.000 C 
BRANCH  23  24
ATOM     24  C   UNL     1       0.930  10.197  18.453  0.00  0.00    +0.000 C 
ATOM     25  C   UNL     1       0.918  10.146  19.985  0.00  0.00    +0.000 C 
ATOM     26  C   UNL     1       0.103  11.300  20.564  0.00  0.00    +0.000 C 
ATOM     27  N   UNL     1      -1.269  11.292  20.043  0.00  0.00    +0.000 NA
ATOM     28  C   UNL     1      -2.035  12.394  20.627  0.00  0.00    +0.000 C 
ATOM     29  C   UNL     1      -1.292  11.381  18.576  0.00  0.00    +0.000 C 
ATOM     30  C   UNL     1      -0.511  10.237  17.932  0.00  0.00    +0.000 C 
ENDBRANCH  23  24
ENDBRANCH  22  23
ENDBRANCH   7  22
TORSDOF 7
ENDMDL
