MODEL 1
REMARK VINA RESULT:      -8.5      0.000      0.000
REMARK  Name = 
REMARK  4 active torsions:
REMARK  status: ('A' for Active; 'I' for Inactive)
REMARK    1  A    between atoms: C_2  and  C_4
REMARK    2  A    between atoms: C_7  and  C_8
REMARK    3  A    between atoms: C_10  and  C_11
REMARK    4  A    between atoms: C_21  and  N_22
REMARK                            x       y       z     vdW  Elec       q    Type
REMARK                         _______ _______ _______ _____ _____    ______ ____
ROOT
ATOM      1  C   UNL     1       3.455   5.499  18.921  0.00  0.00    +0.000 A 
ATOM      2  C   UNL     1       2.822   6.748  19.113  0.00  0.00    +0.000 A 
ATOM      3  C   UNL     1       1.944   7.005  20.177  0.00  0.00    +0.000 A 
ATOM      4  C   UNL     1       1.745   5.935  21.042  0.00  0.00    +0.000 A 
ATOM      5  N   UNL     1       2.335   4.721  20.926  0.00  0.00    +0.000 NA
ATOM      6  C   UNL     1       3.170   4.520  19.888  0.00  0.00    +0.000 A 
ENDROOT
BRANCH   3   7
ATOM      7  C   UNL     1       1.271   8.312  20.345  0.00  0.00    +0.000 A 
ATOM      8  C   UNL     1       1.243   9.270  19.310  0.00  0.00    +0.000 A 
ATOM      9  C   UNL     1       0.612  10.507  19.478  0.00  0.00    +0.000 A 
ATOM     10  C   UNL     1      -0.017  10.806  20.680  0.00  0.00    +0.000 A 
ATOM     11  F   UNL     1      -0.620  11.996  20.818  0.00  0.00    +0.000 F 
ATOM     12  C   UNL     1      -0.017   9.882  21.717  0.00  0.00    +0.000 A 
ATOM     13 CL   UNL     1      -0.805  10.229  23.208  0.00  0.00    +0.000 Cl
ATOM     14  C   UNL     1       0.626   8.652  21.553  0.00  0.00    +0.000 A 
ENDBRANCH   3   7
BRANCH   1  18
ATOM     15  C   UNL     1       6.032   4.957  15.480  0.00  0.00    +0.000 A 
ATOM     16  C   UNL     1       6.173   6.079  16.299  0.00  0.00    +0.000 A 
ATOM     17  C   UNL     1       5.352   6.233  17.423  0.00  0.00    +0.000 A 
ATOM     18  C   UNL     1       4.344   5.299  17.743  0.00  0.00    +0.000 A 
ATOM     19  C   UNL     1       4.200   4.202  16.874  0.00  0.00    +0.000 A 
ATOM     20  C   UNL     1       5.038   4.022  15.766  0.00  0.00    +0.000 A 
BRANCH  15  22
ATOM     21  N   UNL     1       6.551   3.718  13.456  0.00  0.00    +0.000 N 
ATOM     22  C   UNL     1       6.898   4.739  14.296  0.00  0.00    +0.000 C 
ATOM     23  O   UNL     1       7.855   5.461  14.052  0.00  0.00    +0.000 OA
ATOM     24  H   UNL     1       7.077   3.650  12.592  0.00  0.00    +0.000 HD
ATOM     25  H   UNL     1       5.641   3.284  13.480  0.00  0.00    +0.000 HD
ENDBRANCH  15  22
ENDBRANCH   1  18
BRANCH   6  26
ATOM     26  N   UNL     1       3.705   3.235  19.849  0.00  0.00    +0.000 N 
ATOM     27  H   UNL     1       3.422   2.819  18.966  0.00  0.00    +0.000 HD
ATOM     28  H   UNL     1       3.418   2.684  20.650  0.00  0.00    +0.000 HD
ENDBRANCH   6  26
TORSDOF 4
ENDMDL
MODEL 2
REMARK VINA RESULT:      -8.4      0.919      1.014
REMARK  Name = 
REMARK  4 active torsions:
REMARK  status: ('A' for Active; 'I' for Inactive)
REMARK    1  A    between atoms: C_2  and  C_4
REMARK    2  A    between atoms: C_7  and  C_8
REMARK    3  A    between atoms: C_10  and  C_11
REMARK    4  A    between atoms: C_21  and  N_22
REMARK                            x       y       z     vdW  Elec       q    Type
REMARK                         _______ _______ _______ _____ _____    ______ ____
ROOT
ATOM      1  C   UNL     1       4.102   5.138  18.241  0.00  0.00    +0.000 A 
ATOM      2  C   UNL     1       3.408   6.332  18.541  0.00  0.00    +0.000 A 
ATOM      3  C   UNL     1       2.547   6.460  19.641  0.00  0.00    +0.000 A 
ATOM      4  C   UNL     1       2.428   5.320  20.427  0.00  0.00    +0.000 A 
ATOM      5  N   UNL     1       3.079   4.152  20.206  0.00  0.00    +0.000 NA
ATOM      6  C   UNL     1       3.896   4.076  19.138  0.00  0.00    +0.000 A 
ENDROOT
BRANCH   3   7
ATOM      7  C   UNL     1       1.809   7.712  19.922  0.00  0.00    +0.000 A 
ATOM      8  C   UNL     1       1.642   8.710  18.940  0.00  0.00    +0.000 A 
ATOM      9  C   UNL     1       0.951   9.895  19.215  0.00  0.00    +0.000 A 
ATOM     10  C   UNL     1       0.399  10.099  20.473  0.00  0.00    +0.000 A 
ATOM     11  F   UNL     1      -0.264  11.239  20.713  0.00  0.00    +0.000 F 
ATOM     12  C   UNL     1       0.535   9.132  21.460  0.00  0.00    +0.000 A 
ATOM     13 CL   UNL     1      -0.155   9.361  23.021  0.00  0.00    +0.000 Cl
ATOM     14  C   UNL     1       1.239   7.955  21.190  0.00  0.00    +0.000 A 
ENDBRANCH   3   7
BRANCH   1  18
ATOM     15  C   UNL     1       6.630   5.001  14.724  0.00  0.00    +0.000 A 
ATOM     16  C   UNL     1       7.042   5.693  15.865  0.00  0.00    +0.000 A 
ATOM     17  C   UNL     1       6.229   5.711  17.005  0.00  0.00    +0.000 A 
ATOM     18  C   UNL     1       4.970   5.076  17.033  0.00  0.00    +0.000 A 
ATOM     19  C   UNL     1       4.566   4.423  15.853  0.00  0.00    +0.000 A 
ATOM     20  C   UNL     1       5.386   4.372  14.719  0.00  0.00    +0.000 A 
BRANCH  15  22
ATOM     21  N   UNL     1       7.066   4.071  12.523  0.00  0.00    +0.000 N 
ATOM     22  C   UNL     1       7.471   4.932  13.505  0.00  0.00    +0.000 C 
ATOM     23  O   UNL     1       8.459   5.639  13.359  0.00  0.00    +0.000 OA
ATOM     24  H   UNL     1       7.578   4.115  11.649  0.00  0.00    +0.000 HD
ATOM     25  H   UNL     1       6.136   3.681  12.496  0.00  0.00    +0.000 HD
ENDBRANCH  15  22
ENDBRANCH   1  18
BRANCH   6  26
ATOM     26  N   UNL     1       4.498   2.829  18.991  0.00  0.00    +0.000 N 
ATOM     27  H   UNL     1       5.173   2.731  19.745  0.00  0.00    +0.000 HD
ATOM     28  H   UNL     1       4.918   2.719  18.075  0.00  0.00    +0.000 HD
ENDBRANCH   6  26
TORSDOF 4
ENDMDL
MODEL 3
REMARK VINA RESULT:      -8.1      1.437      1.846
REMARK  Name = 
REMARK  4 active torsions:
REMARK  status: ('A' for Active; 'I' for Inactive)
REMARK    1  A    between atoms: C_2  and  C_4
REMARK    2  A    between atoms: C_7  and  C_8
REMARK    3  A    between atoms: C_10  and  C_11
REMARK    4  A    between atoms: C_21  and  N_22
REMARK                            x       y       z     vdW  Elec       q    Type
REMARK                         _______ _______ _______ _____ _____    ______ ____
ROOT
ATOM      1  C   UNL     1       4.180   4.946  18.278  0.00  0.00    +0.000 A 
ATOM      2  C   UNL     1       3.455   6.112  18.612  0.00  0.00    +0.000 A 
ATOM      3  C   UNL     1       2.602   6.190  19.723  0.00  0.00    +0.000 A 
ATOM      4  C   UNL     1       2.525   5.029  20.483  0.00  0.00    +0.000 A 
ATOM      5  N   UNL     1       3.206   3.886  20.230  0.00  0.00    +0.000 NA
ATOM      6  C   UNL     1       4.015   3.858  19.152  0.00  0.00    +0.000 A 
ENDROOT
BRANCH   3   7
ATOM      7  C   UNL     1       1.831   7.413  20.040  0.00  0.00    +0.000 A 
ATOM      8  C   UNL     1       1.086   7.533  21.230  0.00  0.00    +0.000 A 
ATOM      9  C   UNL     1       0.353   8.690  21.519  0.00  0.00    +0.000 A 
ATOM     10  C   UNL     1       0.363   9.756  20.628  0.00  0.00    +0.000 A 
ATOM     11  F   UNL     1      -0.342  10.857  20.927  0.00  0.00    +0.000 F 
ATOM     12  C   UNL     1       1.095   9.675  19.451  0.00  0.00    +0.000 A 
ATOM     13 CL   UNL     1       1.132  10.993  18.344  0.00  0.00    +0.000 Cl
ATOM     14  C   UNL     1       1.815   8.514  19.157  0.00  0.00    +0.000 A 
ENDBRANCH   3   7
BRANCH   1  18
ATOM     15  C   UNL     1       6.679   4.961  14.738  0.00  0.00    +0.000 A 
ATOM     16  C   UNL     1       7.143   5.514  15.933  0.00  0.00    +0.000 A 
ATOM     17  C   UNL     1       6.337   5.482  17.078  0.00  0.00    +0.000 A 
ATOM     18  C   UNL     1       5.037   4.936  17.060  0.00  0.00    +0.000 A 
ATOM     19  C   UNL     1       4.583   4.425  15.830  0.00  0.00    +0.000 A 
ATOM     20  C   UNL     1       5.394   4.423  14.687  0.00  0.00    +0.000 A 
BRANCH  15  22
ATOM     21  N   UNL     1       7.120   4.097  12.511  0.00  0.00    +0.000 N 
ATOM     22  C   UNL     1       7.508   4.947  13.508  0.00  0.00    +0.000 C 
ATOM     23  O   UNL     1       8.471   5.689  13.369  0.00  0.00    +0.000 OA
ATOM     24  H   UNL     1       7.621   4.178  11.633  0.00  0.00    +0.000 HD
ATOM     25  H   UNL     1       6.203   3.677  12.485  0.00  0.00    +0.000 HD
ENDBRANCH  15  22
ENDBRANCH   1  18
BRANCH   6  26
ATOM     26  N   UNL     1       4.651   2.632  18.971  0.00  0.00    +0.000 N 
ATOM     27  H   UNL     1       5.637   2.826  18.821  0.00  0.00    +0.000 HD
ATOM     28  H   UNL     1       4.238   2.102  18.212  0.00  0.00    +0.000 HD
ENDBRANCH   6  26
TORSDOF 4
ENDMDL
MODEL 4
REMARK VINA RESULT:      -8.1      1.161      1.753
REMARK  Name = 
REMARK  4 active torsions:
REMARK  status: ('A' for Active; 'I' for Inactive)
REMARK    1  A    between atoms: C_2  and  C_4
REMARK    2  A    between atoms: C_7  and  C_8
REMARK    3  A    between atoms: C_10  and  C_11
REMARK    4  A    between atoms: C_21  and  N_22
REMARK                            x       y       z     vdW  Elec       q    Type
REMARK                         _______ _______ _______ _____ _____    ______ ____
ROOT
ATOM      1  C   UNL     1       3.247   5.298  18.763  0.00  0.00    +0.000 A 
ATOM      2  C   UNL     1       2.781   6.584  19.117  0.00  0.00    +0.000 A 
ATOM      3  C   UNL     1       1.914   6.813  20.196  0.00  0.00    +0.000 A 
ATOM      4  C   UNL     1       1.548   5.675  20.904  0.00  0.00    +0.000 A 
ATOM      5  N   UNL     1       1.973   4.418  20.630  0.00  0.00    +0.000 NA
ATOM      6  C   UNL     1       2.806   4.246  19.584  0.00  0.00    +0.000 A 
ENDROOT
BRANCH   3   7
ATOM      7  C   UNL     1       1.417   8.166  20.533  0.00  0.00    +0.000 A 
ATOM      8  C   UNL     1       1.046   8.515  21.847  0.00  0.00    +0.000 A 
ATOM      9  C   UNL     1       0.569   9.793  22.156  0.00  0.00    +0.000 A 
ATOM     10  C   UNL     1       0.468  10.754  21.159  0.00  0.00    +0.000 A 
ATOM     11  F   UNL     1       0.013  11.974  21.478  0.00  0.00    +0.000 F 
ATOM     12  C   UNL     1       0.834  10.448  19.855  0.00  0.00    +0.000 A 
ATOM     13 CL   UNL     1       0.730  11.632  18.609  0.00  0.00    +0.000 Cl
ATOM     14  C   UNL     1       1.296   9.166  19.544  0.00  0.00    +0.000 A 
ENDBRANCH   3   7
BRANCH   1  18
ATOM     15  C   UNL     1       5.867   4.809  15.346  0.00  0.00    +0.000 A 
ATOM     16  C   UNL     1       5.470   3.701  16.098  0.00  0.00    +0.000 A 
ATOM     17  C   UNL     1       4.604   3.866  17.185  0.00  0.00    +0.000 A 
ATOM     18  C   UNL     1       4.138   5.137  17.580  0.00  0.00    +0.000 A 
ATOM     19  C   UNL     1       4.590   6.238  16.829  0.00  0.00    +0.000 A 
ATOM     20  C   UNL     1       5.431   6.079  15.719  0.00  0.00    +0.000 A 
BRANCH  15  22
ATOM     21  N   UNL     1       6.464   3.686  13.277  0.00  0.00    +0.000 N 
ATOM     22  C   UNL     1       6.761   4.677  14.170  0.00  0.00    +0.000 C 
ATOM     23  O   UNL     1       7.696   5.442  13.979  0.00  0.00    +0.000 OA
ATOM     24  H   UNL     1       7.008   3.676  12.421  0.00  0.00    +0.000 HD
ATOM     25  H   UNL     1       5.569   3.220  13.263  0.00  0.00    +0.000 HD
ENDBRANCH  15  22
ENDBRANCH   1  18
BRANCH   6  26
ATOM     26  N   UNL     1       3.165   2.917  19.377  0.00  0.00    +0.000 N 
ATOM     27  H   UNL     1       3.613   2.866  18.466  0.00  0.00    +0.000 HD
ATOM     28  H   UNL     1       2.369   2.295  19.456  0.00  0.00    +0.000 HD
ENDBRANCH   6  26
TORSDOF 4
ENDMDL
MODEL 5
REMARK VINA RESULT:      -8.0      5.107      8.247
REMARK  Name = 
REMARK  4 active torsions:
REMARK  status: ('A' for Active; 'I' for Inactive)
REMARK    1  A    between atoms: C_2  and  C_4
REMARK    2  A    between atoms: C_7  and  C_8
REMARK    3  A    between atoms: C_10  and  C_11
REMARK    4  A    between atoms: C_21  and  N_22
REMARK                            x       y       z     vdW  Elec       q    Type
REMARK                         _______ _______ _______ _____ _____    ______ ____
ROOT
ATOM      1  C   UNL     1       3.199   6.225  18.630  0.00  0.00    +0.000 A 
ATOM      2  C   UNL     1       3.921   6.064  17.426  0.00  0.00    +0.000 A 
ATOM      3  C   UNL     1       4.733   4.950  17.166  0.00  0.00    +0.000 A 
ATOM      4  C   UNL     1       4.773   4.004  18.182  0.00  0.00    +0.000 A 
ATOM      5  N   UNL     1       4.091   4.088  19.350  0.00  0.00    +0.000 NA
ATOM      6  C   UNL     1       3.323   5.175  19.557  0.00  0.00    +0.000 A 
ENDROOT
BRANCH   3   7
ATOM      7  C   UNL     1       5.502   4.814  15.908  0.00  0.00    +0.000 A 
ATOM      8  C   UNL     1       6.836   5.259  15.802  0.00  0.00    +0.000 A 
ATOM      9  C   UNL     1       7.554   5.135  14.608  0.00  0.00    +0.000 A 
ATOM     10  C   UNL     1       6.957   4.550  13.499  0.00  0.00    +0.000 A 
ATOM     11  F   UNL     1       7.665   4.436  12.366  0.00  0.00    +0.000 F 
ATOM     12  C   UNL     1       5.648   4.091  13.571  0.00  0.00    +0.000 A 
ATOM     13 CL   UNL     1       4.897   3.349  12.211  0.00  0.00    +0.000 Cl
ATOM     14  C   UNL     1       4.926   4.229  14.760  0.00  0.00    +0.000 A 
ENDBRANCH   3   7
BRANCH   1  18
ATOM     15  C   UNL     1       0.872   9.831  19.231  0.00  0.00    +0.000 A 
ATOM     16  C   UNL     1       1.406   9.535  17.976  0.00  0.00    +0.000 A 
ATOM     17  C   UNL     1       2.136   8.355  17.786  0.00  0.00    +0.000 A 
ATOM     18  C   UNL     1       2.388   7.456  18.843  0.00  0.00    +0.000 A 
ATOM     19  C   UNL     1       1.872   7.804  20.105  0.00  0.00    +0.000 A 
ATOM     20  C   UNL     1       1.113   8.965  20.298  0.00  0.00    +0.000 A 
BRANCH  15  22
ATOM     21  N   UNL     1      -0.376  11.728  18.368  0.00  0.00    +0.000 N 
ATOM     22  C   UNL     1       0.070  11.055  19.472  0.00  0.00    +0.000 C 
ATOM     23  O   UNL     1      -0.220  11.428  20.600  0.00  0.00    +0.000 OA
ATOM     24  H   UNL     1      -1.019  12.493  18.539  0.00  0.00    +0.000 HD
ATOM     25  H   UNL     1      -0.384  11.313  17.448  0.00  0.00    +0.000 HD
ENDBRANCH  15  22
ENDBRANCH   1  18
BRANCH   6  26
ATOM     26  N   UNL     1       2.683   5.173  20.794  0.00  0.00    +0.000 N 
ATOM     27  H   UNL     1       1.952   5.878  20.754  0.00  0.00    +0.000 HD
ATOM     28  H   UNL     1       3.334   5.328  21.555  0.00  0.00    +0.000 HD
ENDBRANCH   6  26
TORSDOF 4
ENDMDL
MODEL 6
REMARK VINA RESULT:      -8.0      1.263      1.895
REMARK  Name = 
REMARK  4 active torsions:
REMARK  status: ('A' for Active; 'I' for Inactive)
REMARK    1  A    between atoms: C_2  and  C_4
REMARK    2  A    between atoms: C_7  and  C_8
REMARK    3  A    between atoms: C_10  and  C_11
REMARK    4  A    between atoms: C_21  and  N_22
REMARK                            x       y       z     vdW  Elec       q    Type
REMARK                         _______ _______ _______ _____ _____    ______ ____
ROOT
ATOM      1  C   UNL     1       4.454   5.166  17.693  0.00  0.00    +0.000 A 
ATOM      2  C   UNL     1       3.663   6.326  17.851  0.00  0.00    +0.000 A 
ATOM      3  C   UNL     1       2.959   6.616  19.030  0.00  0.00    +0.000 A 
ATOM      4  C   UNL     1       3.102   5.676  20.043  0.00  0.00    +0.000 A 
ATOM      5  N   UNL     1       3.859   4.555  19.963  0.00  0.00    +0.000 NA
ATOM      6  C   UNL     1       4.517   4.318  18.811  0.00  0.00    +0.000 A 
ENDROOT
BRANCH   3   7
ATOM      7  C   UNL     1       2.115   7.824  19.165  0.00  0.00    +0.000 A 
ATOM      8  C   UNL     1       1.867   8.682  18.074  0.00  0.00    +0.000 A 
ATOM      9  C   UNL     1       1.075   9.827  18.211  0.00  0.00    +0.000 A 
ATOM     10  C   UNL     1       0.501  10.129  19.440  0.00  0.00    +0.000 A 
ATOM     11  F   UNL     1      -0.259  11.228  19.548  0.00  0.00    +0.000 F 
ATOM     12  C   UNL     1       0.716   9.300  20.533  0.00  0.00    +0.000 A 
ATOM     13 CL   UNL     1      -0.000   9.650  22.059  0.00  0.00    +0.000 Cl
ATOM     14  C   UNL     1       1.520   8.165  20.399  0.00  0.00    +0.000 A 
ENDBRANCH   3   7
BRANCH   1  18
ATOM     15  C   UNL     1       6.438   4.392  13.919  0.00  0.00    +0.000 A 
ATOM     16  C   UNL     1       5.112   4.003  14.113  0.00  0.00    +0.000 A 
ATOM     17  C   UNL     1       4.471   4.279  15.328  0.00  0.00    +0.000 A 
ATOM     18  C   UNL     1       5.139   4.915  16.395  0.00  0.00    +0.000 A 
ATOM     19  C   UNL     1       6.488   5.256  16.182  0.00  0.00    +0.000 A 
ATOM     20  C   UNL     1       7.128   5.013  14.959  0.00  0.00    +0.000 A 
BRANCH  15  22
ATOM     21  N   UNL     1       6.973   2.916  12.065  0.00  0.00    +0.000 N 
ATOM     22  C   UNL     1       7.147   4.144  12.640  0.00  0.00    +0.000 C 
ATOM     23  O   UNL     1       7.822   5.007  12.097  0.00  0.00    +0.000 OA
ATOM     24  H   UNL     1       7.364   2.796  11.137  0.00  0.00    +0.000 HD
ATOM     25  H   UNL     1       6.230   2.291  12.339  0.00  0.00    +0.000 HD
ENDBRANCH  15  22
ENDBRANCH   1  18
BRANCH   6  26
ATOM     26  N   UNL     1       5.247   3.132  18.827  0.00  0.00    +0.000 N 
ATOM     27  H   UNL     1       5.700   3.047  17.920  0.00  0.00    +0.000 HD
ATOM     28  H   UNL     1       4.664   2.333  19.047  0.00  0.00    +0.000 HD
ENDBRANCH   6  26
TORSDOF 4
ENDMDL
MODEL 7
REMARK VINA RESULT:      -7.9      5.292      8.881
REMARK  Name = 
REMARK  4 active torsions:
REMARK  status: ('A' for Active; 'I' for Inactive)
REMARK    1  A    between atoms: C_2  and  C_4
REMARK    2  A    between atoms: C_7  and  C_8
REMARK    3  A    between atoms: C_10  and  C_11
REMARK    4  A    between atoms: C_21  and  N_22
REMARK                            x       y       z     vdW  Elec       q    Type
REMARK                         _______ _______ _______ _____ _____    ______ ____
ROOT
ATOM      1  C   UNL     1       1.189   9.258  19.646  0.00  0.00    +0.000 A 
ATOM      2  C   UNL     1       1.636   7.963  19.993  0.00  0.00    +0.000 A 
ATOM      3  C   UNL     1       2.421   7.172  19.141  0.00  0.00    +0.000 A 
ATOM      4  C   UNL     1       2.738   7.761  17.922  0.00  0.00    +0.000 A 
ATOM      5  N   UNL     1       2.359   9.003  17.537  0.00  0.00    +0.000 NA
ATOM      6  C   UNL     1       1.606   9.727  18.388  0.00  0.00    +0.000 A 
ENDROOT
BRANCH   3   7
ATOM      7  C   UNL     1       2.856   5.807  19.513  0.00  0.00    +0.000 A 
ATOM      8  C   UNL     1       4.086   5.275  19.076  0.00  0.00    +0.000 A 
ATOM      9  C   UNL     1       4.487   3.981  19.425  0.00  0.00    +0.000 A 
ATOM     10  C   UNL     1       3.671   3.197  20.231  0.00  0.00    +0.000 A 
ATOM     11  F   UNL     1       4.077   1.962  20.558  0.00  0.00    +0.000 F 
ATOM     12  C   UNL     1       2.457   3.694  20.688  0.00  0.00    +0.000 A 
ATOM     13 CL   UNL     1       1.441   2.742  21.701  0.00  0.00    +0.000 Cl
ATOM     14  C   UNL     1       2.051   4.981  20.327  0.00  0.00    +0.000 A 
ENDBRANCH   3   7
BRANCH   1  18
ATOM     15  C   UNL     1      -1.336  11.429  22.419  0.00  0.00    +0.000 A 
ATOM     16  C   UNL     1      -0.550  10.365  22.863  0.00  0.00    +0.000 A 
ATOM     17  C   UNL     1       0.282   9.685  21.964  0.00  0.00    +0.000 A 
ATOM     18  C   UNL     1       0.328  10.018  20.595  0.00  0.00    +0.000 A 
ATOM     19  C   UNL     1      -0.508  11.067  20.171  0.00  0.00    +0.000 A 
ATOM     20  C   UNL     1      -1.318  11.775  21.068  0.00  0.00    +0.000 A 
BRANCH  15  22
ATOM     21  N   UNL     1      -1.795  13.451  23.685  0.00  0.00    +0.000 N 
ATOM     22  C   UNL     1      -2.209  12.195  23.341  0.00  0.00    +0.000 C 
ATOM     23  O   UNL     1      -3.274  11.747  23.745  0.00  0.00    +0.000 OA
ATOM     24  H   UNL     1      -2.451  14.009  24.219  0.00  0.00    +0.000 HD
ATOM     25  H   UNL     1      -1.077  13.942  23.173  0.00  0.00    +0.000 HD
ENDBRANCH  15  22
ENDBRANCH   1  18
BRANCH   6  26
ATOM     26  N   UNL     1       1.254  10.978  17.888  0.00  0.00    +0.000 N 
ATOM     27  H   UNL     1       1.316  11.637  18.659  0.00  0.00    +0.000 HD
ATOM     28  H   UNL     1       0.337  10.967  17.457  0.00  0.00    +0.000 HD
ENDBRANCH   6  26
TORSDOF 4
ENDMDL
MODEL 8
REMARK VINA RESULT:      -7.9      1.925      2.590
REMARK  Name = 
REMARK  4 active torsions:
REMARK  status: ('A' for Active; 'I' for Inactive)
REMARK    1  A    between atoms: C_2  and  C_4
REMARK    2  A    between atoms: C_7  and  C_8
REMARK    3  A    between atoms: C_10  and  C_11
REMARK    4  A    between atoms: C_21  and  N_22
REMARK                            x       y       z     vdW  Elec       q    Type
REMARK                         _______ _______ _______ _____ _____    ______ ____
ROOT
ATOM      1  C   UNL     1       2.787   7.008  18.782  0.00  0.00    +0.000 A 
ATOM      2  C   UNL     1       2.240   8.285  18.524  0.00  0.00    +0.000 A 
ATOM      3  C   UNL     1       1.351   8.927  19.400  0.00  0.00    +0.000 A 
ATOM      4  C   UNL     1       1.050   8.213  20.554  0.00  0.00    +0.000 A 
ATOM      5  N   UNL     1       1.554   6.997  20.870  0.00  0.00    +0.000 NA
ATOM      6  C   UNL     1       2.404   6.418  19.999  0.00  0.00    +0.000 A 
ENDROOT
BRANCH   3   7
ATOM      7  C   UNL     1       0.769  10.254  19.098  0.00  0.00    +0.000 A 
ATOM      8  C   UNL     1       1.576  11.399  18.939  0.00  0.00    +0.000 A 
ATOM      9  C   UNL     1       1.018  12.652  18.662  0.00  0.00    +0.000 A 
ATOM     10  C   UNL     1      -0.358  12.781  18.523  0.00  0.00    +0.000 A 
ATOM     11  F   UNL     1      -0.871  13.990  18.252  0.00  0.00    +0.000 F 
ATOM     12  C   UNL     1      -1.181  11.672  18.663  0.00  0.00    +0.000 A 
ATOM     13 CL   UNL     1      -2.887  11.812  18.479  0.00  0.00    +0.000 Cl
ATOM     14  C   UNL     1      -0.625  10.424  18.955  0.00  0.00    +0.000 A 
ENDBRANCH   3   7
BRANCH   1  18
ATOM     15  C   UNL     1       5.442   5.154  15.902  0.00  0.00    +0.000 A 
ATOM     16  C   UNL     1       4.484   4.392  16.574  0.00  0.00    +0.000 A 
ATOM     17  C   UNL     1       3.614   5.005  17.485  0.00  0.00    +0.000 A 
ATOM     18  C   UNL     1       3.695   6.381  17.782  0.00  0.00    +0.000 A 
ATOM     19  C   UNL     1       4.699   7.113  17.119  0.00  0.00    +0.000 A 
ATOM     20  C   UNL     1       5.552   6.516  16.182  0.00  0.00    +0.000 A 
BRANCH  15  22
ATOM     21  N   UNL     1       7.555   5.193  14.704  0.00  0.00    +0.000 N 
ATOM     22  C   UNL     1       6.364   4.553  14.909  0.00  0.00    +0.000 C 
ATOM     23  O   UNL     1       6.099   3.509  14.328  0.00  0.00    +0.000 OA
ATOM     24  H   UNL     1       8.225   4.715  14.113  0.00  0.00    +0.000 HD
ATOM     25  H   UNL     1       7.912   5.888  15.343  0.00  0.00    +0.000 HD
ENDBRANCH  15  22
ENDBRANCH   1  18
BRANCH   6  26
ATOM     26  N   UNL     1       2.846   5.163  20.408  0.00  0.00    +0.000 N 
ATOM     27  H   UNL     1       2.106   4.755  20.974  0.00  0.00    +0.000 HD
ATOM     28  H   UNL     1       3.729   5.217  20.901  0.00  0.00    +0.000 HD
ENDBRANCH   6  26
TORSDOF 4
ENDMDL
MODEL 9
REMARK VINA RESULT:      -7.8      2.155      2.873
REMARK  Name = 
REMARK  4 active torsions:
REMARK  status: ('A' for Active; 'I' for Inactive)
REMARK    1  A    between atoms: C_2  and  C_4
REMARK    2  A    between atoms: C_7  and  C_8
REMARK    3  A    between atoms: C_10  and  C_11
REMARK    4  A    between atoms: C_21  and  N_22
REMARK                            x       y       z     vdW  Elec       q    Type
REMARK                         _______ _______ _______ _____ _____    ______ ____
ROOT
ATOM      1  C   UNL     1       2.754   7.090  18.807  0.00  0.00    +0.000 A 
ATOM      2  C   UNL     1       2.246   8.382  18.543  0.00  0.00    +0.000 A 
ATOM      3  C   UNL     1       1.364   9.047  19.408  0.00  0.00    +0.000 A 
ATOM      4  C   UNL     1       1.028   8.342  20.557  0.00  0.00    +0.000 A 
ATOM      5  N   UNL     1       1.495   7.112  20.879  0.00  0.00    +0.000 NA
ATOM      6  C   UNL     1       2.339   6.511  20.018  0.00  0.00    +0.000 A 
ENDROOT
BRANCH   3   7
ATOM      7  C   UNL     1       0.822  10.390  19.098  0.00  0.00    +0.000 A 
ATOM      8  C   UNL     1      -0.565  10.637  19.050  0.00  0.00    +0.000 A 
ATOM      9  C   UNL     1      -1.070  11.907  18.749  0.00  0.00    +0.000 A 
ATOM     10  C   UNL     1      -0.196  12.959  18.505  0.00  0.00    +0.000 A 
ATOM     11  F   UNL     1      -0.702  14.169  18.224  0.00  0.00    +0.000 F 
ATOM     12  C   UNL     1       1.176  12.753  18.555  0.00  0.00    +0.000 A 
ATOM     13 CL   UNL     1       2.273  14.049  18.271  0.00  0.00    +0.000 Cl
ATOM     14  C   UNL     1       1.680  11.481  18.841  0.00  0.00    +0.000 A 
ENDBRANCH   3   7
BRANCH   1  18
ATOM     15  C   UNL     1       5.394   5.164  15.960  0.00  0.00    +0.000 A 
ATOM     16  C   UNL     1       4.400   4.431  16.611  0.00  0.00    +0.000 A 
ATOM     17  C   UNL     1       3.536   5.068  17.511  0.00  0.00    +0.000 A 
ATOM     18  C   UNL     1       3.658   6.439  17.818  0.00  0.00    +0.000 A 
ATOM     19  C   UNL     1       4.696   7.140  17.177  0.00  0.00    +0.000 A 
ATOM     20  C   UNL     1       5.544   6.519  16.251  0.00  0.00    +0.000 A 
BRANCH  15  22
ATOM     21  N   UNL     1       7.509   5.163  14.766  0.00  0.00    +0.000 N 
ATOM     22  C   UNL     1       6.312   4.537  14.979  0.00  0.00    +0.000 C 
ATOM     23  O   UNL     1       6.038   3.487  14.414  0.00  0.00    +0.000 OA
ATOM     24  H   UNL     1       8.176   4.668  14.185  0.00  0.00    +0.000 HD
ATOM     25  H   UNL     1       7.872   5.864  15.394  0.00  0.00    +0.000 HD
ENDBRANCH  15  22
ENDBRANCH   1  18
BRANCH   6  26
ATOM     26  N   UNL     1       2.742   5.244  20.433  0.00  0.00    +0.000 N 
ATOM     27  H   UNL     1       2.984   5.314  21.418  0.00  0.00    +0.000 HD
ATOM     28  H   UNL     1       3.503   4.886  19.868  0.00  0.00    +0.000 HD
ENDBRANCH   6  26
TORSDOF 4
ENDMDL
