MODEL 1
REMARK VINA RESULT:      -8.1      0.000      0.000
REMARK  Name = 
REMARK  7 active torsions:
REMARK  status: ('A' for Active; 'I' for Inactive)
REMARK    1  A    between atoms: C_1  and  C_2
REMARK    2  A    between atoms: C_2  and  S_3
REMARK    3  A    between atoms: S_3  and  N_6
REMARK    4  A    between atoms: N_6  and  C_7
REMARK    5  A    between atoms: C_7  and  C_8
REMARK    6  A    between atoms: C_11  and  N_12
REMARK    7  A    between atoms: C_15  and  C_16
REMARK                            x       y       z     vdW  Elec       q    Type
REMARK                         _______ _______ _______ _____ _____    ______ ____
ROOT
ATOM      1  N   UNL     1       6.451   5.849  16.895  0.00  0.00    +0.000 N 
ATOM      2  C   UNL     1       6.618   5.400  15.639  0.00  0.00    +0.000 A 
ATOM      3  N   UNL     1       5.827   4.655  14.913  0.00  0.00    +0.000 NA
ATOM      4  C   UNL     1       6.538   4.497  13.748  0.00  0.00    +0.000 A 
ATOM      5  N   UNL     1       7.712   5.149  13.730  0.00  0.00    +0.000 NA
ATOM      6  O   UNL     1       7.771   5.744  14.993  0.00  0.00    +0.000 OA
ATOM      7  H   UNL     1       7.266   6.168  17.406  0.00  0.00    +0.000 HD
ENDROOT
BRANCH   4   8
ATOM      8  C   UNL     1       6.055   3.633  12.678  0.00  0.00    +0.000 A 
ATOM      9  C   UNL     1       4.749   3.795  12.191  0.00  0.00    +0.000 A 
ATOM     10  C   UNL     1       4.254   2.933  11.216  0.00  0.00    +0.000 A 
ATOM     11  F   UNL     1       2.999   3.091  10.777  0.00  0.00    +0.000 F 
ATOM     12  C   UNL     1       5.033   1.907  10.707  0.00  0.00    +0.000 A 
ATOM     13  C   UNL     1       6.329   1.758  11.177  0.00  0.00    +0.000 A 
ATOM     14  F   UNL     1       7.092   0.768  10.694  0.00  0.00    +0.000 F 
ATOM     15  C   UNL     1       6.849   2.607  12.151  0.00  0.00    +0.000 A 
ENDBRANCH   4   8
BRANCH   1  19
ATOM     16  C   UNL     1       3.266   5.744  19.765  0.00  0.00    +0.000 C 
ATOM     17  C   UNL     1       4.451   4.785  19.955  0.00  0.00    +0.000 C 
ATOM     18  C   UNL     1       5.669   5.241  19.151  0.00  0.00    +0.000 C 
ATOM     19  C   UNL     1       5.313   5.384  17.668  0.00  0.00    +0.000 C 
ATOM     20  C   UNL     1       4.147   6.364  17.487  0.00  0.00    +0.000 C 
ATOM     21  C   UNL     1       2.920   5.907  18.278  0.00  0.00    +0.000 C 
BRANCH  16  22
ATOM     22  C   UNL     1       2.048   5.299  20.582  0.00  0.00    +0.000 C 
BRANCH  22  23
ATOM     23  N   UNL     1       1.072   4.486  19.790  0.00  0.00    +0.000 NA
ATOM     24  H   UNL     1       0.128   4.848  19.948  0.00  0.00    +0.000 HD
BRANCH  23  25
ATOM     25  S   UNL     1       1.104   2.816  20.082  0.00  0.00    +0.000 S 
ATOM     26  O   UNL     1       0.015   2.258  19.313  0.00  0.00    +0.000 OA
ATOM     27  O   UNL     1       1.235   2.590  21.503  0.00  0.00    +0.000 OA
BRANCH  25  29
ATOM     28  C   UNL     1       2.480   2.291  17.807  0.00  0.00    +0.000 C 
ATOM     29  C   UNL     1       2.643   2.326  19.316  0.00  0.00    +0.000 C 
ENDBRANCH  25  29
ENDBRANCH  23  25
ENDBRANCH  22  23
ENDBRANCH  16  22
ENDBRANCH   1  19
TORSDOF 6
ENDMDL
MODEL 2
REMARK VINA RESULT:      -8.1      0.668      1.705
REMARK  Name = 
REMARK  7 active torsions:
REMARK  status: ('A' for Active; 'I' for Inactive)
REMARK    1  A    between atoms: C_1  and  C_2
REMARK    2  A    between atoms: C_2  and  S_3
REMARK    3  A    between atoms: S_3  and  N_6
REMARK    4  A    between atoms: N_6  and  C_7
REMARK    5  A    between atoms: C_7  and  C_8
REMARK    6  A    between atoms: C_11  and  N_12
REMARK    7  A    between atoms: C_15  and  C_16
REMARK                            x       y       z     vdW  Elec       q    Type
REMARK                         _______ _______ _______ _____ _____    ______ ____
ROOT
ATOM      1  N   UNL     1       6.406   5.919  16.661  0.00  0.00    +0.000 N 
ATOM      2  C   UNL     1       6.510   5.401  15.426  0.00  0.00    +0.000 A 
ATOM      3  N   UNL     1       5.659   4.662  14.763  0.00  0.00    +0.000 NA
ATOM      4  C   UNL     1       6.324   4.410  13.587  0.00  0.00    +0.000 A 
ATOM      5  N   UNL     1       7.527   4.998  13.500  0.00  0.00    +0.000 NA
ATOM      6  O   UNL     1       7.657   5.652  14.729  0.00  0.00    +0.000 OA
ATOM      7  H   UNL     1       7.252   6.220  17.131  0.00  0.00    +0.000 HD
ENDROOT
BRANCH   4   8
ATOM      8  C   UNL     1       5.764   3.521  12.577  0.00  0.00    +0.000 A 
ATOM      9  C   UNL     1       6.479   2.381  12.180  0.00  0.00    +0.000 A 
ATOM     10  C   UNL     1       5.986   1.561  11.169  0.00  0.00    +0.000 A 
ATOM     11  F   UNL     1       6.692   0.488  10.792  0.00  0.00    +0.000 F 
ATOM     12  C   UNL     1       4.786   1.847  10.538  0.00  0.00    +0.000 A 
ATOM     13  C   UNL     1       4.072   2.965  10.941  0.00  0.00    +0.000 A 
ATOM     14  F   UNL     1       2.911   3.254  10.337  0.00  0.00    +0.000 F 
ATOM     15  C   UNL     1       4.542   3.802  11.951  0.00  0.00    +0.000 A 
ENDBRANCH   4   8
BRANCH   1  19
ATOM     16  C   UNL     1       3.314   6.122  19.626  0.00  0.00    +0.000 C 
ATOM     17  C   UNL     1       4.455   5.114  19.829  0.00  0.00    +0.000 C 
ATOM     18  C   UNL     1       5.668   5.465  18.967  0.00  0.00    +0.000 C 
ATOM     19  C   UNL     1       5.271   5.553  17.490  0.00  0.00    +0.000 C 
ATOM     20  C   UNL     1       4.151   6.581  17.294  0.00  0.00    +0.000 C 
ATOM     21  C   UNL     1       2.929   6.228  18.143  0.00  0.00    +0.000 C 
BRANCH  16  22
ATOM     22  C   UNL     1       2.102   5.781  20.500  0.00  0.00    +0.000 C 
BRANCH  22  23
ATOM     23  N   UNL     1       2.330   4.596  21.386  0.00  0.00    +0.000 NA
ATOM     24  H   UNL     1       3.330   4.379  21.405  0.00  0.00    +0.000 HD
BRANCH  23  25
ATOM     25  S   UNL     1       1.446   3.205  20.987  0.00  0.00    +0.000 S 
ATOM     26  O   UNL     1       0.336   3.658  20.180  0.00  0.00    +0.000 OA
ATOM     27  O   UNL     1       1.255   2.412  22.179  0.00  0.00    +0.000 OA
BRANCH  25  29
ATOM     28  C   UNL     1       2.192   2.506  18.477  0.00  0.00    +0.000 C 
ATOM     29  C   UNL     1       2.586   2.321  19.932  0.00  0.00    +0.000 C 
ENDBRANCH  25  29
ENDBRANCH  23  25
ENDBRANCH  22  23
ENDBRANCH  16  22
ENDBRANCH   1  19
TORSDOF 6
ENDMDL
MODEL 3
REMARK VINA RESULT:      -7.7      5.490      9.319
REMARK  Name = 
REMARK  7 active torsions:
REMARK  status: ('A' for Active; 'I' for Inactive)
REMARK    1  A    between atoms: C_1  and  C_2
REMARK    2  A    between atoms: C_2  and  S_3
REMARK    3  A    between atoms: S_3  and  N_6
REMARK    4  A    between atoms: N_6  and  C_7
REMARK    5  A    between atoms: C_7  and  C_8
REMARK    6  A    between atoms: C_11  and  N_12
REMARK    7  A    between atoms: C_15  and  C_16
REMARK                            x       y       z     vdW  Elec       q    Type
REMARK                         _______ _______ _______ _____ _____    ______ ____
ROOT
ATOM      1  N   UNL     1       2.327   6.559  20.635  0.00  0.00    +0.000 N 
ATOM      2  C   UNL     1       1.667   7.729  20.619  0.00  0.00    +0.000 A 
ATOM      3  N   UNL     1       1.390   8.510  19.609  0.00  0.00    +0.000 NA
ATOM      4  C   UNL     1       0.739   9.564  20.205  0.00  0.00    +0.000 A 
ATOM      5  N   UNL     1       0.580   9.430  21.531  0.00  0.00    +0.000 NA
ATOM      6  O   UNL     1       1.206   8.212  21.811  0.00  0.00    +0.000 OA
ATOM      7  H   UNL     1       2.701   6.228  21.518  0.00  0.00    +0.000 HD
ENDROOT
BRANCH   4   8
ATOM      8  C   UNL     1       0.333  10.734  19.437  0.00  0.00    +0.000 A 
ATOM      9  C   UNL     1       1.202  11.831  19.332  0.00  0.00    +0.000 A 
ATOM     10  C   UNL     1       0.799  12.981  18.659  0.00  0.00    +0.000 A 
ATOM     11  F   UNL     1       1.634  14.025  18.585  0.00  0.00    +0.000 F 
ATOM     12  C   UNL     1      -0.457  13.068  18.080  0.00  0.00    +0.000 A 
ATOM     13  C   UNL     1      -1.309  11.978  18.170  0.00  0.00    +0.000 A 
ATOM     14  F   UNL     1      -2.527  12.049  17.616  0.00  0.00    +0.000 F 
ATOM     15  C   UNL     1      -0.930  10.814  18.837  0.00  0.00    +0.000 A 
ENDBRANCH   4   8
BRANCH   1  19
ATOM     16  C   UNL     1       4.190   3.962  17.775  0.00  0.00    +0.000 C 
ATOM     17  C   UNL     1       5.033   5.084  18.401  0.00  0.00    +0.000 C 
ATOM     18  C   UNL     1       4.393   5.611  19.685  0.00  0.00    +0.000 C 
ATOM     19  C   UNL     1       2.962   6.086  19.418  0.00  0.00    +0.000 C 
ATOM     20  C   UNL     1       2.121   4.952  18.819  0.00  0.00    +0.000 C 
ATOM     21  C   UNL     1       2.749   4.429  17.526  0.00  0.00    +0.000 C 
BRANCH  16  22
ATOM     22  C   UNL     1       4.837   3.421  16.496  0.00  0.00    +0.000 C 
BRANCH  22  23
ATOM     23  N   UNL     1       6.181   4.019  16.217  0.00  0.00    +0.000 NA
ATOM     24  H   UNL     1       6.518   4.491  17.060  0.00  0.00    +0.000 HD
BRANCH  23  25
ATOM     25  S   UNL     1       6.250   5.080  14.896  0.00  0.00    +0.000 S 
ATOM     26  O   UNL     1       7.649   5.193  14.552  0.00  0.00    +0.000 OA
ATOM     27  O   UNL     1       5.433   6.237  15.180  0.00  0.00    +0.000 OA
BRANCH  25  29
ATOM     28  C   UNL     1       6.448   3.638  12.609  0.00  0.00    +0.000 C 
ATOM     29  C   UNL     1       5.428   4.143  13.614  0.00  0.00    +0.000 C 
ENDBRANCH  25  29
ENDBRANCH  23  25
ENDBRANCH  22  23
ENDBRANCH  16  22
ENDBRANCH   1  19
TORSDOF 6
ENDMDL
MODEL 4
REMARK VINA RESULT:      -7.7      6.271      9.559
REMARK  Name = 
REMARK  7 active torsions:
REMARK  status: ('A' for Active; 'I' for Inactive)
REMARK    1  A    between atoms: C_1  and  C_2
REMARK    2  A    between atoms: C_2  and  S_3
REMARK    3  A    between atoms: S_3  and  N_6
REMARK    4  A    between atoms: N_6  and  C_7
REMARK    5  A    between atoms: C_7  and  C_8
REMARK    6  A    between atoms: C_11  and  N_12
REMARK    7  A    between atoms: C_15  and  C_16
REMARK                            x       y       z     vdW  Elec       q    Type
REMARK                         _______ _______ _______ _____ _____    ______ ____
ROOT
ATOM      1  N   UNL     1       1.464   8.907  19.980  0.00  0.00    +0.000 N 
ATOM      2  C   UNL     1       0.401   9.665  19.665  0.00  0.00    +0.000 A 
ATOM      3  N   UNL     1      -0.452   9.530  18.684  0.00  0.00    +0.000 NA
ATOM      4  C   UNL     1      -1.283  10.611  18.849  0.00  0.00    +0.000 A 
ATOM      5  N   UNL     1      -0.987  11.374  19.914  0.00  0.00    +0.000 NA
ATOM      6  O   UNL     1       0.142  10.750  20.453  0.00  0.00    +0.000 OA
ATOM      7  H   UNL     1       2.176   9.301  20.585  0.00  0.00    +0.000 HD
ENDROOT
BRANCH   4   8
ATOM      8  C   UNL     1      -2.341  10.906  17.890  0.00  0.00    +0.000 A 
ATOM      9  C   UNL     1      -3.527  11.513  18.328  0.00  0.00    +0.000 A 
ATOM     10  C   UNL     1      -4.570  11.738  17.435  0.00  0.00    +0.000 A 
ATOM     11  F   UNL     1      -5.702  12.302  17.876  0.00  0.00    +0.000 F 
ATOM     12  C   UNL     1      -4.461  11.374  16.102  0.00  0.00    +0.000 A 
ATOM     13  C   UNL     1      -3.283  10.789  15.666  0.00  0.00    +0.000 A 
ATOM     14  F   UNL     1      -3.165  10.430  14.380  0.00  0.00    +0.000 F 
ATOM     15  C   UNL     1      -2.223  10.553  16.539  0.00  0.00    +0.000 A 
ENDBRANCH   4   8
BRANCH   1  19
ATOM     16  C   UNL     1       3.848   5.921  18.032  0.00  0.00    +0.000 C 
ATOM     17  C   UNL     1       3.399   7.144  17.216  0.00  0.00    +0.000 C 
ATOM     18  C   UNL     1       2.969   8.292  18.128  0.00  0.00    +0.000 C 
ATOM     19  C   UNL     1       1.862   7.836  19.084  0.00  0.00    +0.000 C 
ATOM     20  C   UNL     1       2.329   6.633  19.912  0.00  0.00    +0.000 C 
ATOM     21  C   UNL     1       2.749   5.474  19.006  0.00  0.00    +0.000 C 
BRANCH  16  22
ATOM     22  C   UNL     1       4.296   4.773  17.120  0.00  0.00    +0.000 C 
BRANCH  22  23
ATOM     23  N   UNL     1       5.656   4.248  17.458  0.00  0.00    +0.000 NA
ATOM     24  H   UNL     1       5.763   4.227  18.476  0.00  0.00    +0.000 HD
BRANCH  23  25
ATOM     25  S   UNL     1       6.957   5.082  16.760  0.00  0.00    +0.000 S 
ATOM     26  O   UNL     1       6.440   5.679  15.549  0.00  0.00    +0.000 OA
ATOM     27  O   UNL     1       8.118   4.223  16.757  0.00  0.00    +0.000 OA
BRANCH  25  29
ATOM     28  C   UNL     1       7.824   5.795  19.227  0.00  0.00    +0.000 C 
ATOM     29  C   UNL     1       7.254   6.384  17.948  0.00  0.00    +0.000 C 
ENDBRANCH  25  29
ENDBRANCH  23  25
ENDBRANCH  22  23
ENDBRANCH  16  22
ENDBRANCH   1  19
TORSDOF 6
ENDMDL
MODEL 5
REMARK VINA RESULT:      -7.6      6.297      9.626
REMARK  Name = 
REMARK  7 active torsions:
REMARK  status: ('A' for Active; 'I' for Inactive)
REMARK    1  A    between atoms: C_1  and  C_2
REMARK    2  A    between atoms: C_2  and  S_3
REMARK    3  A    between atoms: S_3  and  N_6
REMARK    4  A    between atoms: N_6  and  C_7
REMARK    5  A    between atoms: C_7  and  C_8
REMARK    6  A    between atoms: C_11  and  N_12
REMARK    7  A    between atoms: C_15  and  C_16
REMARK                            x       y       z     vdW  Elec       q    Type
REMARK                         _______ _______ _______ _____ _____    ______ ____
ROOT
ATOM      1  N   UNL     1       1.232   9.167  20.141  0.00  0.00    +0.000 N 
ATOM      2  C   UNL     1       0.164   9.862  19.717  0.00  0.00    +0.000 A 
ATOM      3  N   UNL     1      -0.640   9.618  18.715  0.00  0.00    +0.000 NA
ATOM      4  C   UNL     1      -1.508  10.682  18.752  0.00  0.00    +0.000 A 
ATOM      5  N   UNL     1      -1.282  11.540  19.759  0.00  0.00    +0.000 NA
ATOM      6  O   UNL     1      -0.162  11.000  20.398  0.00  0.00    +0.000 OA
ATOM      7  H   UNL     1       1.905   9.632  20.741  0.00  0.00    +0.000 HD
ENDROOT
BRANCH   4   8
ATOM      8  C   UNL     1      -2.528  10.862  17.727  0.00  0.00    +0.000 A 
ATOM      9  C   UNL     1      -2.281  10.427  16.416  0.00  0.00    +0.000 A 
ATOM     10  C   UNL     1      -3.220  10.654  15.414  0.00  0.00    +0.000 A 
ATOM     11  F   UNL     1      -2.959  10.247  14.165  0.00  0.00    +0.000 F 
ATOM     12  C   UNL     1      -4.413  11.305  15.686  0.00  0.00    +0.000 A 
ATOM     13  C   UNL     1      -4.664  11.720  16.984  0.00  0.00    +0.000 A 
ATOM     14  F   UNL     1      -5.812  12.354  17.260  0.00  0.00    +0.000 F 
ATOM     15  C   UNL     1      -3.741  11.505  18.006  0.00  0.00    +0.000 A 
ENDBRANCH   4   8
BRANCH   1  19
ATOM     16  C   UNL     1       3.826   6.209  18.435  0.00  0.00    +0.000 C 
ATOM     17  C   UNL     1       3.222   7.273  17.506  0.00  0.00    +0.000 C 
ATOM     18  C   UNL     1       2.714   8.478  18.298  0.00  0.00    +0.000 C 
ATOM     19  C   UNL     1       1.700   8.037  19.358  0.00  0.00    +0.000 C 
ATOM     20  C   UNL     1       2.321   6.995  20.296  0.00  0.00    +0.000 C 
ATOM     21  C   UNL     1       2.820   5.781  19.512  0.00  0.00    +0.000 C 
BRANCH  16  22
ATOM     22  C   UNL     1       4.351   5.006  17.643  0.00  0.00    +0.000 C 
BRANCH  22  23
ATOM     23  N   UNL     1       5.769   4.659  17.969  0.00  0.00    +0.000 NA
ATOM     24  H   UNL     1       6.082   5.232  18.757  0.00  0.00    +0.000 HD
BRANCH  23  25
ATOM     25  S   UNL     1       6.870   4.796  16.686  0.00  0.00    +0.000 S 
ATOM     26  O   UNL     1       8.095   4.182  17.147  0.00  0.00    +0.000 OA
ATOM     27  O   UNL     1       6.833   6.147  16.178  0.00  0.00    +0.000 OA
BRANCH  25  29
ATOM     28  C   UNL     1       6.323   4.350  14.069  0.00  0.00    +0.000 C 
ATOM     29  C   UNL     1       6.140   3.735  15.446  0.00  0.00    +0.000 C 
ENDBRANCH  25  29
ENDBRANCH  23  25
ENDBRANCH  22  23
ENDBRANCH  16  22
ENDBRANCH   1  19
TORSDOF 6
ENDMDL
MODEL 6
REMARK VINA RESULT:      -7.6      5.752      9.575
REMARK  Name = 
REMARK  7 active torsions:
REMARK  status: ('A' for Active; 'I' for Inactive)
REMARK    1  A    between atoms: C_1  and  C_2
REMARK    2  A    between atoms: C_2  and  S_3
REMARK    3  A    between atoms: S_3  and  N_6
REMARK    4  A    between atoms: N_6  and  C_7
REMARK    5  A    between atoms: C_7  and  C_8
REMARK    6  A    between atoms: C_11  and  N_12
REMARK    7  A    between atoms: C_15  and  C_16
REMARK                            x       y       z     vdW  Elec       q    Type
REMARK                         _______ _______ _______ _____ _____    ______ ____
ROOT
ATOM      1  N   UNL     1       1.835   6.920  21.164  0.00  0.00    +0.000 N 
ATOM      2  C   UNL     1       1.369   8.180  21.141  0.00  0.00    +0.000 A 
ATOM      3  N   UNL     1       0.978   8.900  20.122  0.00  0.00    +0.000 NA
ATOM      4  C   UNL     1       0.650  10.101  20.704  0.00  0.00    +0.000 A 
ATOM      5  N   UNL     1       0.793  10.122  22.039  0.00  0.00    +0.000 NA
ATOM      6  O   UNL     1       1.281   8.845  22.331  0.00  0.00    +0.000 OA
ATOM      7  H   UNL     1       2.355   6.613  21.979  0.00  0.00    +0.000 HD
ENDROOT
BRANCH   4   8
ATOM      8  C   UNL     1       0.250  11.248  19.898  0.00  0.00    +0.000 A 
ATOM      9  C   UNL     1      -0.858  11.145  19.044  0.00  0.00    +0.000 A 
ATOM     10  C   UNL     1      -1.208  12.211  18.219  0.00  0.00    +0.000 A 
ATOM     11  F   UNL     1      -2.258  12.087  17.398  0.00  0.00    +0.000 F 
ATOM     12  C   UNL     1      -0.479  13.389  18.225  0.00  0.00    +0.000 A 
ATOM     13  C   UNL     1       0.606  13.496  19.081  0.00  0.00    +0.000 A 
ATOM     14  F   UNL     1       1.321  14.629  19.096  0.00  0.00    +0.000 F 
ATOM     15  C   UNL     1       0.978  12.445  19.918  0.00  0.00    +0.000 A 
ENDBRANCH   4   8
BRANCH   1  19
ATOM     16  C   UNL     1       3.858   4.811  18.026  0.00  0.00    +0.000 C 
ATOM     17  C   UNL     1       3.372   6.242  17.749  0.00  0.00    +0.000 C 
ATOM     18  C   UNL     1       3.095   6.997  19.049  0.00  0.00    +0.000 C 
ATOM     19  C   UNL     1       2.085   6.233  19.910  0.00  0.00    +0.000 C 
ATOM     20  C   UNL     1       2.591   4.816  20.204  0.00  0.00    +0.000 C 
ATOM     21  C   UNL     1       2.858   4.050  18.908  0.00  0.00    +0.000 C 
BRANCH  16  22
ATOM     22  C   UNL     1       4.152   4.056  16.725  0.00  0.00    +0.000 C 
BRANCH  22  23
ATOM     23  N   UNL     1       5.614   3.832  16.491  0.00  0.00    +0.000 NA
ATOM     24  H   UNL     1       6.119   3.976  17.369  0.00  0.00    +0.000 HD
BRANCH  23  25
ATOM     25  S   UNL     1       6.311   4.772  15.264  0.00  0.00    +0.000 S 
ATOM     26  O   UNL     1       7.733   4.770  15.524  0.00  0.00    +0.000 OA
ATOM     27  O   UNL     1       5.558   5.996  15.125  0.00  0.00    +0.000 OA
BRANCH  25  29
ATOM     28  C   UNL     1       6.929   4.217  12.684  0.00  0.00    +0.000 C 
ATOM     29  C   UNL     1       6.003   3.783  13.807  0.00  0.00    +0.000 C 
ENDBRANCH  25  29
ENDBRANCH  23  25
ENDBRANCH  22  23
ENDBRANCH  16  22
ENDBRANCH   1  19
TORSDOF 6
ENDMDL
MODEL 7
REMARK VINA RESULT:      -7.5      6.850      9.908
REMARK  Name = 
REMARK  7 active torsions:
REMARK  status: ('A' for Active; 'I' for Inactive)
REMARK    1  A    between atoms: C_1  and  C_2
REMARK    2  A    between atoms: C_2  and  S_3
REMARK    3  A    between atoms: S_3  and  N_6
REMARK    4  A    between atoms: N_6  and  C_7
REMARK    5  A    between atoms: C_7  and  C_8
REMARK    6  A    between atoms: C_11  and  N_12
REMARK    7  A    between atoms: C_15  and  C_16
REMARK                            x       y       z     vdW  Elec       q    Type
REMARK                         _______ _______ _______ _____ _____    ______ ____
ROOT
ATOM      1  N   UNL     1       1.164   9.826  20.345  0.00  0.00    +0.000 N 
ATOM      2  C   UNL     1       0.080  10.556  20.036  0.00  0.00    +0.000 A 
ATOM      3  N   UNL     1      -0.962  10.229  19.318  0.00  0.00    +0.000 NA
ATOM      4  C   UNL     1      -1.712  11.380  19.322  0.00  0.00    +0.000 A 
ATOM      5  N   UNL     1      -1.179  12.378  20.045  0.00  0.00    +0.000 NA
ATOM      6  O   UNL     1       0.020  11.833  20.514  0.00  0.00    +0.000 OA
ATOM      7  H   UNL     1       1.997  10.309  20.663  0.00  0.00    +0.000 HD
ENDROOT
BRANCH   4   8
ATOM      8  C   UNL     1      -2.938  11.488  18.541  0.00  0.00    +0.000 A 
ATOM      9  C   UNL     1      -2.955  11.045  17.210  0.00  0.00    +0.000 A 
ATOM     10  C   UNL     1      -4.099  11.205  16.433  0.00  0.00    +0.000 A 
ATOM     11  F   UNL     1      -4.091  10.793  15.160  0.00  0.00    +0.000 F 
ATOM     12  C   UNL     1      -5.239  11.797  16.954  0.00  0.00    +0.000 A 
ATOM     13  C   UNL     1      -5.227  12.220  18.273  0.00  0.00    +0.000 A 
ATOM     14  F   UNL     1      -6.321  12.797  18.788  0.00  0.00    +0.000 F 
ATOM     15  C   UNL     1      -4.095  12.071  19.073  0.00  0.00    +0.000 A 
ENDBRANCH   4   8
BRANCH   1  19
ATOM     16  C   UNL     1       3.003   6.214  18.942  0.00  0.00    +0.000 C 
ATOM     17  C   UNL     1       2.455   7.206  17.904  0.00  0.00    +0.000 C 
ATOM     18  C   UNL     1       2.256   8.594  18.512  0.00  0.00    +0.000 C 
ATOM     19  C   UNL     1       1.338   8.519  19.735  0.00  0.00    +0.000 C 
ATOM     20  C   UNL     1       1.906   7.548  20.777  0.00  0.00    +0.000 C 
ATOM     21  C   UNL     1       2.096   6.153  20.179  0.00  0.00    +0.000 C 
BRANCH  16  22
ATOM     22  C   UNL     1       3.218   4.825  18.331  0.00  0.00    +0.000 C 
BRANCH  22  23
ATOM     23  N   UNL     1       4.239   4.011  19.063  0.00  0.00    +0.000 NA
ATOM     24  H   UNL     1       5.131   4.065  18.564  0.00  0.00    +0.000 HD
BRANCH  23  25
ATOM     25  S   UNL     1       3.826   2.389  19.331  0.00  0.00    +0.000 S 
ATOM     26  O   UNL     1       4.761   1.900  20.319  0.00  0.00    +0.000 OA
ATOM     27  O   UNL     1       3.643   1.734  18.057  0.00  0.00    +0.000 OA
BRANCH  25  29
ATOM     28  C   UNL     1       2.377   2.756  21.593  0.00  0.00    +0.000 C 
ATOM     29  C   UNL     1       2.218   2.529  20.099  0.00  0.00    +0.000 C 
ENDBRANCH  25  29
ENDBRANCH  23  25
ENDBRANCH  22  23
ENDBRANCH  16  22
ENDBRANCH   1  19
TORSDOF 6
ENDMDL
MODEL 8
REMARK VINA RESULT:      -7.5      6.986      8.791
REMARK  Name = 
REMARK  7 active torsions:
REMARK  status: ('A' for Active; 'I' for Inactive)
REMARK    1  A    between atoms: C_1  and  C_2
REMARK    2  A    between atoms: C_2  and  S_3
REMARK    3  A    between atoms: S_3  and  N_6
REMARK    4  A    between atoms: N_6  and  C_7
REMARK    5  A    between atoms: C_7  and  C_8
REMARK    6  A    between atoms: C_11  and  N_12
REMARK    7  A    between atoms: C_15  and  C_16
REMARK                            x       y       z     vdW  Elec       q    Type
REMARK                         _______ _______ _______ _____ _____    ______ ____
ROOT
ATOM      1  N   UNL     1       1.994   9.721  18.079  0.00  0.00    +0.000 N 
ATOM      2  C   UNL     1       2.361   8.429  18.057  0.00  0.00    +0.000 A 
ATOM      3  N   UNL     1       1.722   7.378  18.500  0.00  0.00    +0.000 NA
ATOM      4  C   UNL     1       2.598   6.353  18.238  0.00  0.00    +0.000 A 
ATOM      5  N   UNL     1       3.726   6.740  17.620  0.00  0.00    +0.000 NA
ATOM      6  O   UNL     1       3.573   8.125  17.508  0.00  0.00    +0.000 OA
ATOM      7  H   UNL     1       2.710  10.429  17.960  0.00  0.00    +0.000 HD
ENDROOT
BRANCH   4   8
ATOM      8  C   UNL     1       2.319   4.989  18.670  0.00  0.00    +0.000 A 
ATOM      9  C   UNL     1       2.562   3.920  17.795  0.00  0.00    +0.000 A 
ATOM     10  C   UNL     1       2.235   2.620  18.171  0.00  0.00    +0.000 A 
ATOM     11  F   UNL     1       2.458   1.614  17.316  0.00  0.00    +0.000 F 
ATOM     12  C   UNL     1       1.671   2.353  19.409  0.00  0.00    +0.000 A 
ATOM     13  C   UNL     1       1.446   3.409  20.279  0.00  0.00    +0.000 A 
ATOM     14  F   UNL     1       0.899   3.166  21.477  0.00  0.00    +0.000 F 
ATOM     15  C   UNL     1       1.764   4.720  19.928  0.00  0.00    +0.000 A 
ENDBRANCH   4   8
BRANCH   1  19
ATOM     16  C   UNL     1      -1.592  11.817  19.147  0.00  0.00    +0.000 C 
ATOM     17  C   UNL     1      -0.384  11.907  20.093  0.00  0.00    +0.000 C 
ATOM     18  C   UNL     1       0.909  11.508  19.382  0.00  0.00    +0.000 C 
ATOM     19  C   UNL     1       0.784  10.103  18.786  0.00  0.00    +0.000 C 
ATOM     20  C   UNL     1      -0.407  10.030  17.823  0.00  0.00    +0.000 C 
ATOM     21  C   UNL     1      -1.707  10.416  18.531  0.00  0.00    +0.000 C 
BRANCH  16  22
ATOM     22  C   UNL     1      -2.888  12.232  19.852  0.00  0.00    +0.000 C 
BRANCH  22  23
ATOM     23  N   UNL     1      -4.035  12.427  18.910  0.00  0.00    +0.000 NA
ATOM     24  H   UNL     1      -3.861  13.258  18.338  0.00  0.00    +0.000 HD
BRANCH  23  25
ATOM     25  S   UNL     1      -5.565  12.535  19.633  0.00  0.00    +0.000 S 
ATOM     26  O   UNL     1      -5.919  13.936  19.603  0.00  0.00    +0.000 OA
ATOM     27  O   UNL     1      -5.560  11.770  20.858  0.00  0.00    +0.000 OA
BRANCH  25  29
ATOM     28  C   UNL     1      -6.750  10.215  18.884  0.00  0.00    +0.000 C 
ATOM     29  C   UNL     1      -6.600  11.667  18.462  0.00  0.00    +0.000 C 
ENDBRANCH  25  29
ENDBRANCH  23  25
ENDBRANCH  22  23
ENDBRANCH  16  22
ENDBRANCH   1  19
TORSDOF 6
ENDMDL
MODEL 9
REMARK VINA RESULT:      -7.4      6.895      8.598
REMARK  Name = 
REMARK  7 active torsions:
REMARK  status: ('A' for Active; 'I' for Inactive)
REMARK    1  A    between atoms: C_1  and  C_2
REMARK    2  A    between atoms: C_2  and  S_3
REMARK    3  A    between atoms: S_3  and  N_6
REMARK    4  A    between atoms: N_6  and  C_7
REMARK    5  A    between atoms: C_7  and  C_8
REMARK    6  A    between atoms: C_11  and  N_12
REMARK    7  A    between atoms: C_15  and  C_16
REMARK                            x       y       z     vdW  Elec       q    Type
REMARK                         _______ _______ _______ _____ _____    ______ ____
ROOT
ATOM      1  N   UNL     1       2.106   9.554  18.023  0.00  0.00    +0.000 N 
ATOM      2  C   UNL     1       2.474   8.263  17.984  0.00  0.00    +0.000 A 
ATOM      3  N   UNL     1       1.850   7.209  18.441  0.00  0.00    +0.000 NA
ATOM      4  C   UNL     1       2.720   6.186  18.149  0.00  0.00    +0.000 A 
ATOM      5  N   UNL     1       3.829   6.578  17.501  0.00  0.00    +0.000 NA
ATOM      6  O   UNL     1       3.671   7.963  17.399  0.00  0.00    +0.000 OA
ATOM      7  H   UNL     1       2.818  10.263  17.886  0.00  0.00    +0.000 HD
ENDROOT
BRANCH   4   8
ATOM      8  C   UNL     1       2.455   4.820  18.583  0.00  0.00    +0.000 A 
ATOM      9  C   UNL     1       1.721   4.594  19.757  0.00  0.00    +0.000 A 
ATOM     10  C   UNL     1       1.520   3.296  20.218  0.00  0.00    +0.000 A 
ATOM     11  F   UNL     1       0.832   3.101  21.350  0.00  0.00    +0.000 F 
ATOM     12  C   UNL     1       2.032   2.206  19.532  0.00  0.00    +0.000 A 
ATOM     13  C   UNL     1       2.743   2.429  18.363  0.00  0.00    +0.000 A 
ATOM     14  F   UNL     1       3.246   1.385  17.692  0.00  0.00    +0.000 F 
ATOM     15  C   UNL     1       2.958   3.719  17.880  0.00  0.00    +0.000 A 
ENDBRANCH   4   8
BRANCH   1  19
ATOM     16  C   UNL     1      -1.379  11.714  19.279  0.00  0.00    +0.000 C 
ATOM     17  C   UNL     1      -0.166  11.674  20.221  0.00  0.00    +0.000 C 
ATOM     18  C   UNL     1       1.106  11.277  19.472  0.00  0.00    +0.000 C 
ATOM     19  C   UNL     1       0.917   9.931  18.766  0.00  0.00    +0.000 C 
ATOM     20  C   UNL     1      -0.279   9.989  17.809  0.00  0.00    +0.000 C 
ATOM     21  C   UNL     1      -1.559  10.373  18.554  0.00  0.00    +0.000 C 
BRANCH  16  22
ATOM     22  C   UNL     1      -2.653  12.128  20.024  0.00  0.00    +0.000 C 
BRANCH  22  23
ATOM     23  N   UNL     1      -3.818  12.362  19.114  0.00  0.00    +0.000 NA
ATOM     24  H   UNL     1      -3.636  13.191  18.542  0.00  0.00    +0.000 HD
BRANCH  23  25
ATOM     25  S   UNL     1      -5.325  12.510  19.877  0.00  0.00    +0.000 S 
ATOM     26  O   UNL     1      -5.866  13.778  19.443  0.00  0.00    +0.000 OA
ATOM     27  O   UNL     1      -5.178  12.176  21.275  0.00  0.00    +0.000 OA
BRANCH  25  29
ATOM     28  C   UNL     1      -7.176  10.547  20.139  0.00  0.00    +0.000 C 
ATOM     29  C   UNL     1      -6.270  11.201  19.110  0.00  0.00    +0.000 C 
ENDBRANCH  25  29
ENDBRANCH  23  25
ENDBRANCH  22  23
ENDBRANCH  16  22
ENDBRANCH   1  19
TORSDOF 6
ENDMDL
