MODEL 1
REMARK VINA RESULT:      -8.5      0.000      0.000
REMARK  Name = 
REMARK  3 active torsions:
REMARK  status: ('A' for Active; 'I' for Inactive)
REMARK    1  A    between atoms: C_1  and  C_2
REMARK    2  A    between atoms: C_6  and  C_7
REMARK    3  A    between atoms: C_10  and  C_11
REMARK                            x       y       z     vdW  Elec       q    Type
REMARK                         _______ _______ _______ _____ _____    ______ ____
ROOT
ATOM      1  C   UNL     1       5.912   4.969  15.827  0.00  0.00    +0.000 A 
ATOM      2  N   UNL     1       6.516   4.517  16.938  0.00  0.00    +0.000 NA
ATOM      3  O   UNL     1       5.728   5.020  17.969  0.00  0.00    +0.000 OA
ATOM      4  C   UNL     1       4.721   5.730  17.383  0.00  0.00    +0.000 A 
ATOM      5  N   UNL     1       4.792   5.736  16.072  0.00  0.00    +0.000 NA
ENDROOT
BRANCH   4   6
ATOM      6  C   UNL     1       3.726   6.327  18.264  0.00  0.00    +0.000 A 
ATOM      7  C   UNL     1       3.412   5.698  19.476  0.00  0.00    +0.000 A 
ATOM      8  C   UNL     1       2.500   6.274  20.364  0.00  0.00    +0.000 A 
ATOM      9  C   UNL     1       1.881   7.494  20.058  0.00  0.00    +0.000 A 
ATOM     10  C   UNL     1       0.983   8.101  20.950  0.00  0.00    +0.000 A 
ATOM     11  C   UNL     1       0.376   9.317  20.631  0.00  0.00    +0.000 A 
ATOM     12  C   UNL     1       0.651   9.935  19.415  0.00  0.00    +0.000 A 
ATOM     13  C   UNL     1       1.542   9.345  18.519  0.00  0.00    +0.000 A 
ATOM     14  C   UNL     1       2.170   8.129  18.830  0.00  0.00    +0.000 A 
ATOM     15  C   UNL     1       3.088   7.536  17.947  0.00  0.00    +0.000 A 
ENDBRANCH   4   6
BRANCH   1  21
ATOM     16  C   UNL     1       5.412   2.399  11.583  0.00  0.00    +0.000 C 
ATOM     17  C   UNL     1       6.141   3.431  12.391  0.00  0.00    +0.000 A 
ATOM     18  C   UNL     1       7.240   4.117  11.866  0.00  0.00    +0.000 A 
ATOM     19  C   UNL     1       7.904   5.077  12.632  0.00  0.00    +0.000 A 
ATOM     20  C   UNL     1       7.472   5.361  13.928  0.00  0.00    +0.000 A 
ATOM     21  C   UNL     1       6.374   4.684  14.475  0.00  0.00    +0.000 A 
ATOM     22  C   UNL     1       5.717   3.718  13.697  0.00  0.00    +0.000 A 
ENDBRANCH   1  21
TORSDOF 2
ENDMDL
MODEL 2
REMARK VINA RESULT:      -8.5      2.924      9.085
REMARK  Name = 
REMARK  3 active torsions:
REMARK  status: ('A' for Active; 'I' for Inactive)
REMARK    1  A    between atoms: C_1  and  C_2
REMARK    2  A    between atoms: C_6  and  C_7
REMARK    3  A    between atoms: C_10  and  C_11
REMARK                            x       y       z     vdW  Elec       q    Type
REMARK                         _______ _______ _______ _____ _____    ______ ____
ROOT
ATOM      1  C   UNL     1       1.006   9.390  19.782  0.00  0.00    +0.000 A 
ATOM      2  N   UNL     1       1.135   9.981  18.583  0.00  0.00    +0.000 NA
ATOM      3  O   UNL     1       1.893   9.074  17.848  0.00  0.00    +0.000 OA
ATOM      4  C   UNL     1       2.151   8.018  18.674  0.00  0.00    +0.000 A 
ATOM      5  N   UNL     1       1.635   8.166  19.872  0.00  0.00    +0.000 NA
ENDROOT
BRANCH   4   6
ATOM      6  C   UNL     1       2.903   6.903  18.114  0.00  0.00    +0.000 A 
ATOM      7  C   UNL     1       2.414   5.598  18.261  0.00  0.00    +0.000 A 
ATOM      8  C   UNL     1       3.087   4.515  17.690  0.00  0.00    +0.000 A 
ATOM      9  C   UNL     1       4.266   4.714  16.959  0.00  0.00    +0.000 A 
ATOM     10  C   UNL     1       4.941   3.642  16.357  0.00  0.00    +0.000 A 
ATOM     11  C   UNL     1       6.114   3.856  15.631  0.00  0.00    +0.000 A 
ATOM     12  C   UNL     1       6.631   5.142  15.507  0.00  0.00    +0.000 A 
ATOM     13  C   UNL     1       5.971   6.219  16.099  0.00  0.00    +0.000 A 
ATOM     14  C   UNL     1       4.784   6.021  16.822  0.00  0.00    +0.000 A 
ATOM     15  C   UNL     1       4.097   7.099  17.403  0.00  0.00    +0.000 A 
ENDBRANCH   4   6
BRANCH   1  21
ATOM     16  C   UNL     1      -1.757  13.107  21.630  0.00  0.00    +0.000 C 
ATOM     17  C   UNL     1      -1.086  11.779  21.816  0.00  0.00    +0.000 A 
ATOM     18  C   UNL     1      -1.163  11.094  23.032  0.00  0.00    +0.000 A 
ATOM     19  C   UNL     1      -0.534   9.857  23.188  0.00  0.00    +0.000 A 
ATOM     20  C   UNL     1       0.176   9.295  22.126  0.00  0.00    +0.000 A 
ATOM     21  C   UNL     1       0.268   9.964  20.899  0.00  0.00    +0.000 A 
ATOM     22  C   UNL     1      -0.365  11.209  20.756  0.00  0.00    +0.000 A 
ENDBRANCH   1  21
TORSDOF 2
ENDMDL
MODEL 3
REMARK VINA RESULT:      -8.4      1.928      3.646
REMARK  Name = 
REMARK  3 active torsions:
REMARK  status: ('A' for Active; 'I' for Inactive)
REMARK    1  A    between atoms: C_1  and  C_2
REMARK    2  A    between atoms: C_6  and  C_7
REMARK    3  A    between atoms: C_10  and  C_11
REMARK                            x       y       z     vdW  Elec       q    Type
REMARK                         _______ _______ _______ _____ _____    ______ ____
ROOT
ATOM      1  C   UNL     1       3.948   5.664  18.328  0.00  0.00    +0.000 A 
ATOM      2  N   UNL     1       3.143   4.866  19.047  0.00  0.00    +0.000 NA
ATOM      3  O   UNL     1       2.251   5.751  19.646  0.00  0.00    +0.000 OA
ATOM      4  C   UNL     1       2.602   7.003  19.231  0.00  0.00    +0.000 A 
ATOM      5  N   UNL     1       3.640   7.005  18.428  0.00  0.00    +0.000 NA
ENDROOT
BRANCH   4   6
ATOM      6  C   UNL     1       1.779   8.112  19.693  0.00  0.00    +0.000 A 
ATOM      7  C   UNL     1       1.422   9.128  18.796  0.00  0.00    +0.000 A 
ATOM      8  C   UNL     1       0.592  10.177  19.198  0.00  0.00    +0.000 A 
ATOM      9  C   UNL     1       0.101  10.234  20.510  0.00  0.00    +0.000 A 
ATOM     10  C   UNL     1      -0.755  11.266  20.924  0.00  0.00    +0.000 A 
ATOM     11  C   UNL     1      -1.237  11.308  22.234  0.00  0.00    +0.000 A 
ATOM     12  C   UNL     1      -0.863  10.326  23.146  0.00  0.00    +0.000 A 
ATOM     13  C   UNL     1      -0.014   9.294  22.749  0.00  0.00    +0.000 A 
ATOM     14  C   UNL     1       0.471   9.231  21.433  0.00  0.00    +0.000 A 
ATOM     15  C   UNL     1       1.307   8.183  21.013  0.00  0.00    +0.000 A 
ENDBRANCH   4   6
BRANCH   1  21
ATOM     16  C   UNL     1       5.608   4.067  13.906  0.00  0.00    +0.000 C 
ATOM     17  C   UNL     1       5.875   4.398  15.344  0.00  0.00    +0.000 A 
ATOM     18  C   UNL     1       7.152   4.255  15.894  0.00  0.00    +0.000 A 
ATOM     19  C   UNL     1       7.383   4.571  17.235  0.00  0.00    +0.000 A 
ATOM     20  C   UNL     1       6.337   5.034  18.035  0.00  0.00    +0.000 A 
ATOM     21  C   UNL     1       5.049   5.182  17.505  0.00  0.00    +0.000 A 
ATOM     22  C   UNL     1       4.829   4.858  16.157  0.00  0.00    +0.000 A 
ENDBRANCH   1  21
TORSDOF 2
ENDMDL
MODEL 4
REMARK VINA RESULT:      -8.4      6.080      7.058
REMARK  Name = 
REMARK  3 active torsions:
REMARK  status: ('A' for Active; 'I' for Inactive)
REMARK    1  A    between atoms: C_1  and  C_2
REMARK    2  A    between atoms: C_6  and  C_7
REMARK    3  A    between atoms: C_10  and  C_11
REMARK                            x       y       z     vdW  Elec       q    Type
REMARK                         _______ _______ _______ _____ _____    ______ ____
ROOT
ATOM      1  C   UNL     1       7.314   6.874  17.691  0.00  0.00    +0.000 A 
ATOM      2  N   UNL     1       8.070   6.613  18.770  0.00  0.00    +0.000 NA
ATOM      3  O   UNL     1       8.705   7.825  19.029  0.00  0.00    +0.000 OA
ATOM      4  C   UNL     1       8.272   8.705  18.080  0.00  0.00    +0.000 A 
ATOM      5  N   UNL     1       7.424   8.170  17.232  0.00  0.00    +0.000 NA
ENDROOT
BRANCH   4   6
ATOM      6  C   UNL     1       8.766  10.072  18.165  0.00  0.00    +0.000 A 
ATOM      7  C   UNL     1       8.054  11.104  17.539  0.00  0.00    +0.000 A 
ATOM      8  C   UNL     1       8.477  12.432  17.647  0.00  0.00    +0.000 A 
ATOM      9  C   UNL     1       9.624  12.756  18.384  0.00  0.00    +0.000 A 
ATOM     10  C   UNL     1      10.049  14.086  18.525  0.00  0.00    +0.000 A 
ATOM     11  C   UNL     1      11.193  14.393  19.264  0.00  0.00    +0.000 A 
ATOM     12  C   UNL     1      11.931  13.375  19.860  0.00  0.00    +0.000 A 
ATOM     13  C   UNL     1      11.521  12.049  19.730  0.00  0.00    +0.000 A 
ATOM     14  C   UNL     1      10.366  11.724  19.001  0.00  0.00    +0.000 A 
ATOM     15  C   UNL     1       9.929  10.395  18.882  0.00  0.00    +0.000 A 
ENDBRANCH   4   6
BRANCH   1  21
ATOM     16  C   UNL     1       6.300   3.967  13.768  0.00  0.00    +0.000 C 
ATOM     17  C   UNL     1       5.936   4.469  15.134  0.00  0.00    +0.000 A 
ATOM     18  C   UNL     1       4.790   4.011  15.791  0.00  0.00    +0.000 A 
ATOM     19  C   UNL     1       4.468   4.487  17.064  0.00  0.00    +0.000 A 
ATOM     20  C   UNL     1       5.293   5.423  17.690  0.00  0.00    +0.000 A 
ATOM     21  C   UNL     1       6.445   5.897  17.050  0.00  0.00    +0.000 A 
ATOM     22  C   UNL     1       6.756   5.414  15.768  0.00  0.00    +0.000 A 
ENDBRANCH   1  21
TORSDOF 2
ENDMDL
MODEL 5
REMARK VINA RESULT:      -8.3      5.951      6.882
REMARK  Name = 
REMARK  3 active torsions:
REMARK  status: ('A' for Active; 'I' for Inactive)
REMARK    1  A    between atoms: C_1  and  C_2
REMARK    2  A    between atoms: C_6  and  C_7
REMARK    3  A    between atoms: C_10  and  C_11
REMARK                            x       y       z     vdW  Elec       q    Type
REMARK                         _______ _______ _______ _____ _____    ______ ____
ROOT
ATOM      1  C   UNL     1       7.369   6.747  17.569  0.00  0.00    +0.000 A 
ATOM      2  N   UNL     1       8.050   6.498  18.700  0.00  0.00    +0.000 NA
ATOM      3  O   UNL     1       8.612   7.729  19.025  0.00  0.00    +0.000 OA
ATOM      4  C   UNL     1       8.216   8.608  18.058  0.00  0.00    +0.000 A 
ATOM      5  N   UNL     1       7.460   8.054  17.139  0.00  0.00    +0.000 NA
ENDROOT
BRANCH   4   6
ATOM      6  C   UNL     1       8.645   9.993  18.200  0.00  0.00    +0.000 A 
ATOM      7  C   UNL     1       8.038  10.988  17.423  0.00  0.00    +0.000 A 
ATOM      8  C   UNL     1       8.393  12.330  17.575  0.00  0.00    +0.000 A 
ATOM      9  C   UNL     1       9.367  12.707  18.511  0.00  0.00    +0.000 A 
ATOM     10  C   UNL     1       9.717  14.053  18.697  0.00  0.00    +0.000 A 
ATOM     11  C   UNL     1      10.688  14.414  19.633  0.00  0.00    +0.000 A 
ATOM     12  C   UNL     1      11.325  13.433  20.387  0.00  0.00    +0.000 A 
ATOM     13  C   UNL     1      10.987  12.091  20.215  0.00  0.00    +0.000 A 
ATOM     14  C   UNL     1      10.005  11.714  19.286  0.00  0.00    +0.000 A 
ATOM     15  C   UNL     1       9.637  10.368  19.119  0.00  0.00    +0.000 A 
ENDBRANCH   4   6
BRANCH   1  21
ATOM     16  C   UNL     1       3.336   3.826  17.307  0.00  0.00    +0.000 C 
ATOM     17  C   UNL     1       4.622   4.310  16.708  0.00  0.00    +0.000 A 
ATOM     18  C   UNL     1       5.077   3.823  15.479  0.00  0.00    +0.000 A 
ATOM     19  C   UNL     1       6.276   4.287  14.934  0.00  0.00    +0.000 A 
ATOM     20  C   UNL     1       7.029   5.246  15.615  0.00  0.00    +0.000 A 
ATOM     21  C   UNL     1       6.593   5.747  16.848  0.00  0.00    +0.000 A 
ATOM     22  C   UNL     1       5.388   5.269  17.387  0.00  0.00    +0.000 A 
ENDBRANCH   1  21
TORSDOF 2
ENDMDL
MODEL 6
REMARK VINA RESULT:      -8.0      0.952      1.006
REMARK  Name = 
REMARK  3 active torsions:
REMARK  status: ('A' for Active; 'I' for Inactive)
REMARK    1  A    between atoms: C_1  and  C_2
REMARK    2  A    between atoms: C_6  and  C_7
REMARK    3  A    between atoms: C_10  and  C_11
REMARK                            x       y       z     vdW  Elec       q    Type
REMARK                         _______ _______ _______ _____ _____    ______ ____
ROOT
ATOM      1  C   UNL     1       4.871   4.721  16.051  0.00  0.00    +0.000 A 
ATOM      2  N   UNL     1       4.538   3.729  16.893  0.00  0.00    +0.000 NA
ATOM      3  O   UNL     1       3.784   4.367  17.874  0.00  0.00    +0.000 OA
ATOM      4  C   UNL     1       3.731   5.687  17.530  0.00  0.00    +0.000 A 
ATOM      5  N   UNL     1       4.387   5.957  16.425  0.00  0.00    +0.000 NA
ENDROOT
BRANCH   4   6
ATOM      6  C   UNL     1       2.951   6.568  18.389  0.00  0.00    +0.000 A 
ATOM      7  C   UNL     1       2.634   6.159  19.691  0.00  0.00    +0.000 A 
ATOM      8  C   UNL     1       1.931   7.004  20.554  0.00  0.00    +0.000 A 
ATOM      9  C   UNL     1       1.529   8.279  20.131  0.00  0.00    +0.000 A 
ATOM     10  C   UNL     1       0.847   9.151  20.993  0.00  0.00    +0.000 A 
ATOM     11  C   UNL     1       0.455  10.418  20.558  0.00  0.00    +0.000 A 
ATOM     12  C   UNL     1       0.732  10.825  19.256  0.00  0.00    +0.000 A 
ATOM     13  C   UNL     1       1.411   9.970  18.389  0.00  0.00    +0.000 A 
ATOM     14  C   UNL     1       1.822   8.697  18.814  0.00  0.00    +0.000 A 
ATOM     15  C   UNL     1       2.528   7.835  17.959  0.00  0.00    +0.000 A 
ENDBRANCH   4   6
BRANCH   1  21
ATOM     16  C   UNL     1       5.376   2.655  11.540  0.00  0.00    +0.000 C 
ATOM     17  C   UNL     1       5.923   3.526  12.632  0.00  0.00    +0.000 A 
ATOM     18  C   UNL     1       7.164   4.155  12.502  0.00  0.00    +0.000 A 
ATOM     19  C   UNL     1       7.656   4.965  13.527  0.00  0.00    +0.000 A 
ATOM     20  C   UNL     1       6.908   5.154  14.690  0.00  0.00    +0.000 A 
ATOM     21  C   UNL     1       5.662   4.533  14.842  0.00  0.00    +0.000 A 
ATOM     22  C   UNL     1       5.180   3.717  13.806  0.00  0.00    +0.000 A 
ENDBRANCH   1  21
TORSDOF 2
ENDMDL
MODEL 7
REMARK VINA RESULT:      -8.0      3.262      5.037
REMARK  Name = 
REMARK  3 active torsions:
REMARK  status: ('A' for Active; 'I' for Inactive)
REMARK    1  A    between atoms: C_1  and  C_2
REMARK    2  A    between atoms: C_6  and  C_7
REMARK    3  A    between atoms: C_10  and  C_11
REMARK                            x       y       z     vdW  Elec       q    Type
REMARK                         _______ _______ _______ _____ _____    ______ ____
ROOT
ATOM      1  C   UNL     1       2.739   7.494  18.144  0.00  0.00    +0.000 A 
ATOM      2  N   UNL     1       2.623   8.622  17.425  0.00  0.00    +0.000 NA
ATOM      3  O   UNL     1       1.805   9.430  18.209  0.00  0.00    +0.000 OA
ATOM      4  C   UNL     1       1.505   8.713  19.331  0.00  0.00    +0.000 A 
ATOM      5  N   UNL     1       2.047   7.517  19.337  0.00  0.00    +0.000 NA
ENDROOT
BRANCH   4   6
ATOM      6  C   UNL     1       0.686   9.370  20.341  0.00  0.00    +0.000 A 
ATOM      7  C   UNL     1       0.717   8.906  21.663  0.00  0.00    +0.000 A 
ATOM      8  C   UNL     1      -0.018   9.548  22.663  0.00  0.00    +0.000 A 
ATOM      9  C   UNL     1      -0.803  10.670  22.361  0.00  0.00    +0.000 A 
ATOM     10  C   UNL     1      -1.526  11.343  23.356  0.00  0.00    +0.000 A 
ATOM     11  C   UNL     1      -2.303  12.460  23.040  0.00  0.00    +0.000 A 
ATOM     12  C   UNL     1      -2.371  12.910  21.725  0.00  0.00    +0.000 A 
ATOM     13  C   UNL     1      -1.656  12.252  20.725  0.00  0.00    +0.000 A 
ATOM     14  C   UNL     1      -0.863  11.135  21.028  0.00  0.00    +0.000 A 
ATOM     15  C   UNL     1      -0.119  10.478  20.035  0.00  0.00    +0.000 A 
ENDBRANCH   4   6
BRANCH   1  21
ATOM     16  C   UNL     1       3.221   2.542  17.795  0.00  0.00    +0.000 C 
ATOM     17  C   UNL     1       3.773   3.915  17.552  0.00  0.00    +0.000 A 
ATOM     18  C   UNL     1       5.014   4.097  16.935  0.00  0.00    +0.000 A 
ATOM     19  C   UNL     1       5.512   5.383  16.713  0.00  0.00    +0.000 A 
ATOM     20  C   UNL     1       4.769   6.498  17.106  0.00  0.00    +0.000 A 
ATOM     21  C   UNL     1       3.524   6.339  17.728  0.00  0.00    +0.000 A 
ATOM     22  C   UNL     1       3.037   5.041  17.949  0.00  0.00    +0.000 A 
ENDBRANCH   1  21
TORSDOF 2
ENDMDL
MODEL 8
REMARK VINA RESULT:      -8.0      2.623      4.637
REMARK  Name = 
REMARK  3 active torsions:
REMARK  status: ('A' for Active; 'I' for Inactive)
REMARK    1  A    between atoms: C_1  and  C_2
REMARK    2  A    between atoms: C_6  and  C_7
REMARK    3  A    between atoms: C_10  and  C_11
REMARK                            x       y       z     vdW  Elec       q    Type
REMARK                         _______ _______ _______ _____ _____    ______ ____
ROOT
ATOM      1  C   UNL     1       2.993   7.179  17.947  0.00  0.00    +0.000 A 
ATOM      2  N   UNL     1       2.994   8.359  17.305  0.00  0.00    +0.000 NA
ATOM      3  O   UNL     1       2.206   9.174  18.112  0.00  0.00    +0.000 OA
ATOM      4  C   UNL     1       1.803   8.409  19.168  0.00  0.00    +0.000 A 
ATOM      5  N   UNL     1       2.252   7.177  19.110  0.00  0.00    +0.000 NA
ENDROOT
BRANCH   4   6
ATOM      6  C   UNL     1       0.992   9.057  20.189  0.00  0.00    +0.000 A 
ATOM      7  C   UNL     1       1.074   8.619  21.518  0.00  0.00    +0.000 A 
ATOM      8  C   UNL     1       0.347   9.256  22.527  0.00  0.00    +0.000 A 
ATOM      9  C   UNL     1      -0.481  10.347  22.228  0.00  0.00    +0.000 A 
ATOM     10  C   UNL     1      -1.198  11.015  23.231  0.00  0.00    +0.000 A 
ATOM     11  C   UNL     1      -2.018  12.101  22.918  0.00  0.00    +0.000 A 
ATOM     12  C   UNL     1      -2.138  12.525  21.598  0.00  0.00    +0.000 A 
ATOM     13  C   UNL     1      -1.430  11.871  20.589  0.00  0.00    +0.000 A 
ATOM     14  C   UNL     1      -0.593  10.785  20.890  0.00  0.00    +0.000 A 
ATOM     15  C   UNL     1       0.144  10.134  19.887  0.00  0.00    +0.000 A 
ENDBRANCH   4   6
BRANCH   1  21
ATOM     16  C   UNL     1       6.713   5.196  15.283  0.00  0.00    +0.000 C 
ATOM     17  C   UNL     1       5.524   5.013  16.179  0.00  0.00    +0.000 A 
ATOM     18  C   UNL     1       5.103   3.739  16.571  0.00  0.00    +0.000 A 
ATOM     19  C   UNL     1       3.995   3.588  17.408  0.00  0.00    +0.000 A 
ATOM     20  C   UNL     1       3.302   4.712  17.862  0.00  0.00    +0.000 A 
ATOM     21  C   UNL     1       3.706   5.998  17.481  0.00  0.00    +0.000 A 
ATOM     22  C   UNL     1       4.819   6.136  16.635  0.00  0.00    +0.000 A 
ENDBRANCH   1  21
TORSDOF 2
ENDMDL
MODEL 9
REMARK VINA RESULT:      -7.9      0.694      1.620
REMARK  Name = 
REMARK  3 active torsions:
REMARK  status: ('A' for Active; 'I' for Inactive)
REMARK    1  A    between atoms: C_1  and  C_2
REMARK    2  A    between atoms: C_6  and  C_7
REMARK    3  A    between atoms: C_10  and  C_11
REMARK                            x       y       z     vdW  Elec       q    Type
REMARK                         _______ _______ _______ _____ _____    ______ ____
ROOT
ATOM      1  C   UNL     1       5.249   4.506  15.772  0.00  0.00    +0.000 A 
ATOM      2  N   UNL     1       5.198   3.513  16.675  0.00  0.00    +0.000 NA
ATOM      3  O   UNL     1       4.456   4.056  17.721  0.00  0.00    +0.000 OA
ATOM      4  C   UNL     1       4.128   5.328  17.350  0.00  0.00    +0.000 A 
ATOM      5  N   UNL     1       4.596   5.655  16.167  0.00  0.00    +0.000 NA
ENDROOT
BRANCH   4   6
ATOM      6  C   UNL     1       3.303   6.098  18.271  0.00  0.00    +0.000 A 
ATOM      7  C   UNL     1       3.003   5.571  19.534  0.00  0.00    +0.000 A 
ATOM      8  C   UNL     1       2.258   6.309  20.457  0.00  0.00    +0.000 A 
ATOM      9  C   UNL     1       1.795   7.593  20.135  0.00  0.00    +0.000 A 
ATOM     10  C   UNL     1       1.069   8.359  21.059  0.00  0.00    +0.000 A 
ATOM     11  C   UNL     1       0.616   9.637  20.725  0.00  0.00    +0.000 A 
ATOM     12  C   UNL     1       0.876  10.159  19.461  0.00  0.00    +0.000 A 
ATOM     13  C   UNL     1       1.598   9.410  18.533  0.00  0.00    +0.000 A 
ATOM     14  C   UNL     1       2.070   8.129  18.858  0.00  0.00    +0.000 A 
ATOM     15  C   UNL     1       2.819   7.373  17.941  0.00  0.00    +0.000 A 
ENDBRANCH   4   6
BRANCH   1  21
ATOM     16  C   UNL     1       8.930   5.947  12.732  0.00  0.00    +0.000 C 
ATOM     17  C   UNL     1       7.718   5.100  12.984  0.00  0.00    +0.000 A 
ATOM     18  C   UNL     1       7.236   4.220  12.011  0.00  0.00    +0.000 A 
ATOM     19  C   UNL     1       6.108   3.437  12.264  0.00  0.00    +0.000 A 
ATOM     20  C   UNL     1       5.455   3.526  13.495  0.00  0.00    +0.000 A 
ATOM     21  C   UNL     1       5.920   4.402  14.484  0.00  0.00    +0.000 A 
ATOM     22  C   UNL     1       7.053   5.188  14.216  0.00  0.00    +0.000 A 
ENDBRANCH   1  21
TORSDOF 2
ENDMDL
