MODEL 1
REMARK VINA RESULT:      -6.8      0.000      0.000
REMARK  Name = 
REMARK  12 active torsions:
REMARK  status: ('A' for Active; 'I' for Inactive)
REMARK    1  A    between atoms: C_1  and  O_2
REMARK    2  A    between atoms: O_2  and  C_3
REMARK    3  A    between atoms: C_4  and  N_5
REMARK    4  A    between atoms: N_5  and  C_6
REMARK    5  A    between atoms: C_9  and  O_10
REMARK    6  A    between atoms: O_10  and  C_11
REMARK    7  A    between atoms: C_16  and  O_17
REMARK    8  A    between atoms: O_17  and  C_18
REMARK    9  A    between atoms: C_19  and  N_20
REMARK   10  A    between atoms: N_20  and  C_21
REMARK   11  A    between atoms: C_24  and  O_25
REMARK   12  A    between atoms: O_25  and  C_26
REMARK                            x       y       z     vdW  Elec       q    Type
REMARK                         _______ _______ _______ _____ _____    ______ ____
ROOT
ATOM      1  C   UNL     1       0.206  10.496  21.296  0.00  0.00    +0.000 C 
ATOM      2  C   UNL     1      -0.121  10.795  20.023  0.00  0.00    +0.000 C 
ATOM      3  C   UNL     1       0.466   9.990  18.896  0.00  0.00    +0.000 C 
ATOM      4  O   UNL     1       0.299  10.384  17.740  0.00  0.00    +0.000 OA
ATOM      5  C   UNL     1       1.219   8.741  19.205  0.00  0.00    +0.000 C 
ATOM      6  C   UNL     1       1.480   8.407  20.483  0.00  0.00    +0.000 C 
ATOM      7  C   UNL     1       1.114   9.347  21.584  0.00  0.00    +0.000 C 
ATOM      8  O   UNL     1       1.587   9.141  22.702  0.00  0.00    +0.000 OA
ENDROOT
BRANCH   1  10
ATOM      9  C   UNL     1      -1.278  11.004  23.113  0.00  0.00    +0.000 C 
ATOM     10  O   UNL     1      -0.153  11.371  22.320  0.00  0.00    +0.000 OA
ENDBRANCH   1  10
BRANCH   2  11
ATOM     11  N   UNL     1      -0.876  11.894  19.592  0.00  0.00    +0.000 N 
ATOM     12  H   UNL     1      -0.416  12.377  18.815  0.00  0.00    +0.000 HD
BRANCH  11  13
ATOM     13  C   UNL     1      -2.282  11.990  19.495  0.00  0.00    +0.000 A 
ATOM     14  C   UNL     1      -3.081  12.661  20.424  0.00  0.00    +0.000 A 
ATOM     15  C   UNL     1      -4.461  12.782  20.236  0.00  0.00    +0.000 A 
ATOM     16  C   UNL     1      -5.074  12.251  19.102  0.00  0.00    +0.000 A 
ATOM     17  C   UNL     1      -4.300  11.553  18.178  0.00  0.00    +0.000 A 
ATOM     18  C   UNL     1      -2.916  11.427  18.376  0.00  0.00    +0.000 A 
BRANCH  16  19
ATOM     19  O   UNL     1      -6.425  12.436  19.025  0.00  0.00    +0.000 OA
ATOM     20  C   UNL     1      -7.212  11.531  19.792  0.00  0.00    +0.000 C 
ENDBRANCH  16  19
ENDBRANCH  11  13
ENDBRANCH   2  11
BRANCH   5  21
ATOM     21  O   UNL     1       1.785   7.973  18.189  0.00  0.00    +0.000 OA
ATOM     22  C   UNL     1       3.011   8.438  17.639  0.00  0.00    +0.000 C 
ENDBRANCH   5  21
BRANCH   6  23
ATOM     23  N   UNL     1       2.195   7.283  20.913  0.00  0.00    +0.000 N 
ATOM     24  H   UNL     1       2.229   7.232  21.935  0.00  0.00    +0.000 HD
BRANCH  23  25
ATOM     25  C   UNL     1       2.166   5.996  20.327  0.00  0.00    +0.000 A 
ATOM     26  C   UNL     1       3.231   5.457  19.602  0.00  0.00    +0.000 A 
ATOM     27  C   UNL     1       3.176   4.146  19.114  0.00  0.00    +0.000 A 
ATOM     28  C   UNL     1       2.060   3.350  19.357  0.00  0.00    +0.000 A 
ATOM     29  C   UNL     1       0.972   3.887  20.044  0.00  0.00    +0.000 A 
ATOM     30  C   UNL     1       1.029   5.202  20.522  0.00  0.00    +0.000 A 
BRANCH  28  31
ATOM     31  O   UNL     1       2.121   2.082  18.849  0.00  0.00    +0.000 OA
ATOM     32  C   UNL     1       3.431   1.616  18.544  0.00  0.00    +0.000 C 
ENDBRANCH  28  31
ENDBRANCH  23  25
ENDBRANCH   6  23
TORSDOF 8
ENDMDL
MODEL 2
REMARK VINA RESULT:      -6.7      0.172      8.629
REMARK  Name = 
REMARK  12 active torsions:
REMARK  status: ('A' for Active; 'I' for Inactive)
REMARK    1  A    between atoms: C_1  and  O_2
REMARK    2  A    between atoms: O_2  and  C_3
REMARK    3  A    between atoms: C_4  and  N_5
REMARK    4  A    between atoms: N_5  and  C_6
REMARK    5  A    between atoms: C_9  and  O_10
REMARK    6  A    between atoms: O_10  and  C_11
REMARK    7  A    between atoms: C_16  and  O_17
REMARK    8  A    between atoms: O_17  and  C_18
REMARK    9  A    between atoms: C_19  and  N_20
REMARK   10  A    between atoms: N_20  and  C_21
REMARK   11  A    between atoms: C_24  and  O_25
REMARK   12  A    between atoms: O_25  and  C_26
REMARK                            x       y       z     vdW  Elec       q    Type
REMARK                         _______ _______ _______ _____ _____    ______ ____
ROOT
ATOM      1  C   UNL     1       1.209   8.727  19.222  0.00  0.00    +0.000 C 
ATOM      2  C   UNL     1       1.464   8.422  20.509  0.00  0.00    +0.000 C 
ATOM      3  C   UNL     1       1.081   9.392  21.594  0.00  0.00    +0.000 C 
ATOM      4  O   UNL     1       1.477   9.180  22.741  0.00  0.00    +0.000 OA
ATOM      5  C   UNL     1       0.231  10.569  21.254  0.00  0.00    +0.000 C 
ATOM      6  C   UNL     1      -0.083  10.830  19.971  0.00  0.00    +0.000 C 
ATOM      7  C   UNL     1       0.515  10.004  18.879  0.00  0.00    +0.000 C 
ATOM      8  O   UNL     1       0.418  10.416  17.723  0.00  0.00    +0.000 OA
ENDROOT
BRANCH   1  10
ATOM      9  C   UNL     1       3.012   8.363  17.680  0.00  0.00    +0.000 C 
ATOM     10  O   UNL     1       1.758   7.942  18.209  0.00  0.00    +0.000 OA
ENDBRANCH   1  10
BRANCH   2  11
ATOM     11  N   UNL     1       2.188   7.317  20.976  0.00  0.00    +0.000 N 
ATOM     12  H   UNL     1       2.260   7.327  21.998  0.00  0.00    +0.000 HD
BRANCH  11  13
ATOM     13  C   UNL     1       2.165   5.996  20.478  0.00  0.00    +0.000 A 
ATOM     14  C   UNL     1       1.037   5.172  20.514  0.00  0.00    +0.000 A 
ATOM     15  C   UNL     1       1.056   3.896  19.941  0.00  0.00    +0.000 A 
ATOM     16  C   UNL     1       2.199   3.422  19.300  0.00  0.00    +0.000 A 
ATOM     17  C   UNL     1       3.343   4.215  19.279  0.00  0.00    +0.000 A 
ATOM     18  C   UNL     1       3.321   5.491  19.862  0.00  0.00    +0.000 A 
BRANCH  16  19
ATOM     19  O   UNL     1       2.097   2.164  18.774  0.00  0.00    +0.000 OA
ATOM     20  C   UNL     1       3.250   1.693  18.084  0.00  0.00    +0.000 C 
ENDBRANCH  16  19
ENDBRANCH  11  13
ENDBRANCH   2  11
BRANCH   5  21
ATOM     21  O   UNL     1      -0.136  11.495  22.229  0.00  0.00    +0.000 OA
ATOM     22  C   UNL     1      -1.257  11.167  23.039  0.00  0.00    +0.000 C 
ENDBRANCH   5  21
BRANCH   6  23
ATOM     23  N   UNL     1      -0.847  11.908  19.511  0.00  0.00    +0.000 N 
ATOM     24  H   UNL     1      -0.387  12.384  18.729  0.00  0.00    +0.000 HD
BRANCH  23  25
ATOM     25  C   UNL     1      -2.255  11.947  19.390  0.00  0.00    +0.000 A 
ATOM     26  C   UNL     1      -3.086  12.628  20.282  0.00  0.00    +0.000 A 
ATOM     27  C   UNL     1      -4.467  12.699  20.066  0.00  0.00    +0.000 A 
ATOM     28  C   UNL     1      -5.036  12.102  18.944  0.00  0.00    +0.000 A 
ATOM     29  C   UNL     1      -4.226  11.383  18.065  0.00  0.00    +0.000 A 
ATOM     30  C   UNL     1      -2.846  11.308  18.291  0.00  0.00    +0.000 A 
BRANCH  28  31
ATOM     31  O   UNL     1      -6.390  12.248  18.823  0.00  0.00    +0.000 OA
ATOM     32  C   UNL     1      -7.158  11.630  19.851  0.00  0.00    +0.000 C 
ENDBRANCH  28  31
ENDBRANCH  23  25
ENDBRANCH   6  23
TORSDOF 8
ENDMDL
MODEL 3
REMARK VINA RESULT:      -6.7      2.867      8.934
REMARK  Name = 
REMARK  12 active torsions:
REMARK  status: ('A' for Active; 'I' for Inactive)
REMARK    1  A    between atoms: C_1  and  O_2
REMARK    2  A    between atoms: O_2  and  C_3
REMARK    3  A    between atoms: C_4  and  N_5
REMARK    4  A    between atoms: N_5  and  C_6
REMARK    5  A    between atoms: C_9  and  O_10
REMARK    6  A    between atoms: O_10  and  C_11
REMARK    7  A    between atoms: C_16  and  O_17
REMARK    8  A    between atoms: O_17  and  C_18
REMARK    9  A    between atoms: C_19  and  N_20
REMARK   10  A    between atoms: N_20  and  C_21
REMARK   11  A    between atoms: C_24  and  O_25
REMARK   12  A    between atoms: O_25  and  C_26
REMARK                            x       y       z     vdW  Elec       q    Type
REMARK                         _______ _______ _______ _____ _____    ______ ____
ROOT
ATOM      1  C   UNL     1       1.785   8.154  19.038  0.00  0.00    +0.000 C 
ATOM      2  C   UNL     1       1.634   7.969  20.364  0.00  0.00    +0.000 C 
ATOM      3  C   UNL     1       1.269   9.136  21.241  0.00  0.00    +0.000 C 
ATOM      4  O   UNL     1       1.308   8.989  22.464  0.00  0.00    +0.000 OA
ATOM      5  C   UNL     1       0.864  10.425  20.611  0.00  0.00    +0.000 C 
ATOM      6  C   UNL     1       0.947  10.581  19.277  0.00  0.00    +0.000 C 
ATOM      7  C   UNL     1       1.553   9.502  18.440  0.00  0.00    +0.000 C 
ATOM      8  O   UNL     1       1.848   9.771  17.275  0.00  0.00    +0.000 OA
ENDROOT
BRANCH   1  10
ATOM      9  C   UNL     1       3.636   7.371  17.726  0.00  0.00    +0.000 C 
ATOM     10  O   UNL     1       2.337   7.136  18.261  0.00  0.00    +0.000 OA
ENDBRANCH   1  10
BRANCH   2  11
ATOM     11  N   UNL     1       1.910   6.796  21.078  0.00  0.00    +0.000 N 
ATOM     12  H   UNL     1       1.457   6.807  21.998  0.00  0.00    +0.000 HD
BRANCH  11  13
ATOM     13  C   UNL     1       2.010   5.480  20.573  0.00  0.00    +0.000 A 
ATOM     14  C   UNL     1       0.907   4.668  20.300  0.00  0.00    +0.000 A 
ATOM     15  C   UNL     1       1.068   3.399  19.735  0.00  0.00    +0.000 A 
ATOM     16  C   UNL     1       2.336   2.919  19.411  0.00  0.00    +0.000 A 
ATOM     17  C   UNL     1       3.451   3.702  19.704  0.00  0.00    +0.000 A 
ATOM     18  C   UNL     1       3.284   4.971  20.278  0.00  0.00    +0.000 A 
BRANCH  16  19
ATOM     19  O   UNL     1       2.368   1.669  18.860  0.00  0.00    +0.000 OA
ATOM     20  C   UNL     1       3.610   1.288  18.277  0.00  0.00    +0.000 C 
ENDBRANCH  16  19
ENDBRANCH  11  13
ENDBRANCH   2  11
BRANCH   5  21
ATOM     21  O   UNL     1       0.529  11.530  21.390  0.00  0.00    +0.000 OA
ATOM     22  C   UNL     1      -0.804  11.591  21.882  0.00  0.00    +0.000 C 
ENDBRANCH   5  21
BRANCH   6  23
ATOM     23  N   UNL     1       0.625  11.739  18.560  0.00  0.00    +0.000 N 
ATOM     24  H   UNL     1      -0.388  11.885  18.520  0.00  0.00    +0.000 HD
BRANCH  23  25
ATOM     25  C   UNL     1       1.326  12.967  18.592  0.00  0.00    +0.000 A 
ATOM     26  C   UNL     1       2.674  13.094  18.251  0.00  0.00    +0.000 A 
ATOM     27  C   UNL     1       3.294  14.348  18.224  0.00  0.00    +0.000 A 
ATOM     28  C   UNL     1       2.569  15.499  18.525  0.00  0.00    +0.000 A 
ATOM     29  C   UNL     1       1.232  15.386  18.908  0.00  0.00    +0.000 A 
ATOM     30  C   UNL     1       0.620  14.126  18.941  0.00  0.00    +0.000 A 
BRANCH  28  31
ATOM     31  O   UNL     1       3.269  16.671  18.450  0.00  0.00    +0.000 OA
ATOM     32  C   UNL     1       4.676  16.546  18.631  0.00  0.00    +0.000 C 
ENDBRANCH  28  31
ENDBRANCH  23  25
ENDBRANCH   6  23
TORSDOF 8
ENDMDL
MODEL 4
REMARK VINA RESULT:      -6.6      2.836      8.963
REMARK  Name = 
REMARK  12 active torsions:
REMARK  status: ('A' for Active; 'I' for Inactive)
REMARK    1  A    between atoms: C_1  and  O_2
REMARK    2  A    between atoms: O_2  and  C_3
REMARK    3  A    between atoms: C_4  and  N_5
REMARK    4  A    between atoms: N_5  and  C_6
REMARK    5  A    between atoms: C_9  and  O_10
REMARK    6  A    between atoms: O_10  and  C_11
REMARK    7  A    between atoms: C_16  and  O_17
REMARK    8  A    between atoms: O_17  and  C_18
REMARK    9  A    between atoms: C_19  and  N_20
REMARK   10  A    between atoms: N_20  and  C_21
REMARK   11  A    between atoms: C_24  and  O_25
REMARK   12  A    between atoms: O_25  and  C_26
REMARK                            x       y       z     vdW  Elec       q    Type
REMARK                         _______ _______ _______ _____ _____    ______ ____
ROOT
ATOM      1  C   UNL     1       1.770   8.232  18.995  0.00  0.00    +0.000 C 
ATOM      2  C   UNL     1       1.652   8.006  20.319  0.00  0.00    +0.000 C 
ATOM      3  C   UNL     1       1.288   9.140  21.237  0.00  0.00    +0.000 C 
ATOM      4  O   UNL     1       1.357   8.959  22.454  0.00  0.00    +0.000 OA
ATOM      5  C   UNL     1       0.846  10.440  20.655  0.00  0.00    +0.000 C 
ATOM      6  C   UNL     1       0.896  10.636  19.324  0.00  0.00    +0.000 C 
ATOM      7  C   UNL     1       1.501   9.593  18.442  0.00  0.00    +0.000 C 
ATOM      8  O   UNL     1       1.765   9.900  17.280  0.00  0.00    +0.000 OA
ENDROOT
BRANCH   1  10
ATOM      9  C   UNL     1       3.640   7.482  17.691  0.00  0.00    +0.000 C 
ATOM     10  O   UNL     1       2.322   7.247  18.177  0.00  0.00    +0.000 OA
ENDBRANCH   1  10
BRANCH   2  11
ATOM     11  N   UNL     1       1.965   6.818  20.992  0.00  0.00    +0.000 N 
ATOM     12  H   UNL     1       1.534   6.795  21.922  0.00  0.00    +0.000 HD
BRANCH  11  13
ATOM     13  C   UNL     1       2.075   5.520  20.447  0.00  0.00    +0.000 A 
ATOM     14  C   UNL     1       3.281   4.953  20.027  0.00  0.00    +0.000 A 
ATOM     15  C   UNL     1       3.336   3.636  19.560  0.00  0.00    +0.000 A 
ATOM     16  C   UNL     1       2.187   2.847  19.521  0.00  0.00    +0.000 A 
ATOM     17  C   UNL     1       0.970   3.402  19.906  0.00  0.00    +0.000 A 
ATOM     18  C   UNL     1       0.919   4.727  20.366  0.00  0.00    +0.000 A 
BRANCH  16  19
ATOM     19  O   UNL     1       2.365   1.576  19.051  0.00  0.00    +0.000 OA
ATOM     20  C   UNL     1       3.663   1.288  18.539  0.00  0.00    +0.000 C 
ENDBRANCH  16  19
ENDBRANCH  11  13
ENDBRANCH   2  11
BRANCH   5  21
ATOM     21  O   UNL     1       0.510  11.516  21.473  0.00  0.00    +0.000 OA
ATOM     22  C   UNL     1      -0.835  11.582  21.930  0.00  0.00    +0.000 C 
ENDBRANCH   5  21
BRANCH   6  23
ATOM     23  N   UNL     1       0.538  11.809  18.649  0.00  0.00    +0.000 N 
ATOM     24  H   UNL     1      -0.477  11.948  18.655  0.00  0.00    +0.000 HD
BRANCH  23  25
ATOM     25  C   UNL     1       1.233  13.040  18.680  0.00  0.00    +0.000 A 
ATOM     26  C   UNL     1       0.664  14.234  19.130  0.00  0.00    +0.000 A 
ATOM     27  C   UNL     1       1.425  15.405  19.213  0.00  0.00    +0.000 A 
ATOM     28  C   UNL     1       2.773  15.396  18.861  0.00  0.00    +0.000 A 
ATOM     29  C   UNL     1       3.345  14.223  18.372  0.00  0.00    +0.000 A 
ATOM     30  C   UNL     1       2.576  13.056  18.282  0.00  0.00    +0.000 A 
BRANCH  28  31
ATOM     31  O   UNL     1       3.423  16.591  18.998  0.00  0.00    +0.000 OA
ATOM     32  C   UNL     1       4.660  16.528  19.700  0.00  0.00    +0.000 C 
ENDBRANCH  28  31
ENDBRANCH  23  25
ENDBRANCH   6  23
TORSDOF 8
ENDMDL
MODEL 5
REMARK VINA RESULT:      -6.6      2.563      8.713
REMARK  Name = 
REMARK  12 active torsions:
REMARK  status: ('A' for Active; 'I' for Inactive)
REMARK    1  A    between atoms: C_1  and  O_2
REMARK    2  A    between atoms: O_2  and  C_3
REMARK    3  A    between atoms: C_4  and  N_5
REMARK    4  A    between atoms: N_5  and  C_6
REMARK    5  A    between atoms: C_9  and  O_10
REMARK    6  A    between atoms: O_10  and  C_11
REMARK    7  A    between atoms: C_16  and  O_17
REMARK    8  A    between atoms: O_17  and  C_18
REMARK    9  A    between atoms: C_19  and  N_20
REMARK   10  A    between atoms: N_20  and  C_21
REMARK   11  A    between atoms: C_24  and  O_25
REMARK   12  A    between atoms: O_25  and  C_26
REMARK                            x       y       z     vdW  Elec       q    Type
REMARK                         _______ _______ _______ _____ _____    ______ ____
ROOT
ATOM      1  C   UNL     1      -1.184  10.873  18.290  0.00  0.00    +0.000 C 
ATOM      2  C   UNL     1       0.148  11.037  18.409  0.00  0.00    +0.000 C 
ATOM      3  C   UNL     1       0.690  12.307  19.008  0.00  0.00    +0.000 C 
ATOM      4  O   UNL     1       1.903  12.516  18.949  0.00  0.00    +0.000 OA
ATOM      5  C   UNL     1      -0.248  13.265  19.660  0.00  0.00    +0.000 C 
ATOM      6  C   UNL     1      -1.577  13.058  19.601  0.00  0.00    +0.000 C 
ATOM      7  C   UNL     1      -2.116  11.929  18.784  0.00  0.00    +0.000 C 
ATOM      8  O   UNL     1      -3.322  11.916  18.541  0.00  0.00    +0.000 OA
ENDROOT
BRANCH   1  10
ATOM      9  C   UNL     1      -2.294  10.131  16.294  0.00  0.00    +0.000 C 
ATOM     10  O   UNL     1      -1.679   9.808  17.538  0.00  0.00    +0.000 OA
ENDBRANCH   1  10
BRANCH   2  11
ATOM     11  N   UNL     1       1.142  10.187  17.908  0.00  0.00    +0.000 N 
ATOM     12  H   UNL     1       1.880  10.718  17.435  0.00  0.00    +0.000 HD
BRANCH  11  13
ATOM     13  C   UNL     1       1.657   9.014  18.504  0.00  0.00    +0.000 A 
ATOM     14  C   UNL     1       1.386   8.628  19.819  0.00  0.00    +0.000 A 
ATOM     15  C   UNL     1       1.869   7.420  20.331  0.00  0.00    +0.000 A 
ATOM     16  C   UNL     1       2.619   6.558  19.532  0.00  0.00    +0.000 A 
ATOM     17  C   UNL     1       2.925   6.938  18.228  0.00  0.00    +0.000 A 
ATOM     18  C   UNL     1       2.445   8.156  17.722  0.00  0.00    +0.000 A 
BRANCH  16  19
ATOM     19  O   UNL     1       3.031   5.405  20.139  0.00  0.00    +0.000 OA
ATOM     20  C   UNL     1       3.605   4.429  19.276  0.00  0.00    +0.000 C 
ENDBRANCH  16  19
ENDBRANCH  11  13
ENDBRANCH   2  11
BRANCH   5  21
ATOM     21  O   UNL     1       0.214  14.456  20.217  0.00  0.00    +0.000 OA
ATOM     22  C   UNL     1       0.398  15.552  19.331  0.00  0.00    +0.000 C 
ENDBRANCH   5  21
BRANCH   6  23
ATOM     23  N   UNL     1      -2.566  13.885  20.144  0.00  0.00    +0.000 N 
ATOM     24  H   UNL     1      -3.044  14.424  19.415  0.00  0.00    +0.000 HD
BRANCH  23  25
ATOM     25  C   UNL     1      -3.439  13.562  21.209  0.00  0.00    +0.000 A 
ATOM     26  C   UNL     1      -4.829  13.660  21.122  0.00  0.00    +0.000 A 
ATOM     27  C   UNL     1      -5.646  13.249  22.182  0.00  0.00    +0.000 A 
ATOM     28  C   UNL     1      -5.083  12.720  23.341  0.00  0.00    +0.000 A 
ATOM     29  C   UNL     1      -3.696  12.655  23.460  0.00  0.00    +0.000 A 
ATOM     30  C   UNL     1      -2.883  13.075  22.399  0.00  0.00    +0.000 A 
BRANCH  28  31
ATOM     31  O   UNL     1      -5.975  12.336  24.304  0.00  0.00    +0.000 OA
ATOM     32  C   UNL     1      -7.249  12.967  24.234  0.00  0.00    +0.000 C 
ENDBRANCH  28  31
ENDBRANCH  23  25
ENDBRANCH   6  23
TORSDOF 8
ENDMDL
MODEL 6
REMARK VINA RESULT:      -6.5      0.498      1.006
REMARK  Name = 
REMARK  12 active torsions:
REMARK  status: ('A' for Active; 'I' for Inactive)
REMARK    1  A    between atoms: C_1  and  O_2
REMARK    2  A    between atoms: O_2  and  C_3
REMARK    3  A    between atoms: C_4  and  N_5
REMARK    4  A    between atoms: N_5  and  C_6
REMARK    5  A    between atoms: C_9  and  O_10
REMARK    6  A    between atoms: O_10  and  C_11
REMARK    7  A    between atoms: C_16  and  O_17
REMARK    8  A    between atoms: O_17  and  C_18
REMARK    9  A    between atoms: C_19  and  N_20
REMARK   10  A    between atoms: N_20  and  C_21
REMARK   11  A    between atoms: C_24  and  O_25
REMARK   12  A    between atoms: O_25  and  C_26
REMARK                            x       y       z     vdW  Elec       q    Type
REMARK                         _______ _______ _______ _____ _____    ______ ____
ROOT
ATOM      1  C   UNL     1       0.109  10.588  21.251  0.00  0.00    +0.000 C 
ATOM      2  C   UNL     1      -0.217  10.820  19.964  0.00  0.00    +0.000 C 
ATOM      3  C   UNL     1       0.385   9.969  18.879  0.00  0.00    +0.000 C 
ATOM      4  O   UNL     1       0.217  10.304  17.706  0.00  0.00    +0.000 OA
ATOM      5  C   UNL     1       1.155   8.748  19.252  0.00  0.00    +0.000 C 
ATOM      6  C   UNL     1       1.416   8.481  20.545  0.00  0.00    +0.000 C 
ATOM      7  C   UNL     1       1.033   9.468  21.598  0.00  0.00    +0.000 C 
ATOM      8  O   UNL     1       1.504   9.323  22.726  0.00  0.00    +0.000 OA
ENDROOT
BRANCH   1  10
ATOM      9  C   UNL     1      -1.354  11.138  23.073  0.00  0.00    +0.000 C 
ATOM     10  O   UNL     1      -0.266  11.507  22.230  0.00  0.00    +0.000 OA
ENDBRANCH   1  10
BRANCH   2  11
ATOM     11  N   UNL     1      -0.987  11.885  19.479  0.00  0.00    +0.000 N 
ATOM     12  H   UNL     1      -0.496  12.385  18.730  0.00  0.00    +0.000 HD
BRANCH  11  13
ATOM     13  C   UNL     1      -2.386  11.924  19.288  0.00  0.00    +0.000 A 
ATOM     14  C   UNL     1      -3.050  11.235  18.271  0.00  0.00    +0.000 A 
ATOM     15  C   UNL     1      -4.445  11.257  18.176  0.00  0.00    +0.000 A 
ATOM     16  C   UNL     1      -5.211  11.954  19.110  0.00  0.00    +0.000 A 
ATOM     17  C   UNL     1      -4.566  12.672  20.113  0.00  0.00    +0.000 A 
ATOM     18  C   UNL     1      -3.166  12.654  20.199  0.00  0.00    +0.000 A 
BRANCH  16  19
ATOM     19  O   UNL     1      -6.563  11.898  18.918  0.00  0.00    +0.000 OA
ATOM     20  C   UNL     1      -7.105  12.913  18.078  0.00  0.00    +0.000 C 
ENDBRANCH  16  19
ENDBRANCH  11  13
ENDBRANCH   2  11
BRANCH   5  21
ATOM     21  O   UNL     1       1.736   7.940  18.276  0.00  0.00    +0.000 OA
ATOM     22  C   UNL     1       2.928   8.421  17.669  0.00  0.00    +0.000 C 
ENDBRANCH   5  21
BRANCH   6  23
ATOM     23  N   UNL     1       2.145   7.390  21.031  0.00  0.00    +0.000 N 
ATOM     24  H   UNL     1       2.154   7.373  22.055  0.00  0.00    +0.000 HD
BRANCH  23  25
ATOM     25  C   UNL     1       2.162   6.083  20.489  0.00  0.00    +0.000 A 
ATOM     26  C   UNL     1       3.293   5.507  19.906  0.00  0.00    +0.000 A 
ATOM     27  C   UNL     1       3.273   4.181  19.459  0.00  0.00    +0.000 A 
ATOM     28  C   UNL     1       2.124   3.406  19.602  0.00  0.00    +0.000 A 
ATOM     29  C   UNL     1       0.975   3.980  20.144  0.00  0.00    +0.000 A 
ATOM     30  C   UNL     1       0.998   5.310  20.582  0.00  0.00    +0.000 A 
BRANCH  28  31
ATOM     31  O   UNL     1       2.222   2.121  19.147  0.00  0.00    +0.000 OA
ATOM     32  C   UNL     1       2.752   1.984  17.832  0.00  0.00    +0.000 C 
ENDBRANCH  28  31
ENDBRANCH  23  25
ENDBRANCH   6  23
TORSDOF 8
ENDMDL
MODEL 7
REMARK VINA RESULT:      -6.5      0.613      8.519
REMARK  Name = 
REMARK  12 active torsions:
REMARK  status: ('A' for Active; 'I' for Inactive)
REMARK    1  A    between atoms: C_1  and  O_2
REMARK    2  A    between atoms: O_2  and  C_3
REMARK    3  A    between atoms: C_4  and  N_5
REMARK    4  A    between atoms: N_5  and  C_6
REMARK    5  A    between atoms: C_9  and  O_10
REMARK    6  A    between atoms: O_10  and  C_11
REMARK    7  A    between atoms: C_16  and  O_17
REMARK    8  A    between atoms: O_17  and  C_18
REMARK    9  A    between atoms: C_19  and  N_20
REMARK   10  A    between atoms: N_20  and  C_21
REMARK   11  A    between atoms: C_24  and  O_25
REMARK   12  A    between atoms: O_25  and  C_26
REMARK                            x       y       z     vdW  Elec       q    Type
REMARK                         _______ _______ _______ _____ _____    ______ ____
ROOT
ATOM      1  C   UNL     1       1.087   9.249  19.189  0.00  0.00    +0.000 C 
ATOM      2  C   UNL     1       1.386   8.727  20.395  0.00  0.00    +0.000 C 
ATOM      3  C   UNL     1       1.020   9.483  21.643  0.00  0.00    +0.000 C 
ATOM      4  O   UNL     1       1.454   9.082  22.724  0.00  0.00    +0.000 OA
ATOM      5  C   UNL     1       0.140  10.682  21.540  0.00  0.00    +0.000 C 
ATOM      6  C   UNL     1      -0.218  11.157  20.332  0.00  0.00    +0.000 C 
ATOM      7  C   UNL     1       0.362  10.550  19.096  0.00  0.00    +0.000 C 
ATOM      8  O   UNL     1       0.223  11.157  18.033  0.00  0.00    +0.000 OA
ENDROOT
BRANCH   1  10
ATOM      9  C   UNL     1       2.893   9.139  17.612  0.00  0.00    +0.000 C 
ATOM     10  O   UNL     1       1.619   8.667  18.039  0.00  0.00    +0.000 OA
ENDBRANCH   1  10
BRANCH   2  11
ATOM     11  N   UNL     1       2.143   7.574  20.640  0.00  0.00    +0.000 N 
ATOM     12  H   UNL     1       2.391   7.498  21.632  0.00  0.00    +0.000 HD
BRANCH  11  13
ATOM     13  C   UNL     1       1.990   6.299  20.051  0.00  0.00    +0.000 A 
ATOM     14  C   UNL     1       2.621   5.910  18.868  0.00  0.00    +0.000 A 
ATOM     15  C   UNL     1       2.486   4.610  18.371  0.00  0.00    +0.000 A 
ATOM     16  C   UNL     1       1.731   3.661  19.059  0.00  0.00    +0.000 A 
ATOM     17  C   UNL     1       1.070   4.037  20.225  0.00  0.00    +0.000 A 
ATOM     18  C   UNL     1       1.202   5.346  20.714  0.00  0.00    +0.000 A 
BRANCH  16  19
ATOM     19  O   UNL     1       1.677   2.424  18.480  0.00  0.00    +0.000 OA
ATOM     20  C   UNL     1       2.937   1.828  18.188  0.00  0.00    +0.000 C 
ENDBRANCH  16  19
ENDBRANCH  11  13
ENDBRANCH   2  11
BRANCH   5  21
ATOM     21  O   UNL     1      -0.214  11.414  22.672  0.00  0.00    +0.000 OA
ATOM     22  C   UNL     1      -1.437  11.066  23.307  0.00  0.00    +0.000 C 
ENDBRANCH   5  21
BRANCH   6  23
ATOM     23  N   UNL     1      -1.013  12.282  20.090  0.00  0.00    +0.000 N 
ATOM     24  H   UNL     1      -0.524  12.966  19.504  0.00  0.00    +0.000 HD
BRANCH  23  25
ATOM     25  C   UNL     1      -2.406  12.288  19.843  0.00  0.00    +0.000 A 
ATOM     26  C   UNL     1      -2.990  11.718  18.710  0.00  0.00    +0.000 A 
ATOM     27  C   UNL     1      -4.381  11.683  18.560  0.00  0.00    +0.000 A 
ATOM     28  C   UNL     1      -5.210  12.206  19.549  0.00  0.00    +0.000 A 
ATOM     29  C   UNL     1      -4.642  12.816  20.667  0.00  0.00    +0.000 A 
ATOM     30  C   UNL     1      -3.249  12.855  20.808  0.00  0.00    +0.000 A 
BRANCH  28  31
ATOM     31  O   UNL     1      -6.551  12.103  19.306  0.00  0.00    +0.000 OA
ATOM     32  C   UNL     1      -6.920  11.095  18.370  0.00  0.00    +0.000 C 
ENDBRANCH  28  31
ENDBRANCH  23  25
ENDBRANCH   6  23
TORSDOF 8
ENDMDL
MODEL 8
REMARK VINA RESULT:      -6.5      2.472      4.130
REMARK  Name = 
REMARK  12 active torsions:
REMARK  status: ('A' for Active; 'I' for Inactive)
REMARK    1  A    between atoms: C_1  and  O_2
REMARK    2  A    between atoms: O_2  and  C_3
REMARK    3  A    between atoms: C_4  and  N_5
REMARK    4  A    between atoms: N_5  and  C_6
REMARK    5  A    between atoms: C_9  and  O_10
REMARK    6  A    between atoms: O_10  and  C_11
REMARK    7  A    between atoms: C_16  and  O_17
REMARK    8  A    between atoms: O_17  and  C_18
REMARK    9  A    between atoms: C_19  and  N_20
REMARK   10  A    between atoms: N_20  and  C_21
REMARK   11  A    between atoms: C_24  and  O_25
REMARK   12  A    between atoms: O_25  and  C_26
REMARK                            x       y       z     vdW  Elec       q    Type
REMARK                         _______ _______ _______ _____ _____    ______ ____
ROOT
ATOM      1  C   UNL     1      -2.203  11.768  18.720  0.00  0.00    +0.000 C 
ATOM      2  C   UNL     1      -1.910  12.861  19.451  0.00  0.00    +0.000 C 
ATOM      3  C   UNL     1      -0.488  13.114  19.872  0.00  0.00    +0.000 C 
ATOM      4  O   UNL     1      -0.265  14.014  20.683  0.00  0.00    +0.000 OA
ATOM      5  C   UNL     1       0.605  12.281  19.294  0.00  0.00    +0.000 C 
ATOM      6  C   UNL     1       0.310  11.233  18.503  0.00  0.00    +0.000 C 
ATOM      7  C   UNL     1      -1.116  10.836  18.298  0.00  0.00    +0.000 C 
ATOM      8  O   UNL     1      -1.343   9.738  17.789  0.00  0.00    +0.000 OA
ENDROOT
BRANCH   1  10
ATOM      9  C   UNL     1      -4.075  11.644  17.222  0.00  0.00    +0.000 C 
ATOM     10  O   UNL     1      -3.537  11.413  18.520  0.00  0.00    +0.000 OA
ENDBRANCH   1  10
BRANCH   2  11
ATOM     11  N   UNL     1      -2.827  13.766  20.000  0.00  0.00    +0.000 N 
ATOM     12  H   UNL     1      -3.276  14.327  19.269  0.00  0.00    +0.000 HD
BRANCH  11  13
ATOM     13  C   UNL     1      -3.697  13.559  21.094  0.00  0.00    +0.000 A 
ATOM     14  C   UNL     1      -5.058  13.871  21.073  0.00  0.00    +0.000 A 
ATOM     15  C   UNL     1      -5.883  13.578  22.163  0.00  0.00    +0.000 A 
ATOM     16  C   UNL     1      -5.369  12.946  23.295  0.00  0.00    +0.000 A 
ATOM     17  C   UNL     1      -4.008  12.654  23.348  0.00  0.00    +0.000 A 
ATOM     18  C   UNL     1      -3.183  12.958  22.254  0.00  0.00    +0.000 A 
BRANCH  16  19
ATOM     19  O   UNL     1      -6.270  12.706  24.293  0.00  0.00    +0.000 OA
ATOM     20  C   UNL     1      -7.575  13.236  24.080  0.00  0.00    +0.000 C 
ENDBRANCH  16  19
ENDBRANCH  11  13
ENDBRANCH   2  11
BRANCH   5  21
ATOM     21  O   UNL     1       1.933  12.479  19.666  0.00  0.00    +0.000 OA
ATOM     22  C   UNL     1       2.655  13.483  18.966  0.00  0.00    +0.000 C 
ENDBRANCH   5  21
BRANCH   6  23
ATOM     23  N   UNL     1       1.230  10.357  17.917  0.00  0.00    +0.000 N 
ATOM     24  H   UNL     1       2.014  10.865  17.496  0.00  0.00    +0.000 HD
BRANCH  23  25
ATOM     25  C   UNL     1       1.638   9.103  18.428  0.00  0.00    +0.000 A 
ATOM     26  C   UNL     1       2.312   8.144  17.668  0.00  0.00    +0.000 A 
ATOM     27  C   UNL     1       2.762   6.953  18.251  0.00  0.00    +0.000 A 
ATOM     28  C   UNL     1       2.556   6.710  19.606  0.00  0.00    +0.000 A 
ATOM     29  C   UNL     1       1.848   7.638  20.369  0.00  0.00    +0.000 A 
ATOM     30  C   UNL     1       1.393   8.824  19.779  0.00  0.00    +0.000 A 
BRANCH  28  31
ATOM     31  O   UNL     1       3.051   5.524  20.072  0.00  0.00    +0.000 OA
ATOM     32  C   UNL     1       4.156   5.001  19.340  0.00  0.00    +0.000 C 
ENDBRANCH  28  31
ENDBRANCH  23  25
ENDBRANCH   6  23
TORSDOF 8
ENDMDL
MODEL 9
REMARK VINA RESULT:      -6.5      2.783      4.178
REMARK  Name = 
REMARK  12 active torsions:
REMARK  status: ('A' for Active; 'I' for Inactive)
REMARK    1  A    between atoms: C_1  and  O_2
REMARK    2  A    between atoms: O_2  and  C_3
REMARK    3  A    between atoms: C_4  and  N_5
REMARK    4  A    between atoms: N_5  and  C_6
REMARK    5  A    between atoms: C_9  and  O_10
REMARK    6  A    between atoms: O_10  and  C_11
REMARK    7  A    between atoms: C_16  and  O_17
REMARK    8  A    between atoms: O_17  and  C_18
REMARK    9  A    between atoms: C_19  and  N_20
REMARK   10  A    between atoms: N_20  and  C_21
REMARK   11  A    between atoms: C_24  and  O_25
REMARK   12  A    between atoms: O_25  and  C_26
REMARK                            x       y       z     vdW  Elec       q    Type
REMARK                         _______ _______ _______ _____ _____    ______ ____
ROOT
ATOM      1  C   UNL     1       0.751  10.258  20.668  0.00  0.00    +0.000 C 
ATOM      2  C   UNL     1       0.814  10.421  19.332  0.00  0.00    +0.000 C 
ATOM      3  C   UNL     1       1.449   9.354  18.482  0.00  0.00    +0.000 C 
ATOM      4  O   UNL     1       1.657   9.595  17.291  0.00  0.00    +0.000 OA
ATOM      5  C   UNL     1       1.796   8.041  19.096  0.00  0.00    +0.000 C 
ATOM      6  C   UNL     1       1.662   7.858  20.423  0.00  0.00    +0.000 C 
ATOM      7  C   UNL     1       1.273   9.008  21.294  0.00  0.00    +0.000 C 
ATOM      8  O   UNL     1       1.405   8.881  22.512  0.00  0.00    +0.000 OA
ENDROOT
BRANCH   1  10
ATOM      9  C   UNL     1      -0.974  11.339  21.940  0.00  0.00    +0.000 C 
ATOM     10  O   UNL     1       0.372  11.331  21.473  0.00  0.00    +0.000 OA
ENDBRANCH   1  10
BRANCH   2  11
ATOM     11  N   UNL     1       0.458  11.571  18.615  0.00  0.00    +0.000 N 
ATOM     12  H   UNL     1      -0.559  11.689  18.585  0.00  0.00    +0.000 HD
BRANCH  11  13
ATOM     13  C   UNL     1       1.118  12.820  18.603  0.00  0.00    +0.000 A 
ATOM     14  C   UNL     1       2.440  12.996  18.186  0.00  0.00    +0.000 A 
ATOM     15  C   UNL     1       3.016  14.269  18.131  0.00  0.00    +0.000 A 
ATOM     16  C   UNL     1       2.276  15.400  18.473  0.00  0.00    +0.000 A 
ATOM     17  C   UNL     1       0.966  15.243  18.920  0.00  0.00    +0.000 A 
ATOM     18  C   UNL     1       0.396  13.963  18.981  0.00  0.00    +0.000 A 
BRANCH  16  19
ATOM     19  O   UNL     1       2.943  16.589  18.375  0.00  0.00    +0.000 OA
ATOM     20  C   UNL     1       2.852  17.240  17.112  0.00  0.00    +0.000 C 
ENDBRANCH  16  19
ENDBRANCH  11  13
ENDBRANCH   2  11
BRANCH   5  21
ATOM     21  O   UNL     1       2.394   7.032  18.344  0.00  0.00    +0.000 OA
ATOM     22  C   UNL     1       3.661   7.322  17.769  0.00  0.00    +0.000 C 
ENDBRANCH   5  21
BRANCH   6  23
ATOM     23  N   UNL     1       1.974   6.692  21.131  0.00  0.00    +0.000 N 
ATOM     24  H   UNL     1       1.544   6.694  22.061  0.00  0.00    +0.000 HD
BRANCH  23  25
ATOM     25  C   UNL     1       2.057   5.384  20.599  0.00  0.00    +0.000 A 
ATOM     26  C   UNL     1       0.939   4.602  20.301  0.00  0.00    +0.000 A 
ATOM     27  C   UNL     1       1.082   3.345  19.701  0.00  0.00    +0.000 A 
ATOM     28  C   UNL     1       2.345   2.859  19.377  0.00  0.00    +0.000 A 
ATOM     29  C   UNL     1       3.474   3.609  19.705  0.00  0.00    +0.000 A 
ATOM     30  C   UNL     1       3.325   4.862  20.313  0.00  0.00    +0.000 A 
BRANCH  28  31
ATOM     31  O   UNL     1       2.366   1.629  18.779  0.00  0.00    +0.000 OA
ATOM     32  C   UNL     1       3.615   1.257  18.206  0.00  0.00    +0.000 C 
ENDBRANCH  28  31
ENDBRANCH  23  25
ENDBRANCH   6  23
TORSDOF 8
ENDMDL
