MODEL 1
REMARK VINA RESULT:      -8.6      0.000      0.000
REMARK  Name = 
REMARK  9 active torsions:
REMARK  status: ('A' for Active; 'I' for Inactive)
REMARK    1  A    between atoms: C_1  and  C_2
REMARK    2  A    between atoms: C_4  and  C_5
REMARK    3  A    between atoms: C_7  and  N_8
REMARK    4  A    between atoms: C_9  and  C_11
REMARK    5  A    between atoms: C_11  and  O_12
REMARK    6  A    between atoms: C_11  and  C_21
REMARK    7  A    between atoms: O_12  and  C_13
REMARK    8  A    between atoms: C_13  and  C_15
REMARK    9  A    between atoms: C_19  and  C_20
REMARK                            x       y       z     vdW  Elec       q    Type
REMARK                         _______ _______ _______ _____ _____    ______ ____
ROOT
ATOM      1  C   UNL     1       3.571   5.702  18.702  0.00  0.00    +0.000 C 
ENDROOT
BRANCH   1   2
ATOM      2  C   UNL     1       5.047   6.000  18.457  0.00  0.00    +0.000 A 
ATOM      3  C   UNL     1       6.024   5.434  19.293  0.00  0.00    +0.000 A 
ATOM      4  C   UNL     1       7.383   5.691  19.088  0.00  0.00    +0.000 A 
ATOM      5  C   UNL     1       7.788   6.513  18.039  0.00  0.00    +0.000 A 
ATOM      6  C   UNL     1       6.836   7.074  17.192  0.00  0.00    +0.000 A 
ATOM      7  C   UNL     1       5.478   6.812  17.392  0.00  0.00    +0.000 A 
ENDBRANCH   1   2
BRANCH   1   9
ATOM      8  N   UNL     1       2.218   7.332  19.990  0.00  0.00    +0.000 N 
ATOM      9  C   UNL     1       2.700   6.982  18.730  0.00  0.00    +0.000 C 
ATOM     10  O   UNL     1       2.455   7.589  17.685  0.00  0.00    +0.000 OA
ATOM     11  H   UNL     1       2.380   6.682  20.749  0.00  0.00    +0.000 HD
BRANCH   8  18
ATOM     12  C   UNL     1      -0.441   9.798  23.361  0.00  0.00    +0.000 C 
ATOM     13  C   UNL     1       0.102   9.679  21.965  0.00  0.00    +0.000 A 
ATOM     14  C   UNL     1      -0.152  10.685  21.025  0.00  0.00    +0.000 A 
ATOM     15  C   UNL     1       0.362  10.587  19.732  0.00  0.00    +0.000 A 
ATOM     16  C   UNL     1       0.100  11.635  18.691  0.00  0.00    +0.000 C 
ATOM     17  C   UNL     1       1.152   9.481  19.390  0.00  0.00    +0.000 A 
ATOM     18  C   UNL     1       1.419   8.461  20.303  0.00  0.00    +0.000 A 
ATOM     19  C   UNL     1       0.881   8.566  21.594  0.00  0.00    +0.000 A 
ENDBRANCH   8  18
ENDBRANCH   1   9
BRANCH   1  20
ATOM     20  O   UNL     1       3.119   4.850  17.639  0.00  0.00    +0.000 OA
BRANCH  20  21
ATOM     21  C   UNL     1       2.028   4.097  17.953  0.00  0.00    +0.000 C 
ATOM     22  O   UNL     1       1.078   3.955  17.187  0.00  0.00    +0.000 OA
BRANCH  21  23
ATOM     23  C   UNL     1       2.152   3.534  19.292  0.00  0.00    +0.000 A 
ATOM     24  S   UNL     1       0.944   3.963  20.445  0.00  0.00    +0.000 S 
ATOM     25  C   UNL     1       1.674   3.039  21.675  0.00  0.00    +0.000 A 
ATOM     26  C   UNL     1       2.804   2.399  21.228  0.00  0.00    +0.000 A 
ATOM     27  C   UNL     1       3.094   2.669  19.847  0.00  0.00    +0.000 A 
ATOM     28  C   UNL     1       4.267   2.068  19.138  0.00  0.00    +0.000 C 
ENDBRANCH  21  23
ENDBRANCH  20  21
ENDBRANCH   1  20
TORSDOF 6
ENDMDL
MODEL 2
REMARK VINA RESULT:      -8.6      1.222      1.243
REMARK  Name = 
REMARK  9 active torsions:
REMARK  status: ('A' for Active; 'I' for Inactive)
REMARK    1  A    between atoms: C_1  and  C_2
REMARK    2  A    between atoms: C_4  and  C_5
REMARK    3  A    between atoms: C_7  and  N_8
REMARK    4  A    between atoms: C_9  and  C_11
REMARK    5  A    between atoms: C_11  and  O_12
REMARK    6  A    between atoms: C_11  and  C_21
REMARK    7  A    between atoms: O_12  and  C_13
REMARK    8  A    between atoms: C_13  and  C_15
REMARK    9  A    between atoms: C_19  and  C_20
REMARK                            x       y       z     vdW  Elec       q    Type
REMARK                         _______ _______ _______ _____ _____    ______ ____
ROOT
ATOM      1  C   UNL     1       3.554   5.186  18.284  0.00  0.00    +0.000 C 
ENDROOT
BRANCH   1   2
ATOM      2  C   UNL     1       4.840   5.087  17.468  0.00  0.00    +0.000 A 
ATOM      3  C   UNL     1       6.073   4.929  18.122  0.00  0.00    +0.000 A 
ATOM      4  C   UNL     1       7.265   4.835  17.397  0.00  0.00    +0.000 A 
ATOM      5  C   UNL     1       7.242   4.889  16.006  0.00  0.00    +0.000 A 
ATOM      6  C   UNL     1       6.029   5.033  15.338  0.00  0.00    +0.000 A 
ATOM      7  C   UNL     1       4.836   5.120  16.062  0.00  0.00    +0.000 A 
ENDBRANCH   1   2
BRANCH   1   9
ATOM      8  N   UNL     1       2.183   6.826  19.540  0.00  0.00    +0.000 N 
ATOM      9  C   UNL     1       3.097   6.649  18.502  0.00  0.00    +0.000 C 
ATOM     10  O   UNL     1       3.514   7.546  17.765  0.00  0.00    +0.000 OA
ATOM     11  H   UNL     1       1.817   5.994  19.987  0.00  0.00    +0.000 HD
BRANCH   8  18
ATOM     12  C   UNL     1       0.126   9.468  23.187  0.00  0.00    +0.000 C 
ATOM     13  C   UNL     1       0.600   9.361  21.765  0.00  0.00    +0.000 A 
ATOM     14  C   UNL     1       0.515  10.467  20.912  0.00  0.00    +0.000 A 
ATOM     15  C   UNL     1       0.967  10.378  19.595  0.00  0.00    +0.000 A 
ATOM     16  C   UNL     1       0.879  11.536  18.645  0.00  0.00    +0.000 C 
ATOM     17  C   UNL     1       1.525   9.176  19.141  0.00  0.00    +0.000 A 
ATOM     18  C   UNL     1       1.620   8.055  19.967  0.00  0.00    +0.000 A 
ATOM     19  C   UNL     1       1.145   8.156  21.282  0.00  0.00    +0.000 A 
ENDBRANCH   8  18
ENDBRANCH   1   9
BRANCH   1  20
ATOM     20  O   UNL     1       2.532   4.477  17.568  0.00  0.00    +0.000 OA
BRANCH  20  21
ATOM     21  C   UNL     1       2.428   3.160  17.902  0.00  0.00    +0.000 C 
ATOM     22  O   UNL     1       2.424   2.262  17.064  0.00  0.00    +0.000 OA
BRANCH  21  23
ATOM     23  C   UNL     1       2.302   2.997  19.345  0.00  0.00    +0.000 A 
ATOM     24  S   UNL     1       0.788   3.408  20.058  0.00  0.00    +0.000 S 
ATOM     25  C   UNL     1       1.327   3.020  21.626  0.00  0.00    +0.000 A 
ATOM     26  C   UNL     1       2.625   2.570  21.620  0.00  0.00    +0.000 A 
ATOM     27  C   UNL     1       3.205   2.543  20.306  0.00  0.00    +0.000 A 
ATOM     28  C   UNL     1       4.603   2.074  20.053  0.00  0.00    +0.000 C 
ENDBRANCH  21  23
ENDBRANCH  20  21
ENDBRANCH   1  20
TORSDOF 6
ENDMDL
MODEL 3
REMARK VINA RESULT:      -8.5      1.871      4.402
REMARK  Name = 
REMARK  9 active torsions:
REMARK  status: ('A' for Active; 'I' for Inactive)
REMARK    1  A    between atoms: C_1  and  C_2
REMARK    2  A    between atoms: C_4  and  C_5
REMARK    3  A    between atoms: C_7  and  N_8
REMARK    4  A    between atoms: C_9  and  C_11
REMARK    5  A    between atoms: C_11  and  O_12
REMARK    6  A    between atoms: C_11  and  C_21
REMARK    7  A    between atoms: O_12  and  C_13
REMARK    8  A    between atoms: C_13  and  C_15
REMARK    9  A    between atoms: C_19  and  C_20
REMARK                            x       y       z     vdW  Elec       q    Type
REMARK                         _______ _______ _______ _____ _____    ______ ____
ROOT
ATOM      1  C   UNL     1       3.268   5.952  18.345  0.00  0.00    +0.000 C 
ENDROOT
BRANCH   1   2
ATOM      2  C   UNL     1       2.399   4.842  18.929  0.00  0.00    +0.000 A 
ATOM      3  C   UNL     1       1.754   3.934  18.072  0.00  0.00    +0.000 A 
ATOM      4  C   UNL     1       0.953   2.908  18.583  0.00  0.00    +0.000 A 
ATOM      5  C   UNL     1       0.790   2.769  19.959  0.00  0.00    +0.000 A 
ATOM      6  C   UNL     1       1.430   3.651  20.825  0.00  0.00    +0.000 A 
ATOM      7  C   UNL     1       2.236   4.672  20.316  0.00  0.00    +0.000 A 
ENDBRANCH   1   2
BRANCH   1   9
ATOM      8  N   UNL     1       1.970   7.580  19.691  0.00  0.00    +0.000 N 
ATOM      9  C   UNL     1       2.619   7.351  18.478  0.00  0.00    +0.000 C 
ATOM     10  O   UNL     1       2.671   8.150  17.541  0.00  0.00    +0.000 OA
ATOM     11  H   UNL     1       1.884   6.799  20.329  0.00  0.00    +0.000 HD
BRANCH   8  18
ATOM     12  C   UNL     1      -0.601  10.027  23.143  0.00  0.00    +0.000 C 
ATOM     13  C   UNL     1       0.040   9.984  21.785  0.00  0.00    +0.000 A 
ATOM     14  C   UNL     1       0.013  11.114  20.959  0.00  0.00    +0.000 A 
ATOM     15  C   UNL     1       0.620  11.085  19.704  0.00  0.00    +0.000 A 
ATOM     16  C   UNL     1       0.600  12.269  18.783  0.00  0.00    +0.000 C 
ATOM     17  C   UNL     1       1.274   9.918  19.285  0.00  0.00    +0.000 A 
ATOM     18  C   UNL     1       1.314   8.774  20.083  0.00  0.00    +0.000 A 
ATOM     19  C   UNL     1       0.684   8.815  21.335  0.00  0.00    +0.000 A 
ENDBRANCH   8  18
ENDBRANCH   1   9
BRANCH   1  20
ATOM     20  O   UNL     1       4.515   5.944  19.057  0.00  0.00    +0.000 OA
BRANCH  20  21
ATOM     21  C   UNL     1       5.326   4.893  18.750  0.00  0.00    +0.000 C 
ATOM     22  O   UNL     1       5.605   4.013  19.560  0.00  0.00    +0.000 OA
BRANCH  21  23
ATOM     23  C   UNL     1       5.807   4.989  17.377  0.00  0.00    +0.000 A 
ATOM     24  S   UNL     1       5.179   3.860  16.238  0.00  0.00    +0.000 S 
ATOM     25  C   UNL     1       6.114   4.499  14.966  0.00  0.00    +0.000 A 
ATOM     26  C   UNL     1       6.879   5.561  15.381  0.00  0.00    +0.000 A 
ATOM     27  C   UNL     1       6.711   5.864  16.775  0.00  0.00    +0.000 A 
ATOM     28  C   UNL     1       7.431   6.991  17.446  0.00  0.00    +0.000 C 
ENDBRANCH  21  23
ENDBRANCH  20  21
ENDBRANCH   1  20
TORSDOF 6
ENDMDL
MODEL 4
REMARK VINA RESULT:      -8.4      0.976      1.939
REMARK  Name = 
REMARK  9 active torsions:
REMARK  status: ('A' for Active; 'I' for Inactive)
REMARK    1  A    between atoms: C_1  and  C_2
REMARK    2  A    between atoms: C_4  and  C_5
REMARK    3  A    between atoms: C_7  and  N_8
REMARK    4  A    between atoms: C_9  and  C_11
REMARK    5  A    between atoms: C_11  and  O_12
REMARK    6  A    between atoms: C_11  and  C_21
REMARK    7  A    between atoms: O_12  and  C_13
REMARK    8  A    between atoms: C_13  and  C_15
REMARK    9  A    between atoms: C_19  and  C_20
REMARK                            x       y       z     vdW  Elec       q    Type
REMARK                         _______ _______ _______ _____ _____    ______ ____
ROOT
ATOM      1  C   UNL     1       3.424   5.436  18.361  0.00  0.00    +0.000 C 
ENDROOT
BRANCH   1   2
ATOM      2  C   UNL     1       4.766   5.443  17.634  0.00  0.00    +0.000 A 
ATOM      3  C   UNL     1       5.958   5.569  18.366  0.00  0.00    +0.000 A 
ATOM      4  C   UNL     1       7.199   5.577  17.723  0.00  0.00    +0.000 A 
ATOM      5  C   UNL     1       7.269   5.452  16.338  0.00  0.00    +0.000 A 
ATOM      6  C   UNL     1       6.100   5.314  15.595  0.00  0.00    +0.000 A 
ATOM      7  C   UNL     1       4.859   5.299  16.238  0.00  0.00    +0.000 A 
ENDBRANCH   1   2
BRANCH   1   9
ATOM      8  N   UNL     1       2.097   7.000  19.753  0.00  0.00    +0.000 N 
ATOM      9  C   UNL     1       2.867   6.860  18.599  0.00  0.00    +0.000 C 
ATOM     10  O   UNL     1       3.087   7.757  17.783  0.00  0.00    +0.000 OA
ATOM     11  H   UNL     1       1.879   6.159  20.274  0.00  0.00    +0.000 HD
BRANCH   8  18
ATOM     12  C   UNL     1       0.570  11.606  18.773  0.00  0.00    +0.000 C 
ATOM     13  C   UNL     1       0.735  10.468  19.740  0.00  0.00    +0.000 A 
ATOM     14  C   UNL     1       0.258  10.586  21.050  0.00  0.00    +0.000 A 
ATOM     15  C   UNL     1       0.395   9.527  21.948  0.00  0.00    +0.000 A 
ATOM     16  C   UNL     1      -0.088   9.620  23.365  0.00  0.00    +0.000 C 
ATOM     17  C   UNL     1       0.998   8.337  21.519  0.00  0.00    +0.000 A 
ATOM     18  C   UNL     1       1.486   8.191  20.220  0.00  0.00    +0.000 A 
ATOM     19  C   UNL     1       1.357   9.271  19.335  0.00  0.00    +0.000 A 
ENDBRANCH   8  18
ENDBRANCH   1   9
BRANCH   1  20
ATOM     20  O   UNL     1       2.497   4.698  17.551  0.00  0.00    +0.000 OA
BRANCH  20  21
ATOM     21  C   UNL     1       2.439   3.367  17.840  0.00  0.00    +0.000 C 
ATOM     22  O   UNL     1       2.472   2.499  16.972  0.00  0.00    +0.000 OA
BRANCH  21  23
ATOM     23  C   UNL     1       2.313   3.152  19.276  0.00  0.00    +0.000 A 
ATOM     24  S   UNL     1       0.799   3.538  20.003  0.00  0.00    +0.000 S 
ATOM     25  C   UNL     1       1.338   3.091  21.556  0.00  0.00    +0.000 A 
ATOM     26  C   UNL     1       2.635   2.640  21.533  0.00  0.00    +0.000 A 
ATOM     27  C   UNL     1       3.215   2.662  20.219  0.00  0.00    +0.000 A 
ATOM     28  C   UNL     1       4.612   2.200  19.949  0.00  0.00    +0.000 C 
ENDBRANCH  21  23
ENDBRANCH  20  21
ENDBRANCH   1  20
TORSDOF 6
ENDMDL
MODEL 5
REMARK VINA RESULT:      -8.4      1.844      4.650
REMARK  Name = 
REMARK  9 active torsions:
REMARK  status: ('A' for Active; 'I' for Inactive)
REMARK    1  A    between atoms: C_1  and  C_2
REMARK    2  A    between atoms: C_4  and  C_5
REMARK    3  A    between atoms: C_7  and  N_8
REMARK    4  A    between atoms: C_9  and  C_11
REMARK    5  A    between atoms: C_11  and  O_12
REMARK    6  A    between atoms: C_11  and  C_21
REMARK    7  A    between atoms: O_12  and  C_13
REMARK    8  A    between atoms: C_13  and  C_15
REMARK    9  A    between atoms: C_19  and  C_20
REMARK                            x       y       z     vdW  Elec       q    Type
REMARK                         _______ _______ _______ _____ _____    ______ ____
ROOT
ATOM      1  C   UNL     1       3.261   5.839  18.394  0.00  0.00    +0.000 C 
ENDROOT
BRANCH   1   2
ATOM      2  C   UNL     1       2.385   4.710  18.930  0.00  0.00    +0.000 A 
ATOM      3  C   UNL     1       2.162   4.593  20.312  0.00  0.00    +0.000 A 
ATOM      4  C   UNL     1       1.361   3.568  20.826  0.00  0.00    +0.000 A 
ATOM      5  C   UNL     1       0.766   2.649  19.966  0.00  0.00    +0.000 A 
ATOM      6  C   UNL     1       0.965   2.755  18.593  0.00  0.00    +0.000 A 
ATOM      7  C   UNL     1       1.759   3.783  18.077  0.00  0.00    +0.000 A 
ENDBRANCH   1   2
BRANCH   1   9
ATOM      8  N   UNL     1       1.986   7.439  19.795  0.00  0.00    +0.000 N 
ATOM      9  C   UNL     1       2.609   7.233  18.565  0.00  0.00    +0.000 C 
ATOM     10  O   UNL     1       2.638   8.049  17.641  0.00  0.00    +0.000 OA
ATOM     11  H   UNL     1       1.916   6.646  20.421  0.00  0.00    +0.000 HD
BRANCH   8  18
ATOM     12  C   UNL     1       0.609  12.083  18.772  0.00  0.00    +0.000 C 
ATOM     13  C   UNL     1       0.656  10.919  19.720  0.00  0.00    +0.000 A 
ATOM     14  C   UNL     1       0.034  11.007  20.971  0.00  0.00    +0.000 A 
ATOM     15  C   UNL     1       0.061   9.923  21.850  0.00  0.00    +0.000 A 
ATOM     16  C   UNL     1      -0.580   9.983  23.204  0.00  0.00    +0.000 C 
ATOM     17  C   UNL     1       0.701   8.740  21.460  0.00  0.00    +0.000 A 
ATOM     18  C   UNL     1       1.334   8.623  20.221  0.00  0.00    +0.000 A 
ATOM     19  C   UNL     1       1.312   9.727  19.357  0.00  0.00    +0.000 A 
ENDBRANCH   8  18
ENDBRANCH   1   9
BRANCH   1  20
ATOM     20  O   UNL     1       4.499   5.808  19.120  0.00  0.00    +0.000 OA
BRANCH  20  21
ATOM     21  C   UNL     1       5.319   4.774  18.781  0.00  0.00    +0.000 C 
ATOM     22  O   UNL     1       5.603   3.870  19.561  0.00  0.00    +0.000 OA
BRANCH  21  23
ATOM     23  C   UNL     1       5.805   4.923  17.414  0.00  0.00    +0.000 A 
ATOM     24  S   UNL     1       5.186   3.831  16.233  0.00  0.00    +0.000 S 
ATOM     25  C   UNL     1       6.121   4.520  14.987  0.00  0.00    +0.000 A 
ATOM     26  C   UNL     1       6.880   5.570  15.443  0.00  0.00    +0.000 A 
ATOM     27  C   UNL     1       6.706   5.822  16.847  0.00  0.00    +0.000 A 
ATOM     28  C   UNL     1       7.419   6.928  17.560  0.00  0.00    +0.000 C 
ENDBRANCH  21  23
ENDBRANCH  20  21
ENDBRANCH   1  20
TORSDOF 6
ENDMDL
MODEL 6
REMARK VINA RESULT:      -8.4      0.646      1.165
REMARK  Name = 
REMARK  9 active torsions:
REMARK  status: ('A' for Active; 'I' for Inactive)
REMARK    1  A    between atoms: C_1  and  C_2
REMARK    2  A    between atoms: C_4  and  C_5
REMARK    3  A    between atoms: C_7  and  N_8
REMARK    4  A    between atoms: C_9  and  C_11
REMARK    5  A    between atoms: C_11  and  O_12
REMARK    6  A    between atoms: C_11  and  C_21
REMARK    7  A    between atoms: O_12  and  C_13
REMARK    8  A    between atoms: C_13  and  C_15
REMARK    9  A    between atoms: C_19  and  C_20
REMARK                            x       y       z     vdW  Elec       q    Type
REMARK                         _______ _______ _______ _____ _____    ______ ____
ROOT
ATOM      1  C   UNL     1       3.468   5.614  18.752  0.00  0.00    +0.000 C 
ENDROOT
BRANCH   1   2
ATOM      2  C   UNL     1       4.942   5.882  18.465  0.00  0.00    +0.000 A 
ATOM      3  C   UNL     1       5.309   6.666  17.358  0.00  0.00    +0.000 A 
ATOM      4  C   UNL     1       6.653   6.926  17.075  0.00  0.00    +0.000 A 
ATOM      5  C   UNL     1       7.652   6.413  17.898  0.00  0.00    +0.000 A 
ATOM      6  C   UNL     1       7.309   5.644  19.006  0.00  0.00    +0.000 A 
ATOM      7  C   UNL     1       5.965   5.389  19.294  0.00  0.00    +0.000 A 
ENDBRANCH   1   2
BRANCH   1   9
ATOM      8  N   UNL     1       2.175   7.289  20.044  0.00  0.00    +0.000 N 
ATOM      9  C   UNL     1       2.620   6.909  18.778  0.00  0.00    +0.000 C 
ATOM     10  O   UNL     1       2.359   7.501  17.729  0.00  0.00    +0.000 OA
ATOM     11  H   UNL     1       2.345   6.649  20.810  0.00  0.00    +0.000 HD
BRANCH   8  18
ATOM     12  C   UNL     1      -0.432   9.815  23.410  0.00  0.00    +0.000 C 
ATOM     13  C   UNL     1       0.112   9.685  22.016  0.00  0.00    +0.000 A 
ATOM     14  C   UNL     1      -0.114  10.698  21.077  0.00  0.00    +0.000 A 
ATOM     15  C   UNL     1       0.401  10.589  19.785  0.00  0.00    +0.000 A 
ATOM     16  C   UNL     1       0.168  11.645  18.745  0.00  0.00    +0.000 C 
ATOM     17  C   UNL     1       1.164   9.465  19.443  0.00  0.00    +0.000 A 
ATOM     18  C   UNL     1       1.404   8.437  20.356  0.00  0.00    +0.000 A 
ATOM     19  C   UNL     1       0.864   8.553  21.645  0.00  0.00    +0.000 A 
ENDBRANCH   8  18
ENDBRANCH   1   9
BRANCH   1  20
ATOM     20  O   UNL     1       2.975   4.751  17.716  0.00  0.00    +0.000 OA
BRANCH  20  21
ATOM     21  C   UNL     1       3.084   3.422  17.997  0.00  0.00    +0.000 C 
ATOM     22  O   UNL     1       3.481   2.601  17.174  0.00  0.00    +0.000 OA
BRANCH  21  23
ATOM     23  C   UNL     1       2.651   3.141  19.361  0.00  0.00    +0.000 A 
ATOM     24  S   UNL     1       1.027   3.542  19.772  0.00  0.00    +0.000 S 
ATOM     25  C   UNL     1       1.213   3.002  21.377  0.00  0.00    +0.000 A 
ATOM     26  C   UNL     1       2.475   2.509  21.603  0.00  0.00    +0.000 A 
ATOM     27  C   UNL     1       3.322   2.576  20.444  0.00  0.00    +0.000 A 
ATOM     28  C   UNL     1       4.733   2.081  20.450  0.00  0.00    +0.000 C 
ENDBRANCH  21  23
ENDBRANCH  20  21
ENDBRANCH   1  20
TORSDOF 6
ENDMDL
MODEL 7
REMARK VINA RESULT:      -8.4      0.965      2.101
REMARK  Name = 
REMARK  9 active torsions:
REMARK  status: ('A' for Active; 'I' for Inactive)
REMARK    1  A    between atoms: C_1  and  C_2
REMARK    2  A    between atoms: C_4  and  C_5
REMARK    3  A    between atoms: C_7  and  N_8
REMARK    4  A    between atoms: C_9  and  C_11
REMARK    5  A    between atoms: C_11  and  O_12
REMARK    6  A    between atoms: C_11  and  C_21
REMARK    7  A    between atoms: O_12  and  C_13
REMARK    8  A    between atoms: C_13  and  C_15
REMARK    9  A    between atoms: C_19  and  C_20
REMARK                            x       y       z     vdW  Elec       q    Type
REMARK                         _______ _______ _______ _____ _____    ______ ____
ROOT
ATOM      1  C   UNL     1       3.761   5.491  18.616  0.00  0.00    +0.000 C 
ENDROOT
BRANCH   1   2
ATOM      2  C   UNL     1       5.206   5.952  18.451  0.00  0.00    +0.000 A 
ATOM      3  C   UNL     1       6.208   5.424  19.281  0.00  0.00    +0.000 A 
ATOM      4  C   UNL     1       7.540   5.829  19.148  0.00  0.00    +0.000 A 
ATOM      5  C   UNL     1       7.891   6.765  18.178  0.00  0.00    +0.000 A 
ATOM      6  C   UNL     1       6.915   7.292  17.338  0.00  0.00    +0.000 A 
ATOM      7  C   UNL     1       5.584   6.881  17.465  0.00  0.00    +0.000 A 
ENDBRANCH   1   2
BRANCH   1   9
ATOM      8  N   UNL     1       2.509   7.151  19.967  0.00  0.00    +0.000 N 
ATOM      9  C   UNL     1       2.762   6.671  18.682  0.00  0.00    +0.000 C 
ATOM     10  O   UNL     1       2.233   7.096  17.652  0.00  0.00    +0.000 OA
ATOM     11  H   UNL     1       2.903   6.635  20.744  0.00  0.00    +0.000 HD
BRANCH   8  18
ATOM     12  C   UNL     1       0.232  11.321  18.574  0.00  0.00    +0.000 C 
ATOM     13  C   UNL     1       0.535  10.293  19.627  0.00  0.00    +0.000 A 
ATOM     14  C   UNL     1      -0.048  10.395  20.896  0.00  0.00    +0.000 A 
ATOM     15  C   UNL     1       0.217   9.436  21.873  0.00  0.00    +0.000 A 
ATOM     16  C   UNL     1      -0.375   9.518  23.248  0.00  0.00    +0.000 C 
ATOM     17  C   UNL     1       1.058   8.358  21.565  0.00  0.00    +0.000 A 
ATOM     18  C   UNL     1       1.657   8.231  20.311  0.00  0.00    +0.000 A 
ATOM     19  C   UNL     1       1.394   9.213  19.346  0.00  0.00    +0.000 A 
ENDBRANCH   8  18
ENDBRANCH   1   9
BRANCH   1  20
ATOM     20  O   UNL     1       3.438   4.665  17.487  0.00  0.00    +0.000 OA
BRANCH  20  21
ATOM     21  C   UNL     1       2.615   3.619  17.778  0.00  0.00    +0.000 C 
ATOM     22  O   UNL     1       1.801   3.173  16.975  0.00  0.00    +0.000 OA
BRANCH  21  23
ATOM     23  C   UNL     1       2.829   3.153  19.143  0.00  0.00    +0.000 A 
ATOM     24  S   UNL     1       4.241   2.213  19.446  0.00  0.00    +0.000 S 
ATOM     25  C   UNL     1       3.861   2.022  21.094  0.00  0.00    +0.000 A 
ATOM     26  C   UNL     1       2.695   2.668  21.425  0.00  0.00    +0.000 A 
ATOM     27  C   UNL     1       2.085   3.335  20.308  0.00  0.00    +0.000 A 
ATOM     28  C   UNL     1       0.816   4.118  20.433  0.00  0.00    +0.000 C 
ENDBRANCH  21  23
ENDBRANCH  20  21
ENDBRANCH   1  20
TORSDOF 6
ENDMDL
MODEL 8
REMARK VINA RESULT:      -8.3      2.226      3.374
REMARK  Name = 
REMARK  9 active torsions:
REMARK  status: ('A' for Active; 'I' for Inactive)
REMARK    1  A    between atoms: C_1  and  C_2
REMARK    2  A    between atoms: C_4  and  C_5
REMARK    3  A    between atoms: C_7  and  N_8
REMARK    4  A    between atoms: C_9  and  C_11
REMARK    5  A    between atoms: C_11  and  O_12
REMARK    6  A    between atoms: C_11  and  C_21
REMARK    7  A    between atoms: O_12  and  C_13
REMARK    8  A    between atoms: C_13  and  C_15
REMARK    9  A    between atoms: C_19  and  C_20
REMARK                            x       y       z     vdW  Elec       q    Type
REMARK                         _______ _______ _______ _____ _____    ______ ____
ROOT
ATOM      1  C   UNL     1       4.886   3.885  17.904  0.00  0.00    +0.000 C 
ENDROOT
BRANCH   1   2
ATOM      2  C   UNL     1       5.616   4.207  16.603  0.00  0.00    +0.000 A 
ATOM      3  C   UNL     1       4.991   3.959  15.370  0.00  0.00    +0.000 A 
ATOM      4  C   UNL     1       5.639   4.247  14.165  0.00  0.00    +0.000 A 
ATOM      5  C   UNL     1       6.920   4.795  14.174  0.00  0.00    +0.000 A 
ATOM      6  C   UNL     1       7.551   5.060  15.386  0.00  0.00    +0.000 A 
ATOM      7  C   UNL     1       6.901   4.778  16.591  0.00  0.00    +0.000 A 
ENDBRANCH   1   2
BRANCH   1   9
ATOM      8  N   UNL     1       3.266   5.734  18.224  0.00  0.00    +0.000 N 
ATOM      9  C   UNL     1       4.451   5.155  18.675  0.00  0.00    +0.000 C 
ATOM     10  O   UNL     1       5.152   5.597  19.587  0.00  0.00    +0.000 OA
ATOM     11  H   UNL     1       2.851   5.353  17.382  0.00  0.00    +0.000 HD
BRANCH   8  18
ATOM     12  C   UNL     1       1.959  10.473  17.637  0.00  0.00    +0.000 C 
ATOM     13  C   UNL     1       1.989   9.226  18.474  0.00  0.00    +0.000 A 
ATOM     14  C   UNL     1       1.370   9.208  19.729  0.00  0.00    +0.000 A 
ATOM     15  C   UNL     1       1.382   8.048  20.504  0.00  0.00    +0.000 A 
ATOM     16  C   UNL     1       0.743   7.992  21.860  0.00  0.00    +0.000 C 
ATOM     17  C   UNL     1       2.003   6.895  20.005  0.00  0.00    +0.000 A 
ATOM     18  C   UNL     1       2.632   6.884  18.759  0.00  0.00    +0.000 A 
ATOM     19  C   UNL     1       2.627   8.063  18.000  0.00  0.00    +0.000 A 
ENDBRANCH   8  18
ENDBRANCH   1   9
BRANCH   1  20
ATOM     20  O   UNL     1       3.720   3.118  17.567  0.00  0.00    +0.000 OA
BRANCH  20  21
ATOM     21  C   UNL     1       3.517   2.031  18.364  0.00  0.00    +0.000 C 
ATOM     22  O   UNL     1       3.929   0.911  18.073  0.00  0.00    +0.000 OA
BRANCH  21  23
ATOM     23  C   UNL     1       2.747   2.390  19.549  0.00  0.00    +0.000 A 
ATOM     24  S   UNL     1       3.583   2.421  21.055  0.00  0.00    +0.000 S 
ATOM     25  C   UNL     1       2.181   2.862  21.917  0.00  0.00    +0.000 A 
ATOM     26  C   UNL     1       1.097   3.003  21.085  0.00  0.00    +0.000 A 
ATOM     27  C   UNL     1       1.407   2.739  19.707  0.00  0.00    +0.000 A 
ATOM     28  C   UNL     1       0.386   2.846  18.619  0.00  0.00    +0.000 C 
ENDBRANCH  21  23
ENDBRANCH  20  21
ENDBRANCH   1  20
TORSDOF 6
ENDMDL
MODEL 9
REMARK VINA RESULT:      -8.3      2.473      4.706
REMARK  Name = 
REMARK  9 active torsions:
REMARK  status: ('A' for Active; 'I' for Inactive)
REMARK    1  A    between atoms: C_1  and  C_2
REMARK    2  A    between atoms: C_4  and  C_5
REMARK    3  A    between atoms: C_7  and  N_8
REMARK    4  A    between atoms: C_9  and  C_11
REMARK    5  A    between atoms: C_11  and  O_12
REMARK    6  A    between atoms: C_11  and  C_21
REMARK    7  A    between atoms: O_12  and  C_13
REMARK    8  A    between atoms: C_13  and  C_15
REMARK    9  A    between atoms: C_19  and  C_20
REMARK                            x       y       z     vdW  Elec       q    Type
REMARK                         _______ _______ _______ _____ _____    ______ ____
ROOT
ATOM      1  C   UNL     1       3.080   6.014  18.616  0.00  0.00    +0.000 C 
ENDROOT
BRANCH   1   2
ATOM      2  C   UNL     1       2.249   4.799  19.017  0.00  0.00    +0.000 A 
ATOM      3  C   UNL     1       1.940   4.578  20.369  0.00  0.00    +0.000 A 
ATOM      4  C   UNL     1       1.179   3.472  20.761  0.00  0.00    +0.000 A 
ATOM      5  C   UNL     1       0.709   2.573  19.807  0.00  0.00    +0.000 A 
ATOM      6  C   UNL     1       0.995   2.781  18.461  0.00  0.00    +0.000 A 
ATOM      7  C   UNL     1       1.749   3.890  18.067  0.00  0.00    +0.000 A 
ENDBRANCH   1   2
BRANCH   1   9
ATOM      8  N   UNL     1       2.164   8.244  18.036  0.00  0.00    +0.000 N 
ATOM      9  C   UNL     1       2.441   7.349  19.069  0.00  0.00    +0.000 C 
ATOM     10  O   UNL     1       2.244   7.568  20.267  0.00  0.00    +0.000 OA
ATOM     11  H   UNL     1       2.492   8.003  17.109  0.00  0.00    +0.000 HD
BRANCH   8  18
ATOM     12  C   UNL     1      -1.974  10.917  18.530  0.00  0.00    +0.000 C 
ATOM     13  C   UNL     1      -0.479  10.845  18.406  0.00  0.00    +0.000 A 
ATOM     14  C   UNL     1       0.287  12.016  18.459  0.00  0.00    +0.000 A 
ATOM     15  C   UNL     1       1.677  11.954  18.360  0.00  0.00    +0.000 A 
ATOM     16  C   UNL     1       2.532  13.186  18.396  0.00  0.00    +0.000 C 
ATOM     17  C   UNL     1       2.301  10.706  18.226  0.00  0.00    +0.000 A 
ATOM     18  C   UNL     1       1.565   9.522  18.167  0.00  0.00    +0.000 A 
ATOM     19  C   UNL     1       0.167   9.603  18.250  0.00  0.00    +0.000 A 
ENDBRANCH   8  18
ENDBRANCH   1   9
BRANCH   1  20
ATOM     20  O   UNL     1       4.370   5.878  19.230  0.00  0.00    +0.000 OA
BRANCH  20  21
ATOM     21  C   UNL     1       5.071   4.783  18.821  0.00  0.00    +0.000 C 
ATOM     22  O   UNL     1       5.191   3.777  19.514  0.00  0.00    +0.000 OA
BRANCH  21  23
ATOM     23  C   UNL     1       5.650   4.999  17.500  0.00  0.00    +0.000 A 
ATOM     24  S   UNL     1       4.991   4.094  16.191  0.00  0.00    +0.000 S 
ATOM     25  C   UNL     1       6.066   4.784  15.065  0.00  0.00    +0.000 A 
ATOM     26  C   UNL     1       6.904   5.698  15.657  0.00  0.00    +0.000 A 
ATOM     27  C   UNL     1       6.673   5.841  17.068  0.00  0.00    +0.000 A 
ATOM     28  C   UNL     1       7.455   6.791  17.918  0.00  0.00    +0.000 C 
ENDBRANCH  21  23
ENDBRANCH  20  21
ENDBRANCH   1  20
TORSDOF 6
ENDMDL
