MODEL 1
REMARK VINA RESULT:      -6.6      0.000      0.000
REMARK  Name = 
REMARK  3 active torsions:
REMARK  status: ('A' for Active; 'I' for Inactive)
REMARK    1  A    between atoms: C_1  and  N_2
REMARK    2  A    between atoms: N_2  and  C_3
REMARK    3  A    between atoms: C_6  and  C_7
REMARK                            x       y       z     vdW  Elec       q    Type
REMARK                         _______ _______ _______ _____ _____    ______ ____
ROOT
ATOM      1  C   UNL     1       1.540   2.835  21.531  0.00  0.00    +0.000 C 
ATOM      2  N   UNL     1       1.998   3.176  20.106  0.00  0.00    +0.000 N 
ATOM      3  C   UNL     1       0.950   2.623  19.136  0.00  0.00    +0.000 C 
ATOM      4  C   UNL     1       2.009   4.709  19.978  0.00  0.00    +0.000 C 
ATOM      5  C   UNL     1       3.246   5.351  19.500  0.00  0.00    +0.000 C 
ATOM      6  C   UNL     1       4.373   4.705  19.184  0.00  0.00    +0.000 C 
ATOM      7  C   UNL     1       4.513   3.230  19.277  0.00  0.00    +0.000 C 
ATOM      8  C   UNL     1       3.336   2.442  19.858  0.00  0.00    +0.000 C 
ENDROOT
BRANCH   6   9
ATOM      9  C   UNL     1       5.521   5.475  18.689  0.00  0.00    +0.000 A 
ATOM     10  C   UNL     1       6.763   5.401  19.331  0.00  0.00    +0.000 A 
ATOM     11  C   UNL     1       7.829   6.186  18.885  0.00  0.00    +0.000 A 
ATOM     12  C   UNL     1       7.660   7.046  17.801  0.00  0.00    +0.000 A 
ATOM     13  C   UNL     1       6.427   7.118  17.154  0.00  0.00    +0.000 A 
ATOM     14  C   UNL     1       5.357   6.336  17.597  0.00  0.00    +0.000 A 
ENDBRANCH   6   9
TORSDOF 1
ENDMDL
MODEL 2
REMARK VINA RESULT:      -6.5      0.183      1.305
REMARK  Name = 
REMARK  3 active torsions:
REMARK  status: ('A' for Active; 'I' for Inactive)
REMARK    1  A    between atoms: C_1  and  N_2
REMARK    2  A    between atoms: N_2  and  C_3
REMARK    3  A    between atoms: C_6  and  C_7
REMARK                            x       y       z     vdW  Elec       q    Type
REMARK                         _______ _______ _______ _____ _____    ______ ____
ROOT
ATOM      1  C   UNL     1       1.618   2.586  21.494  0.00  0.00    +0.000 C 
ATOM      2  N   UNL     1       1.951   3.147  20.104  0.00  0.00    +0.000 N 
ATOM      3  C   UNL     1       0.786   2.802  19.171  0.00  0.00    +0.000 C 
ATOM      4  C   UNL     1       2.028   4.678  20.230  0.00  0.00    +0.000 C 
ATOM      5  C   UNL     1       3.243   5.350  19.737  0.00  0.00    +0.000 C 
ATOM      6  C   UNL     1       4.299   4.728  19.202  0.00  0.00    +0.000 C 
ATOM      7  C   UNL     1       4.372   3.255  19.036  0.00  0.00    +0.000 C 
ATOM      8  C   UNL     1       3.219   2.421  19.599  0.00  0.00    +0.000 C 
ENDROOT
BRANCH   6   9
ATOM      9  C   UNL     1       5.431   5.532  18.723  0.00  0.00    +0.000 A 
ATOM     10  C   UNL     1       5.288   6.383  17.622  0.00  0.00    +0.000 A 
ATOM     11  C   UNL     1       6.390   7.096  17.140  0.00  0.00    +0.000 A 
ATOM     12  C   UNL     1       7.634   6.959  17.754  0.00  0.00    +0.000 A 
ATOM     13  C   UNL     1       7.780   6.117  18.855  0.00  0.00    +0.000 A 
ATOM     14  C   UNL     1       6.682   5.402  19.339  0.00  0.00    +0.000 A 
ENDBRANCH   6   9
TORSDOF 1
ENDMDL
MODEL 3
REMARK VINA RESULT:      -6.5      0.186      1.655
REMARK  Name = 
REMARK  3 active torsions:
REMARK  status: ('A' for Active; 'I' for Inactive)
REMARK    1  A    between atoms: C_1  and  N_2
REMARK    2  A    between atoms: N_2  and  C_3
REMARK    3  A    between atoms: C_6  and  C_7
REMARK                            x       y       z     vdW  Elec       q    Type
REMARK                         _______ _______ _______ _____ _____    ______ ____
ROOT
ATOM      1  C   UNL     1       0.795   2.612  19.298  0.00  0.00    +0.000 C 
ATOM      2  N   UNL     1       1.996   3.172  20.074  0.00  0.00    +0.000 N 
ATOM      3  C   UNL     1       1.852   2.735  21.534  0.00  0.00    +0.000 C 
ATOM      4  C   UNL     1       3.264   2.516  19.499  0.00  0.00    +0.000 C 
ATOM      5  C   UNL     1       4.358   3.400  19.058  0.00  0.00    +0.000 C 
ATOM      6  C   UNL     1       4.328   4.736  19.101  0.00  0.00    +0.000 C 
ATOM      7  C   UNL     1       3.165   5.503  19.612  0.00  0.00    +0.000 C 
ATOM      8  C   UNL     1       1.915   4.715  20.009  0.00  0.00    +0.000 C 
ENDROOT
BRANCH   6   9
ATOM      9  C   UNL     1       5.508   5.489  18.656  0.00  0.00    +0.000 A 
ATOM     10  C   UNL     1       6.725   5.381  19.339  0.00  0.00    +0.000 A 
ATOM     11  C   UNL     1       7.822   6.149  18.941  0.00  0.00    +0.000 A 
ATOM     12  C   UNL     1       7.707   7.027  17.863  0.00  0.00    +0.000 A 
ATOM     13  C   UNL     1       6.499   7.133  17.176  0.00  0.00    +0.000 A 
ATOM     14  C   UNL     1       5.399   6.368  17.571  0.00  0.00    +0.000 A 
ENDBRANCH   6   9
TORSDOF 1
ENDMDL
MODEL 4
REMARK VINA RESULT:      -6.5      0.347      2.107
REMARK  Name = 
REMARK  3 active torsions:
REMARK  status: ('A' for Active; 'I' for Inactive)
REMARK    1  A    between atoms: C_1  and  N_2
REMARK    2  A    between atoms: N_2  and  C_3
REMARK    3  A    between atoms: C_6  and  C_7
REMARK                            x       y       z     vdW  Elec       q    Type
REMARK                         _______ _______ _______ _____ _____    ______ ____
ROOT
ATOM      1  C   UNL     1       1.083   2.204  18.929  0.00  0.00    +0.000 C 
ATOM      2  N   UNL     1       1.985   3.119  19.770  0.00  0.00    +0.000 N 
ATOM      3  C   UNL     1       1.521   3.019  21.226  0.00  0.00    +0.000 C 
ATOM      4  C   UNL     1       3.417   2.563  19.684  0.00  0.00    +0.000 C 
ATOM      5  C   UNL     1       4.490   3.486  19.273  0.00  0.00    +0.000 C 
ATOM      6  C   UNL     1       4.315   4.772  18.951  0.00  0.00    +0.000 C 
ATOM      7  C   UNL     1       2.988   5.436  18.971  0.00  0.00    +0.000 C 
ATOM      8  C   UNL     1       1.765   4.569  19.280  0.00  0.00    +0.000 C 
ENDROOT
BRANCH   6   9
ATOM      9  C   UNL     1       5.485   5.581  18.591  0.00  0.00    +0.000 A 
ATOM     10  C   UNL     1       5.432   6.480  17.519  0.00  0.00    +0.000 A 
ATOM     11  C   UNL     1       6.571   7.199  17.151  0.00  0.00    +0.000 A 
ATOM     12  C   UNL     1       7.766   7.023  17.848  0.00  0.00    +0.000 A 
ATOM     13  C   UNL     1       7.823   6.134  18.920  0.00  0.00    +0.000 A 
ATOM     14  C   UNL     1       6.686   5.412  19.292  0.00  0.00    +0.000 A 
ENDBRANCH   6   9
TORSDOF 1
ENDMDL
MODEL 5
REMARK VINA RESULT:      -6.3      2.038      5.696
REMARK  Name = 
REMARK  3 active torsions:
REMARK  status: ('A' for Active; 'I' for Inactive)
REMARK    1  A    between atoms: C_1  and  N_2
REMARK    2  A    between atoms: N_2  and  C_3
REMARK    3  A    between atoms: C_6  and  C_7
REMARK                            x       y       z     vdW  Elec       q    Type
REMARK                         _______ _______ _______ _____ _____    ______ ____
ROOT
ATOM      1  C   UNL     1       7.495   7.049  17.500  0.00  0.00    +0.000 C 
ATOM      2  N   UNL     1       6.554   5.922  17.049  0.00  0.00    +0.000 N 
ATOM      3  C   UNL     1       7.122   5.332  15.755  0.00  0.00    +0.000 C 
ATOM      4  C   UNL     1       6.590   4.829  18.131  0.00  0.00    +0.000 C 
ATOM      5  C   UNL     1       5.306   4.374  18.694  0.00  0.00    +0.000 C 
ATOM      6  C   UNL     1       4.106   4.852  18.349  0.00  0.00    +0.000 C 
ATOM      7  C   UNL     1       3.921   5.919  17.334  0.00  0.00    +0.000 C 
ATOM      8  C   UNL     1       5.179   6.558  16.740  0.00  0.00    +0.000 C 
ENDROOT
BRANCH   6   9
ATOM      9  C   UNL     1       2.906   4.279  18.971  0.00  0.00    +0.000 A 
ATOM     10  C   UNL     1       2.579   4.572  20.300  0.00  0.00    +0.000 A 
ATOM     11  C   UNL     1       1.468   3.972  20.897  0.00  0.00    +0.000 A 
ATOM     12  C   UNL     1       0.682   3.077  20.172  0.00  0.00    +0.000 A 
ATOM     13  C   UNL     1       0.999   2.786  18.847  0.00  0.00    +0.000 A 
ATOM     14  C   UNL     1       2.110   3.383  18.245  0.00  0.00    +0.000 A 
ENDBRANCH   6   9
TORSDOF 1
ENDMDL
MODEL 6
REMARK VINA RESULT:      -6.3      2.046      5.771
REMARK  Name = 
REMARK  3 active torsions:
REMARK  status: ('A' for Active; 'I' for Inactive)
REMARK    1  A    between atoms: C_1  and  N_2
REMARK    2  A    between atoms: N_2  and  C_3
REMARK    3  A    between atoms: C_6  and  C_7
REMARK                            x       y       z     vdW  Elec       q    Type
REMARK                         _______ _______ _______ _____ _____    ______ ____
ROOT
ATOM      1  C   UNL     1       7.469   6.961  17.467  0.00  0.00    +0.000 C 
ATOM      2  N   UNL     1       6.529   5.835  17.013  0.00  0.00    +0.000 N 
ATOM      3  C   UNL     1       7.076   5.274  15.697  0.00  0.00    +0.000 C 
ATOM      4  C   UNL     1       6.596   4.722  18.073  0.00  0.00    +0.000 C 
ATOM      5  C   UNL     1       5.328   4.245  18.652  0.00  0.00    +0.000 C 
ATOM      6  C   UNL     1       4.116   4.718  18.340  0.00  0.00    +0.000 C 
ATOM      7  C   UNL     1       3.903   5.803  17.351  0.00  0.00    +0.000 C 
ATOM      8  C   UNL     1       5.143   6.464  16.744  0.00  0.00    +0.000 C 
ENDROOT
BRANCH   6   9
ATOM      9  C   UNL     1       2.934   4.123  18.975  0.00  0.00    +0.000 A 
ATOM     10  C   UNL     1       2.149   3.188  18.292  0.00  0.00    +0.000 A 
ATOM     11  C   UNL     1       0.993   2.675  18.886  0.00  0.00    +0.000 A 
ATOM     12  C   UNL     1       0.617   3.095  20.162  0.00  0.00    +0.000 A 
ATOM     13  C   UNL     1       1.399   4.021  20.849  0.00  0.00    +0.000 A 
ATOM     14  C   UNL     1       2.555   4.537  20.259  0.00  0.00    +0.000 A 
ENDBRANCH   6   9
TORSDOF 1
ENDMDL
MODEL 7
REMARK VINA RESULT:      -6.3      1.981      5.726
REMARK  Name = 
REMARK  3 active torsions:
REMARK  status: ('A' for Active; 'I' for Inactive)
REMARK    1  A    between atoms: C_1  and  N_2
REMARK    2  A    between atoms: N_2  and  C_3
REMARK    3  A    between atoms: C_6  and  C_7
REMARK                            x       y       z     vdW  Elec       q    Type
REMARK                         _______ _______ _______ _____ _____    ______ ____
ROOT
ATOM      1  C   UNL     1       7.314   7.094  17.285  0.00  0.00    +0.000 C 
ATOM      2  N   UNL     1       6.411   5.880  17.026  0.00  0.00    +0.000 N 
ATOM      3  C   UNL     1       6.847   5.250  15.700  0.00  0.00    +0.000 C 
ATOM      4  C   UNL     1       6.673   4.862  18.149  0.00  0.00    +0.000 C 
ATOM      5  C   UNL     1       5.514   4.356  18.905  0.00  0.00    +0.000 C 
ATOM      6  C   UNL     1       4.245   4.727  18.702  0.00  0.00    +0.000 C 
ATOM      7  C   UNL     1       3.847   5.714  17.667  0.00  0.00    +0.000 C 
ATOM      8  C   UNL     1       4.963   6.399  16.874  0.00  0.00    +0.000 C 
ENDROOT
BRANCH   6   9
ATOM      9  C   UNL     1       3.185   4.113  19.511  0.00  0.00    +0.000 A 
ATOM     10  C   UNL     1       1.866   4.572  19.429  0.00  0.00    +0.000 A 
ATOM     11  C   UNL     1       0.879   4.018  20.250  0.00  0.00    +0.000 A 
ATOM     12  C   UNL     1       1.207   3.009  21.155  0.00  0.00    +0.000 A 
ATOM     13  C   UNL     1       2.519   2.544  21.235  0.00  0.00    +0.000 A 
ATOM     14  C   UNL     1       3.508   3.095  20.417  0.00  0.00    +0.000 A 
ENDBRANCH   6   9
TORSDOF 1
ENDMDL
MODEL 8
REMARK VINA RESULT:      -6.3      1.952      5.587
REMARK  Name = 
REMARK  3 active torsions:
REMARK  status: ('A' for Active; 'I' for Inactive)
REMARK    1  A    between atoms: C_1  and  N_2
REMARK    2  A    between atoms: N_2  and  C_3
REMARK    3  A    between atoms: C_6  and  C_7
REMARK                            x       y       z     vdW  Elec       q    Type
REMARK                         _______ _______ _______ _____ _____    ______ ____
ROOT
ATOM      1  C   UNL     1       7.321   7.193  17.266  0.00  0.00    +0.000 C 
ATOM      2  N   UNL     1       6.444   5.948  17.074  0.00  0.00    +0.000 N 
ATOM      3  C   UNL     1       6.900   5.251  15.790  0.00  0.00    +0.000 C 
ATOM      4  C   UNL     1       6.717   5.003  18.257  0.00  0.00    +0.000 C 
ATOM      5  C   UNL     1       5.562   4.520  19.034  0.00  0.00    +0.000 C 
ATOM      6  C   UNL     1       4.288   4.854  18.802  0.00  0.00    +0.000 C 
ATOM      7  C   UNL     1       3.879   5.770  17.709  0.00  0.00    +0.000 C 
ATOM      8  C   UNL     1       4.987   6.429  16.884  0.00  0.00    +0.000 C 
ENDROOT
BRANCH   6   9
ATOM      9  C   UNL     1       3.235   4.268  19.640  0.00  0.00    +0.000 A 
ATOM     10  C   UNL     1       3.474   3.104  20.380  0.00  0.00    +0.000 A 
ATOM     11  C   UNL     1       2.444   2.524  21.125  0.00  0.00    +0.000 A 
ATOM     12  C   UNL     1       1.175   3.102  21.133  0.00  0.00    +0.000 A 
ATOM     13  C   UNL     1       0.934   4.265  20.403  0.00  0.00    +0.000 A 
ATOM     14  C   UNL     1       1.960   4.848  19.656  0.00  0.00    +0.000 A 
ENDBRANCH   6   9
TORSDOF 1
ENDMDL
MODEL 9
REMARK VINA RESULT:      -6.2      2.032      5.655
REMARK  Name = 
REMARK  3 active torsions:
REMARK  status: ('A' for Active; 'I' for Inactive)
REMARK    1  A    between atoms: C_1  and  N_2
REMARK    2  A    between atoms: N_2  and  C_3
REMARK    3  A    between atoms: C_6  and  C_7
REMARK                            x       y       z     vdW  Elec       q    Type
REMARK                         _______ _______ _______ _____ _____    ______ ____
ROOT
ATOM      1  C   UNL     1       7.046   5.117  15.602  0.00  0.00    +0.000 C 
ATOM      2  N   UNL     1       6.390   5.680  16.871  0.00  0.00    +0.000 N 
ATOM      3  C   UNL     1       6.997   7.061  17.136  0.00  0.00    +0.000 C 
ATOM      4  C   UNL     1       4.892   5.863  16.575  0.00  0.00    +0.000 C 
ATOM      5  C   UNL     1       3.925   5.250  17.503  0.00  0.00    +0.000 C 
ATOM      6  C   UNL     1       4.250   4.526  18.580  0.00  0.00    +0.000 C 
ATOM      7  C   UNL     1       5.654   4.252  18.977  0.00  0.00    +0.000 C 
ATOM      8  C   UNL     1       6.763   4.744  18.044  0.00  0.00    +0.000 C 
ENDROOT
BRANCH   6   9
ATOM      9  C   UNL     1       3.178   4.002  19.435  0.00  0.00    +0.000 A 
ATOM     10  C   UNL     1       1.893   4.554  19.390  0.00  0.00    +0.000 A 
ATOM     11  C   UNL     1       0.899   4.085  20.253  0.00  0.00    +0.000 A 
ATOM     12  C   UNL     1       1.185   3.067  21.162  0.00  0.00    +0.000 A 
ATOM     13  C   UNL     1       2.461   2.510  21.206  0.00  0.00    +0.000 A 
ATOM     14  C   UNL     1       3.459   2.976  20.346  0.00  0.00    +0.000 A 
ENDBRANCH   6   9
TORSDOF 1
ENDMDL
