MODEL 1
REMARK VINA RESULT:      -7.6      0.000      0.000
REMARK  Name = 
REMARK  6 active torsions:
REMARK  status: ('A' for Active; 'I' for Inactive)
REMARK    1  A    between atoms: C_1  and  C_2
REMARK    2  A    between atoms: N_4  and  C_5
REMARK    3  A    between atoms: N_15  and  C_16
REMARK    4  A    between atoms: C_16  and  C_17
REMARK    5  A    between atoms: N_19  and  C_20
REMARK    6  A    between atoms: C_23  and  C_24
REMARK                            x       y       z     vdW  Elec       q    Type
REMARK                         _______ _______ _______ _____ _____    ______ ____
ROOT
ATOM      1  C   UNL     1       4.890   4.701  16.350  0.00  0.00    +0.000 A 
ATOM      2  C   UNL     1       4.603   5.840  17.136  0.00  0.00    +0.000 A 
ATOM      3  C   UNL     1       4.006   5.743  18.404  0.00  0.00    +0.000 A 
ATOM      4  C   UNL     1       3.714   4.484  18.882  0.00  0.00    +0.000 A 
ATOM      5  C   UNL     1       3.984   3.365  18.093  0.00  0.00    +0.000 A 
ATOM      6  C   UNL     1       4.535   3.435  16.825  0.00  0.00    +0.000 A 
ATOM      7  C   UNL     1       3.621   2.185  18.877  0.00  0.00    +0.000 C 
ATOM      8  O   UNL     1       3.671   1.028  18.527  0.00  0.00    +0.000 OA
ATOM      9  C   UNL     1       3.159   2.734  20.252  0.00  0.00    +0.000 C 
ATOM     10  O   UNL     1       2.869   2.070  21.225  0.00  0.00    +0.000 OA
ATOM     11  N   UNL     1       3.185   4.109  20.128  0.00  0.00    +0.000 N 
ENDROOT
BRANCH   1  15
ATOM     12  C   UNL     1       7.270   4.915  13.425  0.00  0.00    +0.000 C 
ATOM     13  C   UNL     1       6.906   4.778  14.881  0.00  0.00    +0.000 C 
ATOM     14  O   UNL     1       7.777   4.672  15.737  0.00  0.00    +0.000 OA
ATOM     15  N   UNL     1       5.537   4.772  15.093  0.00  0.00    +0.000 N 
ATOM     16  H   UNL     1       4.947   4.694  14.272  0.00  0.00    +0.000 HD
ENDBRANCH   1  15
BRANCH  11  17
ATOM     17  C   UNL     1       2.705   5.011  21.153  0.00  0.00    +0.000 C 
BRANCH  17  18
ATOM     18  C   UNL     1       1.713   6.053  20.647  0.00  0.00    +0.000 C 
ATOM     19  O   UNL     1       0.606   5.711  20.235  0.00  0.00    +0.000 OA
ATOM     20  N   UNL     1       2.199   7.356  20.638  0.00  0.00    +0.000 N 
ATOM     21  H   UNL     1       3.207   7.458  20.580  0.00  0.00    +0.000 HD
BRANCH  20  22
ATOM     22  C   UNL     1       1.405   8.420  20.164  0.00  0.00    +0.000 A 
ATOM     23  C   UNL     1       0.429   9.019  20.969  0.00  0.00    +0.000 A 
ATOM     24  C   UNL     1      -0.420   9.999  20.443  0.00  0.00    +0.000 A 
ATOM     25  C   UNL     1      -0.310  10.370  19.100  0.00  0.00    +0.000 A 
ATOM     26  C   UNL     1       0.694   9.800  18.309  0.00  0.00    +0.000 A 
ATOM     27  C   UNL     1       1.573   8.853  18.849  0.00  0.00    +0.000 A 
BRANCH  25  28
ATOM     28  C   UNL     1      -1.232  11.314  18.535  0.00  0.00    +0.000 C 
ATOM     29  N   UNL     1      -1.981  12.077  18.084  0.00  0.00    +0.000 NA
ENDBRANCH  25  28
ENDBRANCH  20  22
ENDBRANCH  17  18
ENDBRANCH  11  17
TORSDOF 5
ENDMDL
MODEL 2
REMARK VINA RESULT:      -7.4      3.435      7.226
REMARK  Name = 
REMARK  6 active torsions:
REMARK  status: ('A' for Active; 'I' for Inactive)
REMARK    1  A    between atoms: C_1  and  C_2
REMARK    2  A    between atoms: N_4  and  C_5
REMARK    3  A    between atoms: N_15  and  C_16
REMARK    4  A    between atoms: C_16  and  C_17
REMARK    5  A    between atoms: N_19  and  C_20
REMARK    6  A    between atoms: C_23  and  C_24
REMARK                            x       y       z     vdW  Elec       q    Type
REMARK                         _______ _______ _______ _____ _____    ______ ____
ROOT
ATOM      1  C   UNL     1       1.847   8.004  20.076  0.00  0.00    +0.000 A 
ATOM      2  C   UNL     1       1.600   8.961  19.066  0.00  0.00    +0.000 A 
ATOM      3  C   UNL     1       0.859  10.130  19.308  0.00  0.00    +0.000 A 
ATOM      4  C   UNL     1       0.381  10.335  20.584  0.00  0.00    +0.000 A 
ATOM      5  C   UNL     1       0.612   9.377  21.571  0.00  0.00    +0.000 A 
ATOM      6  C   UNL     1       1.304   8.199  21.350  0.00  0.00    +0.000 A 
ATOM      7  C   UNL     1       0.037   9.889  22.815  0.00  0.00    +0.000 C 
ATOM      8  O   UNL     1      -0.000   9.333  23.889  0.00  0.00    +0.000 OA
ATOM      9  C   UNL     1      -0.511  11.296  22.463  0.00  0.00    +0.000 C 
ATOM     10  O   UNL     1      -0.978  12.097  23.245  0.00  0.00    +0.000 OA
ATOM     11  N   UNL     1      -0.322  11.436  21.101  0.00  0.00    +0.000 N 
ENDROOT
BRANCH   1  15
ATOM     12  C   UNL     1       3.356   4.546  19.885  0.00  0.00    +0.000 C 
ATOM     13  C   UNL     1       2.271   5.547  20.188  0.00  0.00    +0.000 C 
ATOM     14  O   UNL     1       1.197   5.184  20.656  0.00  0.00    +0.000 OA
ATOM     15  N   UNL     1       2.633   6.845  19.868  0.00  0.00    +0.000 N 
ATOM     16  H   UNL     1       3.484   6.963  19.331  0.00  0.00    +0.000 HD
ENDBRANCH   1  15
BRANCH  11  17
ATOM     17  C   UNL     1      -0.811  12.565  20.340  0.00  0.00    +0.000 C 
BRANCH  17  18
ATOM     18  C   UNL     1      -1.217  12.221  18.912  0.00  0.00    +0.000 C 
ATOM     19  O   UNL     1      -0.729  12.830  17.961  0.00  0.00    +0.000 OA
ATOM     20  N   UNL     1      -2.199  11.242  18.811  0.00  0.00    +0.000 N 
ATOM     21  H   UNL     1      -2.810  11.135  19.615  0.00  0.00    +0.000 HD
BRANCH  20  22
ATOM     22  C   UNL     1      -2.699  10.845  17.553  0.00  0.00    +0.000 A 
ATOM     23  C   UNL     1      -2.042   9.884  16.776  0.00  0.00    +0.000 A 
ATOM     24  C   UNL     1      -2.495   9.585  15.486  0.00  0.00    +0.000 A 
ATOM     25  C   UNL     1      -3.596  10.265  14.958  0.00  0.00    +0.000 A 
ATOM     26  C   UNL     1      -4.276  11.195  15.753  0.00  0.00    +0.000 A 
ATOM     27  C   UNL     1      -3.849  11.460  17.061  0.00  0.00    +0.000 A 
BRANCH  25  28
ATOM     28  C   UNL     1      -4.013  10.021  13.607  0.00  0.00    +0.000 C 
ATOM     29  N   UNL     1      -4.346   9.820  12.513  0.00  0.00    +0.000 NA
ENDBRANCH  25  28
ENDBRANCH  20  22
ENDBRANCH  17  18
ENDBRANCH  11  17
TORSDOF 5
ENDMDL
MODEL 3
REMARK VINA RESULT:      -7.4      1.156      1.540
REMARK  Name = 
REMARK  6 active torsions:
REMARK  status: ('A' for Active; 'I' for Inactive)
REMARK    1  A    between atoms: C_1  and  C_2
REMARK    2  A    between atoms: N_4  and  C_5
REMARK    3  A    between atoms: N_15  and  C_16
REMARK    4  A    between atoms: C_16  and  C_17
REMARK    5  A    between atoms: N_19  and  C_20
REMARK    6  A    between atoms: C_23  and  C_24
REMARK                            x       y       z     vdW  Elec       q    Type
REMARK                         _______ _______ _______ _____ _____    ______ ____
ROOT
ATOM      1  C   UNL     1       4.954   5.079  16.272  0.00  0.00    +0.000 A 
ATOM      2  C   UNL     1       5.050   6.025  17.318  0.00  0.00    +0.000 A 
ATOM      3  C   UNL     1       4.328   5.891  18.516  0.00  0.00    +0.000 A 
ATOM      4  C   UNL     1       3.519   4.786  18.659  0.00  0.00    +0.000 A 
ATOM      5  C   UNL     1       3.414   3.865  17.616  0.00  0.00    +0.000 A 
ATOM      6  C   UNL     1       4.083   3.993  16.410  0.00  0.00    +0.000 A 
ATOM      7  C   UNL     1       2.538   2.788  18.074  0.00  0.00    +0.000 C 
ATOM      8  O   UNL     1       2.171   1.823  17.444  0.00  0.00    +0.000 OA
ATOM      9  C   UNL     1       2.180   3.148  19.539  0.00  0.00    +0.000 C 
ATOM     10  O   UNL     1       1.550   2.456  20.312  0.00  0.00    +0.000 OA
ATOM     11  N   UNL     1       2.753   4.384  19.766  0.00  0.00    +0.000 N 
ENDROOT
BRANCH   1  15
ATOM     12  C   UNL     1       7.578   5.161  13.557  0.00  0.00    +0.000 C 
ATOM     13  C   UNL     1       7.069   4.933  14.957  0.00  0.00    +0.000 C 
ATOM     14  O   UNL     1       7.829   4.566  15.847  0.00  0.00    +0.000 OA
ATOM     15  N   UNL     1       5.709   5.166  15.079  0.00  0.00    +0.000 N 
ATOM     16  H   UNL     1       5.189   5.296  14.219  0.00  0.00    +0.000 HD
ENDBRANCH   1  15
BRANCH  11  17
ATOM     17  C   UNL     1       2.554   5.144  20.982  0.00  0.00    +0.000 C 
BRANCH  17  18
ATOM     18  C   UNL     1       1.473   6.213  20.874  0.00  0.00    +0.000 C 
ATOM     19  O   UNL     1       0.321   5.907  20.568  0.00  0.00    +0.000 OA
ATOM     20  N   UNL     1       1.922   7.512  21.083  0.00  0.00    +0.000 N 
ATOM     21  H   UNL     1       2.906   7.681  20.897  0.00  0.00    +0.000 HD
BRANCH  20  22
ATOM     22  C   UNL     1       1.041   8.608  20.981  0.00  0.00    +0.000 A 
ATOM     23  C   UNL     1       0.872   9.301  19.778  0.00  0.00    +0.000 A 
ATOM     24  C   UNL     1       0.076  10.451  19.727  0.00  0.00    +0.000 A 
ATOM     25  C   UNL     1      -0.539  10.926  20.889  0.00  0.00    +0.000 A 
ATOM     26  C   UNL     1      -0.402  10.207  22.082  0.00  0.00    +0.000 A 
ATOM     27  C   UNL     1       0.357   9.031  22.121  0.00  0.00    +0.000 A 
BRANCH  25  28
ATOM     28  C   UNL     1      -1.288  12.150  20.860  0.00  0.00    +0.000 C 
ATOM     29  N   UNL     1      -1.890  13.142  20.830  0.00  0.00    +0.000 NA
ENDBRANCH  25  28
ENDBRANCH  20  22
ENDBRANCH  17  18
ENDBRANCH  11  17
TORSDOF 5
ENDMDL
MODEL 4
REMARK VINA RESULT:      -7.3      5.190      7.340
REMARK  Name = 
REMARK  6 active torsions:
REMARK  status: ('A' for Active; 'I' for Inactive)
REMARK    1  A    between atoms: C_1  and  C_2
REMARK    2  A    between atoms: N_4  and  C_5
REMARK    3  A    between atoms: N_15  and  C_16
REMARK    4  A    between atoms: C_16  and  C_17
REMARK    5  A    between atoms: N_19  and  C_20
REMARK    6  A    between atoms: C_23  and  C_24
REMARK                            x       y       z     vdW  Elec       q    Type
REMARK                         _______ _______ _______ _____ _____    ______ ____
ROOT
ATOM      1  C   UNL     1       3.234   4.385  18.529  0.00  0.00    +0.000 A 
ATOM      2  C   UNL     1       4.010   5.006  19.533  0.00  0.00    +0.000 A 
ATOM      3  C   UNL     1       5.294   5.516  19.277  0.00  0.00    +0.000 A 
ATOM      4  C   UNL     1       5.785   5.409  17.995  0.00  0.00    +0.000 A 
ATOM      5  C   UNL     1       5.021   4.777  17.013  0.00  0.00    +0.000 A 
ATOM      6  C   UNL     1       3.770   4.231  17.247  0.00  0.00    +0.000 A 
ATOM      7  C   UNL     1       5.770   4.862  15.759  0.00  0.00    +0.000 C 
ATOM      8  O   UNL     1       5.459   4.398  14.687  0.00  0.00    +0.000 OA
ATOM      9  C   UNL     1       7.047   5.673  16.101  0.00  0.00    +0.000 C 
ATOM     10  O   UNL     1       7.885   6.051  15.310  0.00  0.00    +0.000 OA
ATOM     11  N   UNL     1       6.994   5.888  17.464  0.00  0.00    +0.000 N 
ENDROOT
BRANCH   1  15
ATOM     12  C   UNL     1       0.073   2.419  19.174  0.00  0.00    +0.000 C 
ATOM     13  C   UNL     1       1.564   2.604  19.046  0.00  0.00    +0.000 C 
ATOM     14  O   UNL     1       2.329   1.659  19.211  0.00  0.00    +0.000 OA
ATOM     15  N   UNL     1       1.919   3.910  18.751  0.00  0.00    +0.000 N 
ATOM     16  H   UNL     1       1.188   4.608  18.816  0.00  0.00    +0.000 HD
ENDBRANCH   1  15
BRANCH  11  17
ATOM     17  C   UNL     1       8.064   6.508  18.216  0.00  0.00    +0.000 C 
BRANCH  17  18
ATOM     18  C   UNL     1       8.065   8.031  18.153  0.00  0.00    +0.000 C 
ATOM     19  O   UNL     1       7.343   8.622  17.351  0.00  0.00    +0.000 OA
ATOM     20  N   UNL     1       8.975   8.643  19.007  0.00  0.00    +0.000 N 
ATOM     21  H   UNL     1       9.780   8.087  19.278  0.00  0.00    +0.000 HD
BRANCH  20  22
ATOM     22  C   UNL     1       9.112  10.047  19.032  0.00  0.00    +0.000 A 
ATOM     23  C   UNL     1       9.282  10.786  17.856  0.00  0.00    +0.000 A 
ATOM     24  C   UNL     1       9.524  12.163  17.913  0.00  0.00    +0.000 A 
ATOM     25  C   UNL     1       9.620  12.804  19.151  0.00  0.00    +0.000 A 
ATOM     26  C   UNL     1       9.408  12.070  20.324  0.00  0.00    +0.000 A 
ATOM     27  C   UNL     1       9.120  10.701  20.263  0.00  0.00    +0.000 A 
BRANCH  25  28
ATOM     28  C   UNL     1       9.951  14.199  19.217  0.00  0.00    +0.000 C 
ATOM     29  N   UNL     1      10.224  15.326  19.269  0.00  0.00    +0.000 NA
ENDBRANCH  25  28
ENDBRANCH  20  22
ENDBRANCH  17  18
ENDBRANCH  11  17
TORSDOF 5
ENDMDL
MODEL 5
REMARK VINA RESULT:      -7.1      1.214      1.269
REMARK  Name = 
REMARK  6 active torsions:
REMARK  status: ('A' for Active; 'I' for Inactive)
REMARK    1  A    between atoms: C_1  and  C_2
REMARK    2  A    between atoms: N_4  and  C_5
REMARK    3  A    between atoms: N_15  and  C_16
REMARK    4  A    between atoms: C_16  and  C_17
REMARK    5  A    between atoms: N_19  and  C_20
REMARK    6  A    between atoms: C_23  and  C_24
REMARK                            x       y       z     vdW  Elec       q    Type
REMARK                         _______ _______ _______ _____ _____    ______ ____
ROOT
ATOM      1  C   UNL     1       5.684   5.271  16.247  0.00  0.00    +0.000 A 
ATOM      2  C   UNL     1       5.730   6.047  17.427  0.00  0.00    +0.000 A 
ATOM      3  C   UNL     1       4.882   5.797  18.519  0.00  0.00    +0.000 A 
ATOM      4  C   UNL     1       3.997   4.747  18.419  0.00  0.00    +0.000 A 
ATOM      5  C   UNL     1       3.944   3.996  17.244  0.00  0.00    +0.000 A 
ATOM      6  C   UNL     1       4.740   4.245  16.139  0.00  0.00    +0.000 A 
ATOM      7  C   UNL     1       2.961   2.934  17.452  0.00  0.00    +0.000 C 
ATOM      8  O   UNL     1       2.603   2.100  16.652  0.00  0.00    +0.000 OA
ATOM      9  C   UNL     1       2.477   3.105  18.915  0.00  0.00    +0.000 C 
ATOM     10  O   UNL     1       1.731   2.359  19.513  0.00  0.00    +0.000 OA
ATOM     11  N   UNL     1       3.099   4.249  19.377  0.00  0.00    +0.000 N 
ENDROOT
BRANCH   1  15
ATOM     12  C   UNL     1       7.781   5.100  13.109  0.00  0.00    +0.000 C 
ATOM     13  C   UNL     1       6.729   4.619  14.076  0.00  0.00    +0.000 C 
ATOM     14  O   UNL     1       6.111   3.582  13.864  0.00  0.00    +0.000 OA
ATOM     15  N   UNL     1       6.563   5.472  15.155  0.00  0.00    +0.000 N 
ATOM     16  H   UNL     1       7.023   6.373  15.101  0.00  0.00    +0.000 HD
ENDBRANCH   1  15
BRANCH  11  17
ATOM     17  C   UNL     1       2.822   4.839  20.669  0.00  0.00    +0.000 C 
BRANCH  17  18
ATOM     18  C   UNL     1       1.781   5.952  20.633  0.00  0.00    +0.000 C 
ATOM     19  O   UNL     1       0.581   5.681  20.582  0.00  0.00    +0.000 OA
ATOM     20  N   UNL     1       2.310   7.237  20.597  0.00  0.00    +0.000 N 
ATOM     21  H   UNL     1       3.247   7.326  20.216  0.00  0.00    +0.000 HD
BRANCH  20  22
ATOM     22  C   UNL     1       1.466   8.364  20.527  0.00  0.00    +0.000 A 
ATOM     23  C   UNL     1       0.744   8.807  21.641  0.00  0.00    +0.000 A 
ATOM     24  C   UNL     1      -0.169   9.861  21.521  0.00  0.00    +0.000 A 
ATOM     25  C   UNL     1      -0.381  10.463  20.278  0.00  0.00    +0.000 A 
ATOM     26  C   UNL     1       0.373  10.045  19.175  0.00  0.00    +0.000 A 
ATOM     27  C   UNL     1       1.320   9.022  19.307  0.00  0.00    +0.000 A 
BRANCH  25  28
ATOM     28  C   UNL     1      -1.376  11.487  20.133  0.00  0.00    +0.000 C 
ATOM     29  N   UNL     1      -2.185  12.310  20.014  0.00  0.00    +0.000 NA
ENDBRANCH  25  28
ENDBRANCH  20  22
ENDBRANCH  17  18
ENDBRANCH  11  17
TORSDOF 5
ENDMDL
MODEL 6
REMARK VINA RESULT:      -7.1      4.940      7.584
REMARK  Name = 
REMARK  6 active torsions:
REMARK  status: ('A' for Active; 'I' for Inactive)
REMARK    1  A    between atoms: C_1  and  C_2
REMARK    2  A    between atoms: N_4  and  C_5
REMARK    3  A    between atoms: N_15  and  C_16
REMARK    4  A    between atoms: C_16  and  C_17
REMARK    5  A    between atoms: N_19  and  C_20
REMARK    6  A    between atoms: C_23  and  C_24
REMARK                            x       y       z     vdW  Elec       q    Type
REMARK                         _______ _______ _______ _____ _____    ______ ____
ROOT
ATOM      1  C   UNL     1       2.174   6.770  20.088  0.00  0.00    +0.000 A 
ATOM      2  C   UNL     1       2.210   7.433  18.840  0.00  0.00    +0.000 A 
ATOM      3  C   UNL     1       1.750   8.751  18.680  0.00  0.00    +0.000 A 
ATOM      4  C   UNL     1       1.268   9.403  19.793  0.00  0.00    +0.000 A 
ATOM      5  C   UNL     1       1.218   8.737  21.017  0.00  0.00    +0.000 A 
ATOM      6  C   UNL     1       1.627   7.426  21.195  0.00  0.00    +0.000 A 
ATOM      7  C   UNL     1       0.716   9.688  22.008  0.00  0.00    +0.000 C 
ATOM      8  O   UNL     1       0.494   9.479  23.179  0.00  0.00    +0.000 OA
ATOM      9  C   UNL     1       0.529  11.020  21.238  0.00  0.00    +0.000 C 
ATOM     10  O   UNL     1       0.223  12.090  21.722  0.00  0.00    +0.000 OA
ATOM     11  N   UNL     1       0.816  10.727  19.918  0.00  0.00    +0.000 N 
ENDROOT
BRANCH   1  15
ATOM     12  C   UNL     1       2.762   3.083  20.661  0.00  0.00    +0.000 C 
ATOM     13  C   UNL     1       1.921   4.309  20.413  0.00  0.00    +0.000 C 
ATOM     14  O   UNL     1       0.700   4.224  20.330  0.00  0.00    +0.000 OA
ATOM     15  N   UNL     1       2.677   5.462  20.283  0.00  0.00    +0.000 N 
ATOM     16  H   UNL     1       3.681   5.343  20.203  0.00  0.00    +0.000 HD
ENDBRANCH   1  15
BRANCH  11  17
ATOM     17  C   UNL     1       0.644  11.672  18.836  0.00  0.00    +0.000 C 
BRANCH  17  18
ATOM     18  C   UNL     1       1.842  12.589  18.617  0.00  0.00    +0.000 C 
ATOM     19  O   UNL     1       2.756  12.252  17.867  0.00  0.00    +0.000 OA
ATOM     20  N   UNL     1       1.821  13.756  19.372  0.00  0.00    +0.000 N 
ATOM     21  H   UNL     1       1.281  13.725  20.232  0.00  0.00    +0.000 HD
BRANCH  20  22
ATOM     22  C   UNL     1       2.880  14.684  19.299  0.00  0.00    +0.000 A 
ATOM     23  C   UNL     1       2.935  15.653  18.291  0.00  0.00    +0.000 A 
ATOM     24  C   UNL     1       4.049  16.492  18.174  0.00  0.00    +0.000 A 
ATOM     25  C   UNL     1       5.125  16.350  19.054  0.00  0.00    +0.000 A 
ATOM     26  C   UNL     1       5.049  15.409  20.086  0.00  0.00    +0.000 A 
ATOM     27  C   UNL     1       3.914  14.601  20.231  0.00  0.00    +0.000 A 
BRANCH  25  28
ATOM     28  C   UNL     1       6.304  17.152  18.886  0.00  0.00    +0.000 C 
ATOM     29  N   UNL     1       7.253  17.804  18.746  0.00  0.00    +0.000 NA
ENDBRANCH  25  28
ENDBRANCH  20  22
ENDBRANCH  17  18
ENDBRANCH  11  17
TORSDOF 5
ENDMDL
MODEL 7
REMARK VINA RESULT:      -7.0      0.983      1.068
REMARK  Name = 
REMARK  6 active torsions:
REMARK  status: ('A' for Active; 'I' for Inactive)
REMARK    1  A    between atoms: C_1  and  C_2
REMARK    2  A    between atoms: N_4  and  C_5
REMARK    3  A    between atoms: N_15  and  C_16
REMARK    4  A    between atoms: C_16  and  C_17
REMARK    5  A    between atoms: N_19  and  C_20
REMARK    6  A    between atoms: C_23  and  C_24
REMARK                            x       y       z     vdW  Elec       q    Type
REMARK                         _______ _______ _______ _____ _____    ______ ____
ROOT
ATOM      1  C   UNL     1       5.381   4.495  15.308  0.00  0.00    +0.000 A 
ATOM      2  C   UNL     1       5.314   5.735  15.982  0.00  0.00    +0.000 A 
ATOM      3  C   UNL     1       4.773   5.856  17.273  0.00  0.00    +0.000 A 
ATOM      4  C   UNL     1       4.313   4.712  17.888  0.00  0.00    +0.000 A 
ATOM      5  C   UNL     1       4.365   3.494  17.209  0.00  0.00    +0.000 A 
ATOM      6  C   UNL     1       4.856   3.353  15.922  0.00  0.00    +0.000 A 
ATOM      7  C   UNL     1       3.863   2.468  18.122  0.00  0.00    +0.000 C 
ATOM      8  O   UNL     1       3.715   1.290  17.890  0.00  0.00    +0.000 OA
ATOM      9  C   UNL     1       3.561   3.212  19.448  0.00  0.00    +0.000 C 
ATOM     10  O   UNL     1       3.220   2.700  20.493  0.00  0.00    +0.000 OA
ATOM     11  N   UNL     1       3.795   4.548  19.182  0.00  0.00    +0.000 N 
ENDROOT
BRANCH   1  15
ATOM     12  C   UNL     1       7.495   4.564  12.178  0.00  0.00    +0.000 C 
ATOM     13  C   UNL     1       7.180   4.869  13.620  0.00  0.00    +0.000 C 
ATOM     14  O   UNL     1       7.965   5.511  14.310  0.00  0.00    +0.000 OA
ATOM     15  N   UNL     1       5.967   4.341  14.029  0.00  0.00    +0.000 N 
ATOM     16  H   UNL     1       5.515   3.690  13.396  0.00  0.00    +0.000 HD
ENDBRANCH   1  15
BRANCH  11  17
ATOM     17  C   UNL     1       3.512   5.609  20.125  0.00  0.00    +0.000 C 
BRANCH  17  18
ATOM     18  C   UNL     1       2.373   6.529  19.700  0.00  0.00    +0.000 C 
ATOM     19  O   UNL     1       1.650   6.228  18.752  0.00  0.00    +0.000 OA
ATOM     20  N   UNL     1       2.290   7.715  20.421  0.00  0.00    +0.000 N 
ATOM     21  H   UNL     1       3.150   8.040  20.850  0.00  0.00    +0.000 HD
BRANCH  20  22
ATOM     22  C   UNL     1       1.306   8.678  20.116  0.00  0.00    +0.000 A 
ATOM     23  C   UNL     1       0.300   9.009  21.031  0.00  0.00    +0.000 A 
ATOM     24  C   UNL     1      -0.728   9.887  20.667  0.00  0.00    +0.000 A 
ATOM     25  C   UNL     1      -0.765  10.421  19.376  0.00  0.00    +0.000 A 
ATOM     26  C   UNL     1       0.265  10.121  18.478  0.00  0.00    +0.000 A 
ATOM     27  C   UNL     1       1.318   9.279  18.858  0.00  0.00    +0.000 A 
BRANCH  25  28
ATOM     28  C   UNL     1      -1.861  11.255  18.973  0.00  0.00    +0.000 C 
ATOM     29  N   UNL     1      -2.747  11.934  18.652  0.00  0.00    +0.000 NA
ENDBRANCH  25  28
ENDBRANCH  20  22
ENDBRANCH  17  18
ENDBRANCH  11  17
TORSDOF 5
ENDMDL
MODEL 8
REMARK VINA RESULT:      -7.0      3.596      9.514
REMARK  Name = 
REMARK  6 active torsions:
REMARK  status: ('A' for Active; 'I' for Inactive)
REMARK    1  A    between atoms: C_1  and  C_2
REMARK    2  A    between atoms: N_4  and  C_5
REMARK    3  A    between atoms: N_15  and  C_16
REMARK    4  A    between atoms: C_16  and  C_17
REMARK    5  A    between atoms: N_19  and  C_20
REMARK    6  A    between atoms: C_23  and  C_24
REMARK                            x       y       z     vdW  Elec       q    Type
REMARK                         _______ _______ _______ _____ _____    ______ ____
ROOT
ATOM      1  C   UNL     1      -3.370  11.841  18.436  0.00  0.00    +0.000 A 
ATOM      2  C   UNL     1      -2.598  11.110  17.504  0.00  0.00    +0.000 A 
ATOM      3  C   UNL     1      -1.274  10.721  17.771  0.00  0.00    +0.000 A 
ATOM      4  C   UNL     1      -0.739  11.060  18.994  0.00  0.00    +0.000 A 
ATOM      5  C   UNL     1      -1.500  11.797  19.901  0.00  0.00    +0.000 A 
ATOM      6  C   UNL     1      -2.791  12.227  19.649  0.00  0.00    +0.000 A 
ATOM      7  C   UNL     1      -0.695  11.957  21.112  0.00  0.00    +0.000 C 
ATOM      8  O   UNL     1      -0.990  12.570  22.113  0.00  0.00    +0.000 OA
ATOM      9  C   UNL     1       0.615  11.175  20.838  0.00  0.00    +0.000 C 
ATOM     10  O   UNL     1       1.509  10.976  21.635  0.00  0.00    +0.000 OA
ATOM     11  N   UNL     1       0.519  10.740  19.530  0.00  0.00    +0.000 N 
ENDROOT
BRANCH   1  15
ATOM     12  C   UNL     1      -7.115  12.044  17.989  0.00  0.00    +0.000 C 
ATOM     13  C   UNL     1      -5.819  11.370  18.360  0.00  0.00    +0.000 C 
ATOM     14  O   UNL     1      -5.809  10.211  18.761  0.00  0.00    +0.000 OA
ATOM     15  N   UNL     1      -4.720  12.199  18.209  0.00  0.00    +0.000 N 
ATOM     16  H   UNL     1      -4.908  13.180  18.035  0.00  0.00    +0.000 HD
ENDBRANCH   1  15
BRANCH  11  17
ATOM     17  C   UNL     1       1.595  10.069  18.832  0.00  0.00    +0.000 C 
BRANCH  17  18
ATOM     18  C   UNL     1       1.707   8.582  19.149  0.00  0.00    +0.000 C 
ATOM     19  O   UNL     1       1.225   8.128  20.186  0.00  0.00    +0.000 OA
ATOM     20  N   UNL     1       2.434   7.847  18.220  0.00  0.00    +0.000 N 
ATOM     21  H   UNL     1       3.119   8.363  17.677  0.00  0.00    +0.000 HD
BRANCH  20  22
ATOM     22  C   UNL     1       2.650   6.465  18.400  0.00  0.00    +0.000 A 
ATOM     23  C   UNL     1       3.790   5.983  19.054  0.00  0.00    +0.000 A 
ATOM     24  C   UNL     1       4.037   4.607  19.125  0.00  0.00    +0.000 A 
ATOM     25  C   UNL     1       3.154   3.707  18.522  0.00  0.00    +0.000 A 
ATOM     26  C   UNL     1       1.995   4.190  17.905  0.00  0.00    +0.000 A 
ATOM     27  C   UNL     1       1.725   5.565  17.875  0.00  0.00    +0.000 A 
BRANCH  25  28
ATOM     28  C   UNL     1       3.447   2.302  18.521  0.00  0.00    +0.000 C 
ATOM     29  N   UNL     1       3.686   1.167  18.526  0.00  0.00    +0.000 NA
ENDBRANCH  25  28
ENDBRANCH  20  22
ENDBRANCH  17  18
ENDBRANCH  11  17
TORSDOF 5
ENDMDL
MODEL 9
REMARK VINA RESULT:      -7.0      4.099     10.327
REMARK  Name = 
REMARK  6 active torsions:
REMARK  status: ('A' for Active; 'I' for Inactive)
REMARK    1  A    between atoms: C_1  and  C_2
REMARK    2  A    between atoms: N_4  and  C_5
REMARK    3  A    between atoms: N_15  and  C_16
REMARK    4  A    between atoms: C_16  and  C_17
REMARK    5  A    between atoms: N_19  and  C_20
REMARK    6  A    between atoms: C_23  and  C_24
REMARK                            x       y       z     vdW  Elec       q    Type
REMARK                         _______ _______ _______ _____ _____    ______ ____
ROOT
ATOM      1  C   UNL     1      -3.397  13.168  22.358  0.00  0.00    +0.000 A 
ATOM      2  C   UNL     1      -2.874  12.284  23.329  0.00  0.00    +0.000 A 
ATOM      3  C   UNL     1      -1.764  11.462  23.072  0.00  0.00    +0.000 A 
ATOM      4  C   UNL     1      -1.173  11.549  21.830  0.00  0.00    +0.000 A 
ATOM      5  C   UNL     1      -1.707  12.410  20.870  0.00  0.00    +0.000 A 
ATOM      6  C   UNL     1      -2.822  13.201  21.084  0.00  0.00    +0.000 A 
ATOM      7  C   UNL     1      -0.848  12.326  19.689  0.00  0.00    +0.000 C 
ATOM      8  O   UNL     1      -1.000  12.892  18.631  0.00  0.00    +0.000 OA
ATOM      9  C   UNL     1       0.295  11.356  20.083  0.00  0.00    +0.000 C 
ATOM     10  O   UNL     1       1.273  11.095  19.414  0.00  0.00    +0.000 OA
ATOM     11  N   UNL     1      -0.028  10.897  21.345  0.00  0.00    +0.000 N 
ENDROOT
BRANCH   1  15
ATOM     12  C   UNL     1      -6.712  14.954  22.659  0.00  0.00    +0.000 C 
ATOM     13  C   UNL     1      -5.811  13.799  22.304  0.00  0.00    +0.000 C 
ATOM     14  O   UNL     1      -6.271  12.775  21.810  0.00  0.00    +0.000 OA
ATOM     15  N   UNL     1      -4.482  14.041  22.612  0.00  0.00    +0.000 N 
ATOM     16  H   UNL     1      -4.284  14.862  23.172  0.00  0.00    +0.000 HD
ENDBRANCH   1  15
BRANCH  11  17
ATOM     17  C   UNL     1       0.720   9.869  22.035  0.00  0.00    +0.000 C 
BRANCH  17  18
ATOM     18  C   UNL     1       0.716   8.518  21.328  0.00  0.00    +0.000 C 
ATOM     19  O   UNL     1      -0.290   7.810  21.342  0.00  0.00    +0.000 OA
ATOM     20  N   UNL     1       1.932   8.164  20.754  0.00  0.00    +0.000 N 
ATOM     21  H   UNL     1       2.760   8.588  21.159  0.00  0.00    +0.000 HD
BRANCH  20  22
ATOM     22  C   UNL     1       2.087   6.927  20.095  0.00  0.00    +0.000 A 
ATOM     23  C   UNL     1       2.489   6.858  18.756  0.00  0.00    +0.000 A 
ATOM     24  C   UNL     1       2.532   5.627  18.091  0.00  0.00    +0.000 A 
ATOM     25  C   UNL     1       2.150   4.460  18.759  0.00  0.00    +0.000 A 
ATOM     26  C   UNL     1       1.788   4.527  20.109  0.00  0.00    +0.000 A 
ATOM     27  C   UNL     1       1.791   5.753  20.786  0.00  0.00    +0.000 A 
BRANCH  25  28
ATOM     28  C   UNL     1       2.113   3.208  18.058  0.00  0.00    +0.000 C 
ATOM     29  N   UNL     1       2.085   2.199  17.485  0.00  0.00    +0.000 NA
ENDBRANCH  25  28
ENDBRANCH  20  22
ENDBRANCH  17  18
ENDBRANCH  11  17
TORSDOF 5
ENDMDL
