MODEL 1
REMARK VINA RESULT:      -7.9      0.000      0.000
REMARK  Name = 
REMARK  8 active torsions:
REMARK  status: ('A' for Active; 'I' for Inactive)
REMARK    1  A    between atoms: C_1  and  N_2
REMARK    2  A    between atoms: N_2  and  C_3
REMARK    3  A    between atoms: N_2  and  C_24
REMARK    4  A    between atoms: C_3  and  C_4
REMARK    5  A    between atoms: N_6  and  C_7
REMARK    6  A    between atoms: C_9  and  S_10
REMARK    7  A    between atoms: S_10  and  N_13
REMARK    8  A    between atoms: C_24  and  C_25
REMARK                            x       y       z     vdW  Elec       q    Type
REMARK                         _______ _______ _______ _____ _____    ______ ____
ROOT
ATOM      1  C   UNL     1       1.947   5.576  20.099  0.00  0.00    +0.000 C 
ATOM      2  O   UNL     1       1.247   5.311  19.121  0.00  0.00    +0.000 OA
ATOM      3  N   UNL     1       2.374   6.851  20.423  0.00  0.00    +0.000 N 
ATOM      4  H   UNL     1       3.272   6.915  20.892  0.00  0.00    +0.000 HD
ENDROOT
BRANCH   3   5
ATOM      5  C   UNL     1       1.988   7.965  19.643  0.00  0.00    +0.000 A 
ATOM      6  C   UNL     1       1.033   8.868  20.132  0.00  0.00    +0.000 A 
ATOM      7  C   UNL     1       0.683   9.988  19.374  0.00  0.00    +0.000 A 
ATOM      8  C   UNL     1       1.311  10.237  18.144  0.00  0.00    +0.000 A 
ATOM      9  C   UNL     1       2.244   9.322  17.645  0.00  0.00    +0.000 A 
ATOM     10  C   UNL     1       2.583   8.191  18.395  0.00  0.00    +0.000 A 
ATOM     11 CL   UNL     1       3.647   7.023  17.690  0.00  0.00    +0.000 Cl
BRANCH   7  12
ATOM     12  S   UNL     1      -0.483  11.184  20.023  0.00  0.00    +0.000 S 
ATOM     13  O   UNL     1      -1.008  10.645  21.266  0.00  0.00    +0.000 OA
ATOM     14  O   UNL     1       0.170  12.477  19.995  0.00  0.00    +0.000 OA
BRANCH  12  15
ATOM     15  N   UNL     1      -1.743  11.183  18.859  0.00  0.00    +0.000 NA
ATOM     16  C   UNL     1      -1.968   9.914  18.136  0.00  0.00    +0.000 C 
ATOM     17  C   UNL     1      -2.360  10.141  16.676  0.00  0.00    +0.000 C 
ATOM     18  C   UNL     1      -3.843  10.424  16.464  0.00  0.00    +0.000 C 
ATOM     19  C   UNL     1      -4.319  11.714  17.112  0.00  0.00    +0.000 C 
ATOM     20  C   UNL     1      -4.248  11.660  18.632  0.00  0.00    +0.000 C 
ATOM     21  C   UNL     1      -2.894  12.058  19.197  0.00  0.00    +0.000 C 
ENDBRANCH  12  15
ENDBRANCH   7  12
ENDBRANCH   3   5
BRANCH   1  22
ATOM     22  C   UNL     1       2.439   4.474  21.053  0.00  0.00    +0.000 C 
BRANCH  22  24
ATOM     23  C   UNL     1       3.209   2.197  21.154  0.00  0.00    +0.000 C 
ATOM     24  N   UNL     1       3.180   3.413  20.329  0.00  0.00    +0.000 NA
BRANCH  24  25
ATOM     25  C   UNL     1       4.561   3.852  20.032  0.00  0.00    +0.000 C 
BRANCH  25  26
ATOM     26  C   UNL     1       4.874   3.921  18.550  0.00  0.00    +0.000 A 
ATOM     27  C   UNL     1       3.918   3.503  17.591  0.00  0.00    +0.000 A 
ATOM     28  C   UNL     1       4.188   3.595  16.222  0.00  0.00    +0.000 A 
ATOM     29  C   UNL     1       5.408   4.111  15.845  0.00  0.00    +0.000 A 
ATOM     30  C   UNL     1       6.341   4.514  16.770  0.00  0.00    +0.000 A 
ATOM     31  C   UNL     1       6.109   4.428  18.124  0.00  0.00    +0.000 A 
ATOM     32  O   UNL     1       7.475   4.997  16.194  0.00  0.00    +0.000 OA
ATOM     33  C   UNL     1       7.156   4.828  14.797  0.00  0.00    +0.000 C 
ATOM     34  O   UNL     1       5.837   4.290  14.567  0.00  0.00    +0.000 OA
ENDBRANCH  25  26
ENDBRANCH  24  25
ENDBRANCH  22  24
ENDBRANCH   1  22
TORSDOF 7
ENDMDL
MODEL 2
REMARK VINA RESULT:      -7.8      2.033      2.990
REMARK  Name = 
REMARK  8 active torsions:
REMARK  status: ('A' for Active; 'I' for Inactive)
REMARK    1  A    between atoms: C_1  and  N_2
REMARK    2  A    between atoms: N_2  and  C_3
REMARK    3  A    between atoms: N_2  and  C_24
REMARK    4  A    between atoms: C_3  and  C_4
REMARK    5  A    between atoms: N_6  and  C_7
REMARK    6  A    between atoms: C_9  and  S_10
REMARK    7  A    between atoms: S_10  and  N_13
REMARK    8  A    between atoms: C_24  and  C_25
REMARK                            x       y       z     vdW  Elec       q    Type
REMARK                         _______ _______ _______ _____ _____    ______ ____
ROOT
ATOM      1  C   UNL     1       2.208   5.416  19.513  0.00  0.00    +0.000 C 
ATOM      2  O   UNL     1       1.486   5.261  18.528  0.00  0.00    +0.000 OA
ATOM      3  N   UNL     1       2.587   6.651  20.008  0.00  0.00    +0.000 N 
ATOM      4  H   UNL     1       3.497   6.693  20.454  0.00  0.00    +0.000 HD
ENDROOT
BRANCH   3   5
ATOM      5  C   UNL     1       2.122   7.846  19.411  0.00  0.00    +0.000 A 
ATOM      6  C   UNL     1       1.145   8.620  20.055  0.00  0.00    +0.000 A 
ATOM      7  C   UNL     1       0.717   9.818  19.481  0.00  0.00    +0.000 A 
ATOM      8  C   UNL     1       1.287  10.273  18.282  0.00  0.00    +0.000 A 
ATOM      9  C   UNL     1       2.241   9.488  17.627  0.00  0.00    +0.000 A 
ATOM     10  C   UNL     1       2.659   8.279  18.192  0.00  0.00    +0.000 A 
ATOM     11 CL   UNL     1       3.748   7.281  17.292  0.00  0.00    +0.000 Cl
BRANCH   7  12
ATOM     12  S   UNL     1      -0.477  10.847  20.333  0.00  0.00    +0.000 S 
ATOM     13  O   UNL     1      -1.736  10.733  19.616  0.00  0.00    +0.000 OA
ATOM     14  O   UNL     1      -0.397  10.521  21.742  0.00  0.00    +0.000 OA
BRANCH  12  15
ATOM     15  N   UNL     1       0.131  12.435  20.104  0.00  0.00    +0.000 NA
ATOM     16  C   UNL     1      -0.838  13.448  19.639  0.00  0.00    +0.000 C 
ATOM     17  C   UNL     1      -0.209  14.449  18.670  0.00  0.00    +0.000 C 
ATOM     18  C   UNL     1       0.532  15.595  19.348  0.00  0.00    +0.000 C 
ATOM     19  C   UNL     1       1.742  15.150  20.155  0.00  0.00    +0.000 C 
ATOM     20  C   UNL     1       1.356  14.301  21.358  0.00  0.00    +0.000 C 
ATOM     21  C   UNL     1       1.215  12.820  21.044  0.00  0.00    +0.000 C 
ENDBRANCH  12  15
ENDBRANCH   7  12
ENDBRANCH   3   5
BRANCH   1  22
ATOM     22  C   UNL     1       2.784   4.214  20.280  0.00  0.00    +0.000 C 
BRANCH  22  24
ATOM     23  C   UNL     1       4.033   2.176  20.012  0.00  0.00    +0.000 C 
ATOM     24  N   UNL     1       3.874   3.553  19.523  0.00  0.00    +0.000 NA
BRANCH  24  25
ATOM     25  C   UNL     1       5.144   4.293  19.683  0.00  0.00    +0.000 C 
BRANCH  25  26
ATOM     26  C   UNL     1       5.788   4.690  18.369  0.00  0.00    +0.000 A 
ATOM     27  C   UNL     1       6.753   5.728  18.323  0.00  0.00    +0.000 A 
ATOM     28  C   UNL     1       7.374   6.076  17.120  0.00  0.00    +0.000 A 
ATOM     29  C   UNL     1       7.021   5.372  15.990  0.00  0.00    +0.000 A 
ATOM     30  C   UNL     1       6.083   4.368  16.027  0.00  0.00    +0.000 A 
ATOM     31  C   UNL     1       5.448   4.007  17.194  0.00  0.00    +0.000 A 
ATOM     32  O   UNL     1       5.881   3.796  14.810  0.00  0.00    +0.000 OA
ATOM     33  C   UNL     1       6.783   4.574  13.996  0.00  0.00    +0.000 C 
ATOM     34  O   UNL     1       7.529   5.559  14.743  0.00  0.00    +0.000 OA
ENDBRANCH  25  26
ENDBRANCH  24  25
ENDBRANCH  22  24
ENDBRANCH   1  22
TORSDOF 7
ENDMDL
MODEL 3
REMARK VINA RESULT:      -7.7      2.086      3.020
REMARK  Name = 
REMARK  8 active torsions:
REMARK  status: ('A' for Active; 'I' for Inactive)
REMARK    1  A    between atoms: C_1  and  N_2
REMARK    2  A    between atoms: N_2  and  C_3
REMARK    3  A    between atoms: N_2  and  C_24
REMARK    4  A    between atoms: C_3  and  C_4
REMARK    5  A    between atoms: N_6  and  C_7
REMARK    6  A    between atoms: C_9  and  S_10
REMARK    7  A    between atoms: S_10  and  N_13
REMARK    8  A    between atoms: C_24  and  C_25
REMARK                            x       y       z     vdW  Elec       q    Type
REMARK                         _______ _______ _______ _____ _____    ______ ____
ROOT
ATOM      1  C   UNL     1       1.776   5.639  20.529  0.00  0.00    +0.000 C 
ATOM      2  O   UNL     1       0.548   5.704  20.460  0.00  0.00    +0.000 OA
ATOM      3  N   UNL     1       2.630   6.641  20.103  0.00  0.00    +0.000 N 
ATOM      4  H   UNL     1       3.532   6.339  19.752  0.00  0.00    +0.000 HD
ENDROOT
BRANCH   3   5
ATOM      5  C   UNL     1       2.122   7.852  19.579  0.00  0.00    +0.000 A 
ATOM      6  C   UNL     1       1.378   8.715  20.397  0.00  0.00    +0.000 A 
ATOM      7  C   UNL     1       0.911   9.927  19.886  0.00  0.00    +0.000 A 
ATOM      8  C   UNL     1       1.218  10.307  18.570  0.00  0.00    +0.000 A 
ATOM      9  C   UNL     1       1.937   9.435  17.747  0.00  0.00    +0.000 A 
ATOM     10  C   UNL     1       2.390   8.212  18.252  0.00  0.00    +0.000 A 
ATOM     11 CL   UNL     1       3.169   7.111  17.169  0.00  0.00    +0.000 Cl
BRANCH   7  12
ATOM     12  S   UNL     1       0.022  11.067  20.945  0.00  0.00    +0.000 S 
ATOM     13  O   UNL     1      -1.395  10.885  20.682  0.00  0.00    +0.000 OA
ATOM     14  O   UNL     1       0.551  10.909  22.285  0.00  0.00    +0.000 OA
BRANCH  12  15
ATOM     15  N   UNL     1       0.488  12.608  20.352  0.00  0.00    +0.000 NA
ATOM     16  C   UNL     1      -0.607  13.508  19.934  0.00  0.00    +0.000 C 
ATOM     17  C   UNL     1      -0.231  14.348  18.714  0.00  0.00    +0.000 C 
ATOM     18  C   UNL     1       0.563  15.607  19.042  0.00  0.00    +0.000 C 
ATOM     19  C   UNL     1       1.928  15.329  19.652  0.00  0.00    +0.000 C 
ATOM     20  C   UNL     1       1.827  14.683  21.027  0.00  0.00    +0.000 C 
ATOM     21  C   UNL     1       1.709  13.168  20.985  0.00  0.00    +0.000 C 
ENDBRANCH  12  15
ENDBRANCH   7  12
ENDBRANCH   3   5
BRANCH   1  22
ATOM     22  C   UNL     1       2.481   4.391  21.088  0.00  0.00    +0.000 C 
BRANCH  22  24
ATOM     23  C   UNL     1       1.947   2.158  20.372  0.00  0.00    +0.000 C 
ATOM     24  N   UNL     1       2.704   3.371  20.034  0.00  0.00    +0.000 NA
BRANCH  24  25
ATOM     25  C   UNL     1       4.143   3.050  19.917  0.00  0.00    +0.000 C 
BRANCH  25  26
ATOM     26  C   UNL     1       4.865   3.859  18.858  0.00  0.00    +0.000 A 
ATOM     27  C   UNL     1       5.744   4.908  19.226  0.00  0.00    +0.000 A 
ATOM     28  C   UNL     1       6.438   5.636  18.255  0.00  0.00    +0.000 A 
ATOM     29  C   UNL     1       6.240   5.293  16.936  0.00  0.00    +0.000 A 
ATOM     30  C   UNL     1       5.386   4.280  16.572  0.00  0.00    +0.000 A 
ATOM     31  C   UNL     1       4.683   3.550  17.504  0.00  0.00    +0.000 A 
ATOM     32  O   UNL     1       5.336   4.096  15.225  0.00  0.00    +0.000 OA
ATOM     33  C   UNL     1       6.240   5.128  14.781  0.00  0.00    +0.000 C 
ATOM     34  O   UNL     1       6.838   5.875  15.862  0.00  0.00    +0.000 OA
ENDBRANCH  25  26
ENDBRANCH  24  25
ENDBRANCH  22  24
ENDBRANCH   1  22
TORSDOF 7
ENDMDL
MODEL 4
REMARK VINA RESULT:      -7.6      3.025      9.696
REMARK  Name = 
REMARK  8 active torsions:
REMARK  status: ('A' for Active; 'I' for Inactive)
REMARK    1  A    between atoms: C_1  and  N_2
REMARK    2  A    between atoms: N_2  and  C_3
REMARK    3  A    between atoms: N_2  and  C_24
REMARK    4  A    between atoms: C_3  and  C_4
REMARK    5  A    between atoms: N_6  and  C_7
REMARK    6  A    between atoms: C_9  and  S_10
REMARK    7  A    between atoms: S_10  and  N_13
REMARK    8  A    between atoms: C_24  and  C_25
REMARK                            x       y       z     vdW  Elec       q    Type
REMARK                         _______ _______ _______ _____ _____    ______ ____
ROOT
ATOM      1  C   UNL     1       1.699   9.305  18.174  0.00  0.00    +0.000 C 
ATOM      2  O   UNL     1       0.568   8.922  17.875  0.00  0.00    +0.000 OA
ATOM      3  N   UNL     1       2.616   8.539  18.872  0.00  0.00    +0.000 N 
ATOM      4  H   UNL     1       3.262   9.048  19.466  0.00  0.00    +0.000 HD
ENDROOT
BRANCH   3   5
ATOM      5  C   UNL     1       2.308   7.216  19.264  0.00  0.00    +0.000 A 
ATOM      6  C   UNL     1       2.662   6.138  18.439  0.00  0.00    +0.000 A 
ATOM      7  C   UNL     1       2.389   4.831  18.848  0.00  0.00    +0.000 A 
ATOM      8  C   UNL     1       1.800   4.587  20.098  0.00  0.00    +0.000 A 
ATOM      9  C   UNL     1       1.424   5.663  20.908  0.00  0.00    +0.000 A 
ATOM     10  C   UNL     1       1.680   6.974  20.493  0.00  0.00    +0.000 A 
ATOM     11 CL   UNL     1       1.090   8.278  21.465  0.00  0.00    +0.000 Cl
BRANCH   7  12
ATOM     12  S   UNL     1       2.903   3.447  17.833  0.00  0.00    +0.000 S 
ATOM     13  O   UNL     1       2.896   2.265  18.679  0.00  0.00    +0.000 OA
ATOM     14  O   UNL     1       2.115   3.490  16.618  0.00  0.00    +0.000 OA
BRANCH  12  15
ATOM     15  N   UNL     1       4.530   3.822  17.442  0.00  0.00    +0.000 NA
ATOM     16  C   UNL     1       4.760   4.455  16.127  0.00  0.00    +0.000 C 
ATOM     17  C   UNL     1       6.060   3.983  15.476  0.00  0.00    +0.000 C 
ATOM     18  C   UNL     1       7.303   4.724  15.953  0.00  0.00    +0.000 C 
ATOM     19  C   UNL     1       7.610   4.520  17.428  0.00  0.00    +0.000 C 
ATOM     20  C   UNL     1       6.545   5.128  18.331  0.00  0.00    +0.000 C 
ATOM     21  C   UNL     1       5.372   4.201  18.605  0.00  0.00    +0.000 C 
ENDBRANCH  12  15
ENDBRANCH   7  12
ENDBRANCH   3   5
BRANCH   1  22
ATOM     22  C   UNL     1       2.190  10.715  17.807  0.00  0.00    +0.000 C 
BRANCH  22  24
ATOM     23  C   UNL     1       2.146  13.037  18.434  0.00  0.00    +0.000 C 
ATOM     24  N   UNL     1       1.414  11.765  18.511  0.00  0.00    +0.000 NA
BRANCH  24  25
ATOM     25  C   UNL     1       1.199  11.394  19.927  0.00  0.00    +0.000 C 
BRANCH  25  26
ATOM     26  C   UNL     1      -0.160  11.798  20.464  0.00  0.00    +0.000 A 
ATOM     27  C   UNL     1      -0.309  12.206  21.813  0.00  0.00    +0.000 A 
ATOM     28  C   UNL     1      -1.554  12.612  22.305  0.00  0.00    +0.000 A 
ATOM     29  C   UNL     1      -2.620  12.607  21.432  0.00  0.00    +0.000 A 
ATOM     30  C   UNL     1      -2.481  12.208  20.124  0.00  0.00    +0.000 A 
ATOM     31  C   UNL     1      -1.272  11.795  19.612  0.00  0.00    +0.000 A 
ATOM     32  O   UNL     1      -3.648  12.280  19.429  0.00  0.00    +0.000 OA
ATOM     33  C   UNL     1      -4.544  12.749  20.459  0.00  0.00    +0.000 C 
ATOM     34  O   UNL     1      -3.893  12.982  21.726  0.00  0.00    +0.000 OA
ENDBRANCH  25  26
ENDBRANCH  24  25
ENDBRANCH  22  24
ENDBRANCH   1  22
TORSDOF 7
ENDMDL
MODEL 5
REMARK VINA RESULT:      -7.4      1.995      3.982
REMARK  Name = 
REMARK  8 active torsions:
REMARK  status: ('A' for Active; 'I' for Inactive)
REMARK    1  A    between atoms: C_1  and  N_2
REMARK    2  A    between atoms: N_2  and  C_3
REMARK    3  A    between atoms: N_2  and  C_24
REMARK    4  A    between atoms: C_3  and  C_4
REMARK    5  A    between atoms: N_6  and  C_7
REMARK    6  A    between atoms: C_9  and  S_10
REMARK    7  A    between atoms: S_10  and  N_13
REMARK    8  A    between atoms: C_24  and  C_25
REMARK                            x       y       z     vdW  Elec       q    Type
REMARK                         _______ _______ _______ _____ _____    ______ ____
ROOT
ATOM      1  C   UNL     1       4.439   7.076  17.314  0.00  0.00    +0.000 C 
ATOM      2  O   UNL     1       5.208   7.662  18.076  0.00  0.00    +0.000 OA
ATOM      3  N   UNL     1       3.065   7.042  17.477  0.00  0.00    +0.000 N 
ATOM      4  H   UNL     1       2.597   6.205  17.144  0.00  0.00    +0.000 HD
ENDROOT
BRANCH   3   5
ATOM      5  C   UNL     1       2.444   7.731  18.543  0.00  0.00    +0.000 A 
ATOM      6  C   UNL     1       1.992   9.046  18.362  0.00  0.00    +0.000 A 
ATOM      7  C   UNL     1       1.344   9.709  19.407  0.00  0.00    +0.000 A 
ATOM      8  C   UNL     1       1.106   9.053  20.624  0.00  0.00    +0.000 A 
ATOM      9  C   UNL     1       1.580   7.750  20.813  0.00  0.00    +0.000 A 
ATOM     10  C   UNL     1       2.245   7.091  19.774  0.00  0.00    +0.000 A 
ATOM     11 CL   UNL     1       2.922   5.530  20.087  0.00  0.00    +0.000 Cl
BRANCH   7  12
ATOM     12  S   UNL     1       0.701  11.363  19.160  0.00  0.00    +0.000 S 
ATOM     13  O   UNL     1       0.682  12.018  20.457  0.00  0.00    +0.000 OA
ATOM     14  O   UNL     1       1.426  11.944  18.049  0.00  0.00    +0.000 OA
BRANCH  12  15
ATOM     15  N   UNL     1      -0.921  11.090  18.670  0.00  0.00    +0.000 NA
ATOM     16  C   UNL     1      -1.799  12.278  18.617  0.00  0.00    +0.000 C 
ATOM     17  C   UNL     1      -3.229  11.960  19.052  0.00  0.00    +0.000 C 
ATOM     18  C   UNL     1      -4.102  11.373  17.949  0.00  0.00    +0.000 C 
ATOM     19  C   UNL     1      -3.627  10.017  17.449  0.00  0.00    +0.000 C 
ATOM     20  C   UNL     1      -2.282  10.099  16.742  0.00  0.00    +0.000 C 
ATOM     21  C   UNL     1      -1.089   9.998  17.679  0.00  0.00    +0.000 C 
ENDBRANCH  12  15
ENDBRANCH   7  12
ENDBRANCH   3   5
BRANCH   1  22
ATOM     22  C   UNL     1       4.960   6.291  16.099  0.00  0.00    +0.000 C 
BRANCH  22  24
ATOM     23  C   UNL     1       7.115   5.259  15.823  0.00  0.00    +0.000 C 
ATOM     24  N   UNL     1       5.820   5.155  16.509  0.00  0.00    +0.000 NA
BRANCH  24  25
ATOM     25  C   UNL     1       5.176   3.866  16.173  0.00  0.00    +0.000 C 
BRANCH  25  26
ATOM     26  C   UNL     1       4.272   3.332  17.267  0.00  0.00    +0.000 A 
ATOM     27  C   UNL     1       4.820   2.829  18.473  0.00  0.00    +0.000 A 
ATOM     28  C   UNL     1       3.990   2.367  19.500  0.00  0.00    +0.000 A 
ATOM     29  C   UNL     1       2.629   2.424  19.296  0.00  0.00    +0.000 A 
ATOM     30  C   UNL     1       2.092   2.907  18.127  0.00  0.00    +0.000 A 
ATOM     31  C   UNL     1       2.882   3.362  17.095  0.00  0.00    +0.000 A 
ATOM     32  O   UNL     1       0.732   2.883  18.127  0.00  0.00    +0.000 OA
ATOM     33  C   UNL     1       0.476   2.307  19.425  0.00  0.00    +0.000 C 
ATOM     34  O   UNL     1       1.674   2.037  20.183  0.00  0.00    +0.000 OA
ENDBRANCH  25  26
ENDBRANCH  24  25
ENDBRANCH  22  24
ENDBRANCH   1  22
TORSDOF 7
ENDMDL
MODEL 6
REMARK VINA RESULT:      -7.4      2.635      3.687
REMARK  Name = 
REMARK  8 active torsions:
REMARK  status: ('A' for Active; 'I' for Inactive)
REMARK    1  A    between atoms: C_1  and  N_2
REMARK    2  A    between atoms: N_2  and  C_3
REMARK    3  A    between atoms: N_2  and  C_24
REMARK    4  A    between atoms: C_3  and  C_4
REMARK    5  A    between atoms: N_6  and  C_7
REMARK    6  A    between atoms: C_9  and  S_10
REMARK    7  A    between atoms: S_10  and  N_13
REMARK    8  A    between atoms: C_24  and  C_25
REMARK                            x       y       z     vdW  Elec       q    Type
REMARK                         _______ _______ _______ _____ _____    ______ ____
ROOT
ATOM      1  C   UNL     1       1.574   8.585  19.046  0.00  0.00    +0.000 C 
ATOM      2  O   UNL     1       1.852   8.826  17.871  0.00  0.00    +0.000 OA
ATOM      3  N   UNL     1       0.643   9.296  19.782  0.00  0.00    +0.000 N 
ATOM      4  H   UNL     1       0.822   9.368  20.778  0.00  0.00    +0.000 HD
ENDROOT
BRANCH   3   5
ATOM      5  C   UNL     1      -0.093  10.351  19.196  0.00  0.00    +0.000 A 
ATOM      6  C   UNL     1      -1.113  10.069  18.275  0.00  0.00    +0.000 A 
ATOM      7  C   UNL     1      -1.862  11.113  17.727  0.00  0.00    +0.000 A 
ATOM      8  C   UNL     1      -1.628  12.438  18.124  0.00  0.00    +0.000 A 
ATOM      9  C   UNL     1      -0.594  12.720  19.022  0.00  0.00    +0.000 A 
ATOM     10  C   UNL     1       0.169  11.678  19.558  0.00  0.00    +0.000 A 
ATOM     11 CL   UNL     1       1.516  12.078  20.568  0.00  0.00    +0.000 Cl
BRANCH   7  12
ATOM     12  S   UNL     1      -3.214  10.756  16.606  0.00  0.00    +0.000 S 
ATOM     13  O   UNL     1      -3.048  11.612  15.444  0.00  0.00    +0.000 OA
ATOM     14  O   UNL     1      -3.282   9.317  16.460  0.00  0.00    +0.000 OA
BRANCH  12  15
ATOM     15  N   UNL     1      -4.598  11.283  17.471  0.00  0.00    +0.000 NA
ATOM     16  C   UNL     1      -5.515  12.191  16.751  0.00  0.00    +0.000 C 
ATOM     17  C   UNL     1      -6.121  13.251  17.670  0.00  0.00    +0.000 C 
ATOM     18  C   UNL     1      -7.342  12.778  18.451  0.00  0.00    +0.000 C 
ATOM     19  C   UNL     1      -7.043  11.656  19.434  0.00  0.00    +0.000 C 
ATOM     20  C   UNL     1      -6.628  10.368  18.735  0.00  0.00    +0.000 C 
ATOM     21  C   UNL     1      -5.140  10.289  18.431  0.00  0.00    +0.000 C 
ENDBRANCH  12  15
ENDBRANCH   7  12
ENDBRANCH   3   5
BRANCH   1  22
ATOM     22  C   UNL     1       2.279   7.459  19.821  0.00  0.00    +0.000 C 
BRANCH  22  24
ATOM     23  C   UNL     1       1.632   5.350  18.860  0.00  0.00    +0.000 C 
ATOM     24  N   UNL     1       2.701   6.357  18.922  0.00  0.00    +0.000 NA
BRANCH  24  25
ATOM     25  C   UNL     1       3.950   5.734  19.411  0.00  0.00    +0.000 C 
BRANCH  25  26
ATOM     26  C   UNL     1       4.999   5.543  18.333  0.00  0.00    +0.000 A 
ATOM     27  C   UNL     1       6.378   5.658  18.640  0.00  0.00    +0.000 A 
ATOM     28  C   UNL     1       7.351   5.449  17.657  0.00  0.00    +0.000 A 
ATOM     29  C   UNL     1       6.920   5.124  16.390  0.00  0.00    +0.000 A 
ATOM     30  C   UNL     1       5.584   5.015  16.085  0.00  0.00    +0.000 A 
ATOM     31  C   UNL     1       4.603   5.222  17.028  0.00  0.00    +0.000 A 
ATOM     32  O   UNL     1       5.370   4.682  14.784  0.00  0.00    +0.000 OA
ATOM     33  C   UNL     1       6.727   4.616  14.298  0.00  0.00    +0.000 C 
ATOM     34  O   UNL     1       7.717   4.871  15.317  0.00  0.00    +0.000 OA
ENDBRANCH  25  26
ENDBRANCH  24  25
ENDBRANCH  22  24
ENDBRANCH   1  22
TORSDOF 7
ENDMDL
MODEL 7
REMARK VINA RESULT:      -7.3      3.111      5.571
REMARK  Name = 
REMARK  8 active torsions:
REMARK  status: ('A' for Active; 'I' for Inactive)
REMARK    1  A    between atoms: C_1  and  N_2
REMARK    2  A    between atoms: N_2  and  C_3
REMARK    3  A    between atoms: N_2  and  C_24
REMARK    4  A    between atoms: C_3  and  C_4
REMARK    5  A    between atoms: N_6  and  C_7
REMARK    6  A    between atoms: C_9  and  S_10
REMARK    7  A    between atoms: S_10  and  N_13
REMARK    8  A    between atoms: C_24  and  C_25
REMARK                            x       y       z     vdW  Elec       q    Type
REMARK                         _______ _______ _______ _____ _____    ______ ____
ROOT
ATOM      1  C   UNL     1      -0.370  10.223  18.651  0.00  0.00    +0.000 C 
ATOM      2  O   UNL     1      -0.947   9.731  19.621  0.00  0.00    +0.000 OA
ATOM      3  N   UNL     1      -1.003  10.952  17.660  0.00  0.00    +0.000 N 
ATOM      4  H   UNL     1      -0.599  10.890  16.732  0.00  0.00    +0.000 HD
ENDROOT
BRANCH   3   5
ATOM      5  C   UNL     1      -2.391  11.213  17.727  0.00  0.00    +0.000 A 
ATOM      6  C   UNL     1      -2.941  11.804  18.874  0.00  0.00    +0.000 A 
ATOM      7  C   UNL     1      -4.306  12.095  18.921  0.00  0.00    +0.000 A 
ATOM      8  C   UNL     1      -5.124  11.836  17.810  0.00  0.00    +0.000 A 
ATOM      9  C   UNL     1      -4.581  11.222  16.677  0.00  0.00    +0.000 A 
ATOM     10  C   UNL     1      -3.217  10.914  16.636  0.00  0.00    +0.000 A 
ATOM     11 CL   UNL     1      -2.609  10.046  15.269  0.00  0.00    +0.000 Cl
BRANCH   7  12
ATOM     12  S   UNL     1      -5.002  12.916  20.353  0.00  0.00    +0.000 S 
ATOM     13  O   UNL     1      -5.652  14.127  19.884  0.00  0.00    +0.000 OA
ATOM     14  O   UNL     1      -5.745  11.920  21.099  0.00  0.00    +0.000 OA
BRANCH  12  15
ATOM     15  N   UNL     1      -3.621  13.364  21.266  0.00  0.00    +0.000 NA
ATOM     16  C   UNL     1      -3.219  14.784  21.193  0.00  0.00    +0.000 C 
ATOM     17  C   UNL     1      -1.700  14.958  21.212  0.00  0.00    +0.000 C 
ATOM     18  C   UNL     1      -1.087  14.946  22.607  0.00  0.00    +0.000 C 
ATOM     19  C   UNL     1      -1.251  13.622  23.337  0.00  0.00    +0.000 C 
ATOM     20  C   UNL     1      -2.708  13.313  23.657  0.00  0.00    +0.000 C 
ATOM     21  C   UNL     1      -3.446  12.608  22.532  0.00  0.00    +0.000 C 
ENDBRANCH  12  15
ENDBRANCH   7  12
ENDBRANCH   3   5
BRANCH   1  22
ATOM     22  C   UNL     1       1.143  10.039  18.443  0.00  0.00    +0.000 C 
BRANCH  22  24
ATOM     23  C   UNL     1       1.764   8.431  20.121  0.00  0.00    +0.000 C 
ATOM     24  N   UNL     1       1.562   8.636  18.679  0.00  0.00    +0.000 NA
BRANCH  24  25
ATOM     25  C   UNL     1       2.812   8.335  17.948  0.00  0.00    +0.000 C 
BRANCH  25  26
ATOM     26  C   UNL     1       3.075   6.851  17.776  0.00  0.00    +0.000 A 
ATOM     27  C   UNL     1       4.344   6.390  17.347  0.00  0.00    +0.000 A 
ATOM     28  C   UNL     1       4.603   5.021  17.218  0.00  0.00    +0.000 A 
ATOM     29  C   UNL     1       3.586   4.146  17.528  0.00  0.00    +0.000 A 
ATOM     30  C   UNL     1       2.351   4.588  17.941  0.00  0.00    +0.000 A 
ATOM     31  C   UNL     1       2.063   5.928  18.070  0.00  0.00    +0.000 A 
ATOM     32  O   UNL     1       1.490   3.568  18.201  0.00  0.00    +0.000 OA
ATOM     33  C   UNL     1       2.319   2.431  17.882  0.00  0.00    +0.000 C 
ATOM     34  O   UNL     1       3.658   2.789  17.479  0.00  0.00    +0.000 OA
ENDBRANCH  25  26
ENDBRANCH  24  25
ENDBRANCH  22  24
ENDBRANCH   1  22
TORSDOF 7
ENDMDL
MODEL 8
REMARK VINA RESULT:      -7.3      2.094      2.819
REMARK  Name = 
REMARK  8 active torsions:
REMARK  status: ('A' for Active; 'I' for Inactive)
REMARK    1  A    between atoms: C_1  and  N_2
REMARK    2  A    between atoms: N_2  and  C_3
REMARK    3  A    between atoms: N_2  and  C_24
REMARK    4  A    between atoms: C_3  and  C_4
REMARK    5  A    between atoms: N_6  and  C_7
REMARK    6  A    between atoms: C_9  and  S_10
REMARK    7  A    between atoms: S_10  and  N_13
REMARK    8  A    between atoms: C_24  and  C_25
REMARK                            x       y       z     vdW  Elec       q    Type
REMARK                         _______ _______ _______ _____ _____    ______ ____
ROOT
ATOM      1  C   UNL     1       2.105   4.576  20.238  0.00  0.00    +0.000 C 
ATOM      2  O   UNL     1       0.886   4.535  20.067  0.00  0.00    +0.000 OA
ATOM      3  N   UNL     1       2.856   5.736  20.177  0.00  0.00    +0.000 N 
ATOM      4  H   UNL     1       3.811   5.633  19.850  0.00  0.00    +0.000 HD
ENDROOT
BRANCH   3   5
ATOM      5  C   UNL     1       2.241   6.987  19.943  0.00  0.00    +0.000 A 
ATOM      6  C   UNL     1       1.544   7.632  20.976  0.00  0.00    +0.000 A 
ATOM      7  C   UNL     1       0.971   8.885  20.751  0.00  0.00    +0.000 A 
ATOM      8  C   UNL     1       1.122   9.522  19.510  0.00  0.00    +0.000 A 
ATOM      9  C   UNL     1       1.794   8.867  18.473  0.00  0.00    +0.000 A 
ATOM     10  C   UNL     1       2.354   7.604  18.691  0.00  0.00    +0.000 A 
ATOM     11 CL   UNL     1       3.069   6.776  17.350  0.00  0.00    +0.000 Cl
BRANCH   7  12
ATOM     12  S   UNL     1       0.142   9.747  22.086  0.00  0.00    +0.000 S 
ATOM     13  O   UNL     1      -1.102   9.044  22.348  0.00  0.00    +0.000 OA
ATOM     14  O   UNL     1       1.116   9.944  23.140  0.00  0.00    +0.000 OA
BRANCH  12  15
ATOM     15  N   UNL     1      -0.236  11.273  21.399  0.00  0.00    +0.000 NA
ATOM     16  C   UNL     1      -1.591  11.797  21.670  0.00  0.00    +0.000 C 
ATOM     17  C   UNL     1      -2.169  12.553  20.474  0.00  0.00    +0.000 C 
ATOM     18  C   UNL     1      -1.721  14.007  20.377  0.00  0.00    +0.000 C 
ATOM     19  C   UNL     1      -0.226  14.173  20.150  0.00  0.00    +0.000 C 
ATOM     20  C   UNL     1       0.597  13.693  21.337  0.00  0.00    +0.000 C 
ATOM     21  C   UNL     1       0.915  12.207  21.303  0.00  0.00    +0.000 C 
ENDBRANCH  12  15
ENDBRANCH   7  12
ENDBRANCH   3   5
BRANCH   1  22
ATOM     22  C   UNL     1       2.917   3.300  20.515  0.00  0.00    +0.000 C 
BRANCH  22  24
ATOM     23  C   UNL     1       4.458   1.703  19.586  0.00  0.00    +0.000 C 
ATOM     24  N   UNL     1       3.966   3.085  19.489  0.00  0.00    +0.000 NA
BRANCH  24  25
ATOM     25  C   UNL     1       5.086   4.032  19.681  0.00  0.00    +0.000 C 
BRANCH  25  26
ATOM     26  C   UNL     1       5.724   4.493  18.385  0.00  0.00    +0.000 A 
ATOM     27  C   UNL     1       6.701   5.519  18.388  0.00  0.00    +0.000 A 
ATOM     28  C   UNL     1       7.317   5.925  17.200  0.00  0.00    +0.000 A 
ATOM     29  C   UNL     1       6.945   5.289  16.036  0.00  0.00    +0.000 A 
ATOM     30  C   UNL     1       5.995   4.296  16.027  0.00  0.00    +0.000 A 
ATOM     31  C   UNL     1       5.364   3.880  17.178  0.00  0.00    +0.000 A 
ATOM     32  O   UNL     1       5.775   3.795  14.782  0.00  0.00    +0.000 OA
ATOM     33  C   UNL     1       6.680   4.605  14.004  0.00  0.00    +0.000 C 
ATOM     34  O   UNL     1       7.445   5.538  14.797  0.00  0.00    +0.000 OA
ENDBRANCH  25  26
ENDBRANCH  24  25
ENDBRANCH  22  24
ENDBRANCH   1  22
TORSDOF 7
ENDMDL
MODEL 9
REMARK VINA RESULT:      -7.2      3.155      9.844
REMARK  Name = 
REMARK  8 active torsions:
REMARK  status: ('A' for Active; 'I' for Inactive)
REMARK    1  A    between atoms: C_1  and  N_2
REMARK    2  A    between atoms: N_2  and  C_3
REMARK    3  A    between atoms: N_2  and  C_24
REMARK    4  A    between atoms: C_3  and  C_4
REMARK    5  A    between atoms: N_6  and  C_7
REMARK    6  A    between atoms: C_9  and  S_10
REMARK    7  A    between atoms: S_10  and  N_13
REMARK    8  A    between atoms: C_24  and  C_25
REMARK                            x       y       z     vdW  Elec       q    Type
REMARK                         _______ _______ _______ _____ _____    ______ ____
ROOT
ATOM      1  C   UNL     1       1.606   9.240  18.196  0.00  0.00    +0.000 C 
ATOM      2  O   UNL     1       0.489   8.829  17.877  0.00  0.00    +0.000 OA
ATOM      3  N   UNL     1       2.527   8.501  18.915  0.00  0.00    +0.000 N 
ATOM      4  H   UNL     1       3.149   9.028  19.518  0.00  0.00    +0.000 HD
ENDROOT
BRANCH   3   5
ATOM      5  C   UNL     1       2.243   7.173  19.308  0.00  0.00    +0.000 A 
ATOM      6  C   UNL     1       2.614   6.100  18.483  0.00  0.00    +0.000 A 
ATOM      7  C   UNL     1       2.366   4.789  18.892  0.00  0.00    +0.000 A 
ATOM      8  C   UNL     1       1.783   4.535  20.144  0.00  0.00    +0.000 A 
ATOM      9  C   UNL     1       1.389   5.605  20.954  0.00  0.00    +0.000 A 
ATOM     10  C   UNL     1       1.621   6.919  20.538  0.00  0.00    +0.000 A 
ATOM     11 CL   UNL     1       1.009   8.213  21.510  0.00  0.00    +0.000 Cl
BRANCH   7  12
ATOM     12  S   UNL     1       2.902   3.413  17.877  0.00  0.00    +0.000 S 
ATOM     13  O   UNL     1       2.905   2.230  18.720  0.00  0.00    +0.000 OA
ATOM     14  O   UNL     1       2.121   3.450  16.658  0.00  0.00    +0.000 OA
BRANCH  12  15
ATOM     15  N   UNL     1       4.528   3.809  17.497  0.00  0.00    +0.000 NA
ATOM     16  C   UNL     1       4.762   4.417  16.171  0.00  0.00    +0.000 C 
ATOM     17  C   UNL     1       6.078   3.954  15.546  0.00  0.00    +0.000 C 
ATOM     18  C   UNL     1       7.302   4.728  16.021  0.00  0.00    +0.000 C 
ATOM     19  C   UNL     1       7.594   4.562  17.504  0.00  0.00    +0.000 C 
ATOM     20  C   UNL     1       6.507   5.171  18.381  0.00  0.00    +0.000 C 
ATOM     21  C   UNL     1       5.348   4.229  18.662  0.00  0.00    +0.000 C 
ENDBRANCH  12  15
ENDBRANCH   7  12
ENDBRANCH   3   5
BRANCH   1  22
ATOM     22  C   UNL     1       2.069  10.661  17.830  0.00  0.00    +0.000 C 
BRANCH  22  24
ATOM     23  C   UNL     1       1.919  13.000  18.369  0.00  0.00    +0.000 C 
ATOM     24  N   UNL     1       1.262  11.695  18.522  0.00  0.00    +0.000 NA
BRANCH  24  25
ATOM     25  C   UNL     1       1.118  11.370  19.958  0.00  0.00    +0.000 C 
BRANCH  25  26
ATOM     26  C   UNL     1      -0.027  12.097  20.636  0.00  0.00    +0.000 A 
ATOM     27  C   UNL     1      -1.350  11.976  20.142  0.00  0.00    +0.000 A 
ATOM     28  C   UNL     1      -2.415  12.617  20.783  0.00  0.00    +0.000 A 
ATOM     29  C   UNL     1      -2.131  13.359  21.908  0.00  0.00    +0.000 A 
ATOM     30  C   UNL     1      -0.850  13.483  22.389  0.00  0.00    +0.000 A 
ATOM     31  C   UNL     1       0.221  12.871  21.776  0.00  0.00    +0.000 A 
ATOM     32  O   UNL     1      -0.783  14.253  23.509  0.00  0.00    +0.000 OA
ATOM     33  C   UNL     1      -2.170  14.619  23.664  0.00  0.00    +0.000 C 
ATOM     34  O   UNL     1      -3.035  14.035  22.667  0.00  0.00    +0.000 OA
ENDBRANCH  25  26
ENDBRANCH  24  25
ENDBRANCH  22  24
ENDBRANCH   1  22
TORSDOF 7
ENDMDL
