MODEL 1
REMARK VINA RESULT:      -9.0      0.000      0.000
REMARK  Name = 
REMARK  7 active torsions:
REMARK  status: ('A' for Active; 'I' for Inactive)
REMARK    1  A    between atoms: C_1  and  C_2
REMARK    2  A    between atoms: C_5  and  C_6
REMARK    3  A    between atoms: C_6  and  N_7
REMARK    4  A    between atoms: N_7  and  C_8
REMARK    5  A    between atoms: C_11  and  C_12
REMARK    6  A    between atoms: C_14  and  C_15
REMARK    7  A    between atoms: C_19  and  C_20
REMARK                            x       y       z     vdW  Elec       q    Type
REMARK                         _______ _______ _______ _____ _____    ______ ____
ROOT
ATOM      1  C   UNL     1       4.648   6.048  16.967  0.00  0.00    +0.000 A 
ATOM      2  N   UNL     1       5.185   6.674  15.890  0.00  0.00    +0.000 NA
ATOM      3  N   UNL     1       5.659   5.974  14.812  0.00  0.00    +0.000 NA
ATOM      4  C   UNL     1       5.608   4.634  14.818  0.00  0.00    +0.000 A 
ATOM      5  C   UNL     1       6.130   3.904  13.623  0.00  0.00    +0.000 C 
ATOM      6  C   UNL     1       5.095   3.949  15.908  0.00  0.00    +0.000 A 
ATOM      7  C   UNL     1       4.581   4.641  17.021  0.00  0.00    +0.000 A 
ENDROOT
BRANCH   7   8
ATOM      8  C   UNL     1       4.122   3.855  18.201  0.00  0.00    +0.000 A 
ATOM      9  C   UNL     1       5.035   3.191  19.045  0.00  0.00    +0.000 A 
ATOM     10  C   UNL     1       4.625   2.577  20.233  0.00  0.00    +0.000 A 
ATOM     11  C   UNL     1       3.283   2.594  20.603  0.00  0.00    +0.000 A 
ATOM     12  C   UNL     1       2.340   3.218  19.781  0.00  0.00    +0.000 A 
ATOM     13  C   UNL     1       2.772   3.834  18.592  0.00  0.00    +0.000 A 
BRANCH  12  14
ATOM     14  C   UNL     1       0.881   3.279  20.158  0.00  0.00    +0.000 C 
ATOM     15  F   UNL     1       0.392   4.548  20.244  0.00  0.00    +0.000 F 
ATOM     16  F   UNL     1       0.086   2.638  19.255  0.00  0.00    +0.000 F 
ATOM     17  F   UNL     1       0.623   2.696  21.361  0.00  0.00    +0.000 F 
ENDBRANCH  12  14
ENDBRANCH   7   8
BRANCH   1  18
ATOM     18  N   UNL     1       4.098   6.831  18.004  0.00  0.00    +0.000 N 
ATOM     19  H   UNL     1       3.802   6.206  18.750  0.00  0.00    +0.000 HD
BRANCH  18  20
ATOM     20  C   UNL     1       3.023   7.720  17.577  0.00  0.00    +0.000 C 
BRANCH  20  25
ATOM     21  C   UNL     1      -0.154   9.288  22.217  0.00  0.00    +0.000 C 
ATOM     22  C   UNL     1       0.636   8.855  21.016  0.00  0.00    +0.000 A 
ATOM     23  C   UNL     1       1.355   7.655  21.023  0.00  0.00    +0.000 A 
ATOM     24  C   UNL     1       2.115   7.285  19.906  0.00  0.00    +0.000 A 
ATOM     25  C   UNL     1       2.160   8.091  18.764  0.00  0.00    +0.000 A 
ATOM     26  C   UNL     1       1.429   9.288  18.762  0.00  0.00    +0.000 A 
ATOM     27  C   UNL     1       0.672   9.664  19.876  0.00  0.00    +0.000 A 
ENDBRANCH  20  25
ENDBRANCH  18  20
ENDBRANCH   1  18
TORSDOF 5
ENDMDL
MODEL 2
REMARK VINA RESULT:      -8.8      0.925      1.069
REMARK  Name = 
REMARK  7 active torsions:
REMARK  status: ('A' for Active; 'I' for Inactive)
REMARK    1  A    between atoms: C_1  and  C_2
REMARK    2  A    between atoms: C_5  and  C_6
REMARK    3  A    between atoms: C_6  and  N_7
REMARK    4  A    between atoms: N_7  and  C_8
REMARK    5  A    between atoms: C_11  and  C_12
REMARK    6  A    between atoms: C_14  and  C_15
REMARK    7  A    between atoms: C_19  and  C_20
REMARK                            x       y       z     vdW  Elec       q    Type
REMARK                         _______ _______ _______ _____ _____    ______ ____
ROOT
ATOM      1  C   UNL     1       4.547   5.974  17.034  0.00  0.00    +0.000 A 
ATOM      2  N   UNL     1       5.338   6.706  16.212  0.00  0.00    +0.000 NA
ATOM      3  N   UNL     1       5.978   6.145  15.139  0.00  0.00    +0.000 NA
ATOM      4  C   UNL     1       5.834   4.834  14.894  0.00  0.00    +0.000 A 
ATOM      5  C   UNL     1       6.543   4.257  13.711  0.00  0.00    +0.000 C 
ATOM      6  C   UNL     1       5.058   4.039  15.722  0.00  0.00    +0.000 A 
ATOM      7  C   UNL     1       4.372   4.592  16.820  0.00  0.00    +0.000 A 
ENDROOT
BRANCH   7   8
ATOM      8  C   UNL     1       3.623   3.677  17.727  0.00  0.00    +0.000 A 
ATOM      9  C   UNL     1       3.709   2.276  17.597  0.00  0.00    +0.000 A 
ATOM     10  C   UNL     1       3.128   1.415  18.534  0.00  0.00    +0.000 A 
ATOM     11  C   UNL     1       2.427   1.930  19.620  0.00  0.00    +0.000 A 
ATOM     12  C   UNL     1       2.294   3.314  19.773  0.00  0.00    +0.000 A 
ATOM     13  C   UNL     1       2.889   4.165  18.823  0.00  0.00    +0.000 A 
BRANCH  12  14
ATOM     14  C   UNL     1       1.564   3.914  20.948  0.00  0.00    +0.000 C 
ATOM     15  F   UNL     1       2.343   4.723  21.719  0.00  0.00    +0.000 F 
ATOM     16  F   UNL     1       0.503   4.678  20.564  0.00  0.00    +0.000 F 
ATOM     17  F   UNL     1       1.057   2.970  21.790  0.00  0.00    +0.000 F 
ENDBRANCH  12  14
ENDBRANCH   7   8
BRANCH   1  18
ATOM     18  N   UNL     1       3.847   6.632  18.067  0.00  0.00    +0.000 N 
ATOM     19  H   UNL     1       3.294   5.939  18.567  0.00  0.00    +0.000 HD
BRANCH  18  20
ATOM     20  C   UNL     1       3.035   7.758  17.620  0.00  0.00    +0.000 C 
BRANCH  20  25
ATOM     21  C   UNL     1      -0.320   9.677  21.994  0.00  0.00    +0.000 C 
ATOM     22  C   UNL     1       0.517   9.152  20.864  0.00  0.00    +0.000 A 
ATOM     23  C   UNL     1       1.281   7.990  21.014  0.00  0.00    +0.000 A 
ATOM     24  C   UNL     1       2.083   7.534  19.960  0.00  0.00    +0.000 A 
ATOM     25  C   UNL     1       2.128   8.217  18.740  0.00  0.00    +0.000 A 
ATOM     26  C   UNL     1       1.353   9.377  18.595  0.00  0.00    +0.000 A 
ATOM     27  C   UNL     1       0.553   9.838  19.646  0.00  0.00    +0.000 A 
ENDBRANCH  20  25
ENDBRANCH  18  20
ENDBRANCH   1  18
TORSDOF 5
ENDMDL
MODEL 3
REMARK VINA RESULT:      -8.8      1.230      1.852
REMARK  Name = 
REMARK  7 active torsions:
REMARK  status: ('A' for Active; 'I' for Inactive)
REMARK    1  A    between atoms: C_1  and  C_2
REMARK    2  A    between atoms: C_5  and  C_6
REMARK    3  A    between atoms: C_6  and  N_7
REMARK    4  A    between atoms: N_7  and  C_8
REMARK    5  A    between atoms: C_11  and  C_12
REMARK    6  A    between atoms: C_14  and  C_15
REMARK    7  A    between atoms: C_19  and  C_20
REMARK                            x       y       z     vdW  Elec       q    Type
REMARK                         _______ _______ _______ _____ _____    ______ ____
ROOT
ATOM      1  C   UNL     1       4.651   6.299  17.309  0.00  0.00    +0.000 A 
ATOM      2  N   UNL     1       5.717   6.694  16.571  0.00  0.00    +0.000 NA
ATOM      3  N   UNL     1       6.249   5.899  15.591  0.00  0.00    +0.000 NA
ATOM      4  C   UNL     1       5.716   4.691  15.356  0.00  0.00    +0.000 A 
ATOM      5  C   UNL     1       6.319   3.852  14.276  0.00  0.00    +0.000 C 
ATOM      6  C   UNL     1       4.644   4.232  16.104  0.00  0.00    +0.000 A 
ATOM      7  C   UNL     1       4.062   5.035  17.103  0.00  0.00    +0.000 A 
ENDROOT
BRANCH   7   8
ATOM      8  C   UNL     1       2.968   4.459  17.935  0.00  0.00    +0.000 A 
ATOM      9  C   UNL     1       1.697   4.184  17.393  0.00  0.00    +0.000 A 
ATOM     10  C   UNL     1       0.715   3.509  18.127  0.00  0.00    +0.000 A 
ATOM     11  C   UNL     1       0.972   3.105  19.434  0.00  0.00    +0.000 A 
ATOM     12  C   UNL     1       2.211   3.382  20.020  0.00  0.00    +0.000 A 
ATOM     13  C   UNL     1       3.187   4.058  19.265  0.00  0.00    +0.000 A 
BRANCH  12  14
ATOM     14  C   UNL     1       2.538   2.941  21.425  0.00  0.00    +0.000 C 
ATOM     15  F   UNL     1       1.613   2.097  21.961  0.00  0.00    +0.000 F 
ATOM     16  F   UNL     1       3.727   2.279  21.496  0.00  0.00    +0.000 F 
ATOM     17  F   UNL     1       2.641   3.985  22.294  0.00  0.00    +0.000 F 
ENDBRANCH  12  14
ENDBRANCH   7   8
BRANCH   1  18
ATOM     18  N   UNL     1       4.097   7.203  18.241  0.00  0.00    +0.000 N 
ATOM     19  H   UNL     1       3.913   6.695  19.104  0.00  0.00    +0.000 HD
BRANCH  18  20
ATOM     20  C   UNL     1       2.916   7.911  17.761  0.00  0.00    +0.000 C 
BRANCH  20  25
ATOM     21  C   UNL     1      -0.427   9.382  22.314  0.00  0.00    +0.000 C 
ATOM     22  C   UNL     1       0.407   8.972  21.136  0.00  0.00    +0.000 A 
ATOM     23  C   UNL     1       1.195   7.817  21.179  0.00  0.00    +0.000 A 
ATOM     24  C   UNL     1       1.995   7.470  20.083  0.00  0.00    +0.000 A 
ATOM     25  C   UNL     1       2.013   8.255  18.925  0.00  0.00    +0.000 A 
ATOM     26  C   UNL     1       1.213   9.406  18.886  0.00  0.00    +0.000 A 
ATOM     27  C   UNL     1       0.416   9.760  19.980  0.00  0.00    +0.000 A 
ENDBRANCH  20  25
ENDBRANCH  18  20
ENDBRANCH   1  18
TORSDOF 5
ENDMDL
MODEL 4
REMARK VINA RESULT:      -8.6      1.298      2.036
REMARK  Name = 
REMARK  7 active torsions:
REMARK  status: ('A' for Active; 'I' for Inactive)
REMARK    1  A    between atoms: C_1  and  C_2
REMARK    2  A    between atoms: C_5  and  C_6
REMARK    3  A    between atoms: C_6  and  N_7
REMARK    4  A    between atoms: N_7  and  C_8
REMARK    5  A    between atoms: C_11  and  C_12
REMARK    6  A    between atoms: C_14  and  C_15
REMARK    7  A    between atoms: C_19  and  C_20
REMARK                            x       y       z     vdW  Elec       q    Type
REMARK                         _______ _______ _______ _____ _____    ______ ____
ROOT
ATOM      1  C   UNL     1       4.500   6.339  17.463  0.00  0.00    +0.000 A 
ATOM      2  N   UNL     1       5.576   6.762  16.755  0.00  0.00    +0.000 NA
ATOM      3  N   UNL     1       6.151   5.986  15.784  0.00  0.00    +0.000 NA
ATOM      4  C   UNL     1       5.651   4.767  15.529  0.00  0.00    +0.000 A 
ATOM      5  C   UNL     1       6.300   3.950  14.459  0.00  0.00    +0.000 C 
ATOM      6  C   UNL     1       4.570   4.280  16.246  0.00  0.00    +0.000 A 
ATOM      7  C   UNL     1       3.945   5.063  17.235  0.00  0.00    +0.000 A 
ENDROOT
BRANCH   7   8
ATOM      8  C   UNL     1       2.844   4.458  18.035  0.00  0.00    +0.000 A 
ATOM      9  C   UNL     1       1.635   4.049  17.435  0.00  0.00    +0.000 A 
ATOM     10  C   UNL     1       0.660   3.348  18.151  0.00  0.00    +0.000 A 
ATOM     11  C   UNL     1       0.857   3.050  19.496  0.00  0.00    +0.000 A 
ATOM     12  C   UNL     1       2.030   3.460  20.138  0.00  0.00    +0.000 A 
ATOM     13  C   UNL     1       3.001   4.161  19.400  0.00  0.00    +0.000 A 
BRANCH  12  14
ATOM     14  C   UNL     1       2.293   3.137  21.587  0.00  0.00    +0.000 C 
ATOM     15  F   UNL     1       2.606   4.226  22.342  0.00  0.00    +0.000 F 
ATOM     16  F   UNL     1       1.216   2.564  22.194  0.00  0.00    +0.000 F 
ATOM     17  F   UNL     1       3.322   2.260  21.751  0.00  0.00    +0.000 F 
ENDBRANCH  12  14
ENDBRANCH   7   8
BRANCH   1  18
ATOM     18  N   UNL     1       3.903   7.224  18.386  0.00  0.00    +0.000 N 
ATOM     19  H   UNL     1       3.787   6.731  19.269  0.00  0.00    +0.000 HD
BRANCH  18  20
ATOM     20  C   UNL     1       2.652   7.817  17.925  0.00  0.00    +0.000 C 
BRANCH  20  25
ATOM     21  C   UNL     1      -0.543   9.699  22.432  0.00  0.00    +0.000 C 
ATOM     22  C   UNL     1       0.305   9.246  21.280  0.00  0.00    +0.000 A 
ATOM     23  C   UNL     1       0.354   9.981  20.091  0.00  0.00    +0.000 A 
ATOM     24  C   UNL     1       1.123   9.524  19.013  0.00  0.00    +0.000 A 
ATOM     25  C   UNL     1       1.864   8.340  19.105  0.00  0.00    +0.000 A 
ATOM     26  C   UNL     1       1.816   7.614  20.304  0.00  0.00    +0.000 A 
ATOM     27  C   UNL     1       1.046   8.064  21.381  0.00  0.00    +0.000 A 
ENDBRANCH  20  25
ENDBRANCH  18  20
ENDBRANCH   1  18
TORSDOF 5
ENDMDL
MODEL 5
REMARK VINA RESULT:      -8.3      4.392      5.774
REMARK  Name = 
REMARK  7 active torsions:
REMARK  status: ('A' for Active; 'I' for Inactive)
REMARK    1  A    between atoms: C_1  and  C_2
REMARK    2  A    between atoms: C_5  and  C_6
REMARK    3  A    between atoms: C_6  and  N_7
REMARK    4  A    between atoms: N_7  and  C_8
REMARK    5  A    between atoms: C_11  and  C_12
REMARK    6  A    between atoms: C_14  and  C_15
REMARK    7  A    between atoms: C_19  and  C_20
REMARK                            x       y       z     vdW  Elec       q    Type
REMARK                         _______ _______ _______ _____ _____    ______ ____
ROOT
ATOM      1  C   UNL     1       6.638   6.776  16.934  0.00  0.00    +0.000 A 
ATOM      2  N   UNL     1       7.656   6.373  16.134  0.00  0.00    +0.000 NA
ATOM      3  N   UNL     1       7.474   5.434  15.154  0.00  0.00    +0.000 NA
ATOM      4  C   UNL     1       6.263   4.883  14.981  0.00  0.00    +0.000 A 
ATOM      5  C   UNL     1       6.100   3.866  13.898  0.00  0.00    +0.000 C 
ATOM      6  C   UNL     1       5.199   5.242  15.792  0.00  0.00    +0.000 A 
ATOM      7  C   UNL     1       5.350   6.220  16.794  0.00  0.00    +0.000 A 
ENDROOT
BRANCH   7   8
ATOM      8  C   UNL     1       4.197   6.504  17.694  0.00  0.00    +0.000 A 
ATOM      9  C   UNL     1       3.929   5.706  18.824  0.00  0.00    +0.000 A 
ATOM     10  C   UNL     1       2.941   6.054  19.751  0.00  0.00    +0.000 A 
ATOM     11  C   UNL     1       2.178   7.203  19.565  0.00  0.00    +0.000 A 
ATOM     12  C   UNL     1       2.392   8.009  18.443  0.00  0.00    +0.000 A 
ATOM     13  C   UNL     1       3.393   7.645  17.523  0.00  0.00    +0.000 A 
BRANCH  12  14
ATOM     14  C   UNL     1       1.605   9.275  18.216  0.00  0.00    +0.000 C 
ATOM     15  F   UNL     1       0.521   9.106  17.408  0.00  0.00    +0.000 F 
ATOM     16  F   UNL     1       1.122   9.799  19.377  0.00  0.00    +0.000 F 
ATOM     17  F   UNL     1       2.348  10.262  17.644  0.00  0.00    +0.000 F 
ENDBRANCH  12  14
ENDBRANCH   7   8
BRANCH   1  18
ATOM     18  N   UNL     1       6.873   7.811  17.864  0.00  0.00    +0.000 N 
ATOM     19  H   UNL     1       6.478   8.671  17.488  0.00  0.00    +0.000 HD
BRANCH  18  20
ATOM     20  C   UNL     1       8.273   7.972  18.241  0.00  0.00    +0.000 C 
BRANCH  20  25
ATOM     21  C   UNL     1       9.631  13.612  18.885  0.00  0.00    +0.000 C 
ATOM     22  C   UNL     1       9.257  12.165  18.752  0.00  0.00    +0.000 A 
ATOM     23  C   UNL     1       9.707  11.218  19.678  0.00  0.00    +0.000 A 
ATOM     24  C   UNL     1       9.377   9.865  19.517  0.00  0.00    +0.000 A 
ATOM     25  C   UNL     1       8.586   9.438  18.446  0.00  0.00    +0.000 A 
ATOM     26  C   UNL     1       8.131  10.395  17.527  0.00  0.00    +0.000 A 
ATOM     27  C   UNL     1       8.462  11.746  17.680  0.00  0.00    +0.000 A 
ENDBRANCH  20  25
ENDBRANCH  18  20
ENDBRANCH   1  18
TORSDOF 5
ENDMDL
MODEL 6
REMARK VINA RESULT:      -8.3      1.468      1.818
REMARK  Name = 
REMARK  7 active torsions:
REMARK  status: ('A' for Active; 'I' for Inactive)
REMARK    1  A    between atoms: C_1  and  C_2
REMARK    2  A    between atoms: C_5  and  C_6
REMARK    3  A    between atoms: C_6  and  N_7
REMARK    4  A    between atoms: N_7  and  C_8
REMARK    5  A    between atoms: C_11  and  C_12
REMARK    6  A    between atoms: C_14  and  C_15
REMARK    7  A    between atoms: C_19  and  C_20
REMARK                            x       y       z     vdW  Elec       q    Type
REMARK                         _______ _______ _______ _____ _____    ______ ____
ROOT
ATOM      1  C   UNL     1       3.664   6.431  17.334  0.00  0.00    +0.000 A 
ATOM      2  N   UNL     1       4.570   7.274  16.779  0.00  0.00    +0.000 NA
ATOM      3  N   UNL     1       5.725   6.815  16.205  0.00  0.00    +0.000 NA
ATOM      4  C   UNL     1       5.983   5.499  16.198  0.00  0.00    +0.000 A 
ATOM      5  C   UNL     1       7.251   5.033  15.558  0.00  0.00    +0.000 C 
ATOM      6  C   UNL     1       5.101   4.600  16.777  0.00  0.00    +0.000 A 
ATOM      7  C   UNL     1       3.896   5.041  17.356  0.00  0.00    +0.000 A 
ENDROOT
BRANCH   7   8
ATOM      8  C   UNL     1       3.027   4.043  18.042  0.00  0.00    +0.000 A 
ATOM      9  C   UNL     1       2.362   3.028  17.325  0.00  0.00    +0.000 A 
ATOM     10  C   UNL     1       1.666   2.003  17.976  0.00  0.00    +0.000 A 
ATOM     11  C   UNL     1       1.600   1.975  19.366  0.00  0.00    +0.000 A 
ATOM     12  C   UNL     1       2.222   2.978  20.115  0.00  0.00    +0.000 A 
ATOM     13  C   UNL     1       2.921   3.998  19.443  0.00  0.00    +0.000 A 
BRANCH  12  14
ATOM     14  C   UNL     1       2.195   2.971  21.623  0.00  0.00    +0.000 C 
ATOM     15  F   UNL     1       2.415   4.194  22.179  0.00  0.00    +0.000 F 
ATOM     16  F   UNL     1       0.996   2.551  22.117  0.00  0.00    +0.000 F 
ATOM     17  F   UNL     1       3.130   2.140  22.162  0.00  0.00    +0.000 F 
ENDBRANCH  12  14
ENDBRANCH   7   8
BRANCH   1  18
ATOM     18  N   UNL     1       2.454   6.963  17.828  0.00  0.00    +0.000 N 
ATOM     19  H   UNL     1       1.705   6.684  17.199  0.00  0.00    +0.000 HD
BRANCH  18  20
ATOM     20  C   UNL     1       2.477   8.405  18.045  0.00  0.00    +0.000 C 
BRANCH  20  25
ATOM     21  C   UNL     1      -0.446   9.880  22.879  0.00  0.00    +0.000 C 
ATOM     22  C   UNL     1       0.279   9.471  21.629  0.00  0.00    +0.000 A 
ATOM     23  C   UNL     1       1.005   8.276  21.577  0.00  0.00    +0.000 A 
ATOM     24  C   UNL     1       1.704   7.928  20.414  0.00  0.00    +0.000 A 
ATOM     25  C   UNL     1       1.680   8.752  19.284  0.00  0.00    +0.000 A 
ATOM     26  C   UNL     1       0.942   9.943  19.341  0.00  0.00    +0.000 A 
ATOM     27  C   UNL     1       0.246  10.297  20.502  0.00  0.00    +0.000 A 
ENDBRANCH  20  25
ENDBRANCH  18  20
ENDBRANCH   1  18
TORSDOF 5
ENDMDL
MODEL 7
REMARK VINA RESULT:      -8.2      4.386      5.783
REMARK  Name = 
REMARK  7 active torsions:
REMARK  status: ('A' for Active; 'I' for Inactive)
REMARK    1  A    between atoms: C_1  and  C_2
REMARK    2  A    between atoms: C_5  and  C_6
REMARK    3  A    between atoms: C_6  and  N_7
REMARK    4  A    between atoms: N_7  and  C_8
REMARK    5  A    between atoms: C_11  and  C_12
REMARK    6  A    between atoms: C_14  and  C_15
REMARK    7  A    between atoms: C_19  and  C_20
REMARK                            x       y       z     vdW  Elec       q    Type
REMARK                         _______ _______ _______ _____ _____    ______ ____
ROOT
ATOM      1  C   UNL     1       6.623   6.806  16.899  0.00  0.00    +0.000 A 
ATOM      2  N   UNL     1       7.642   6.401  16.101  0.00  0.00    +0.000 NA
ATOM      3  N   UNL     1       7.470   5.435  15.146  0.00  0.00    +0.000 NA
ATOM      4  C   UNL     1       6.268   4.857  14.998  0.00  0.00    +0.000 A 
ATOM      5  C   UNL     1       6.116   3.810  13.942  0.00  0.00    +0.000 C 
ATOM      6  C   UNL     1       5.204   5.217  15.808  0.00  0.00    +0.000 A 
ATOM      7  C   UNL     1       5.345   6.222  16.784  0.00  0.00    +0.000 A 
ENDROOT
BRANCH   7   8
ATOM      8  C   UNL     1       4.194   6.508  17.686  0.00  0.00    +0.000 A 
ATOM      9  C   UNL     1       3.920   5.703  18.810  0.00  0.00    +0.000 A 
ATOM     10  C   UNL     1       2.934   6.050  19.740  0.00  0.00    +0.000 A 
ATOM     11  C   UNL     1       2.180   7.207  19.562  0.00  0.00    +0.000 A 
ATOM     12  C   UNL     1       2.400   8.020  18.447  0.00  0.00    +0.000 A 
ATOM     13  C   UNL     1       3.398   7.656  17.524  0.00  0.00    +0.000 A 
BRANCH  12  14
ATOM     14  C   UNL     1       1.621   9.293  18.230  0.00  0.00    +0.000 C 
ATOM     15  F   UNL     1       2.323  10.256  17.570  0.00  0.00    +0.000 F 
ATOM     16  F   UNL     1       0.491   9.091  17.495  0.00  0.00    +0.000 F 
ATOM     17  F   UNL     1       1.209   9.863  19.396  0.00  0.00    +0.000 F 
ENDBRANCH  12  14
ENDBRANCH   7   8
BRANCH   1  18
ATOM     18  N   UNL     1       6.846   7.868  17.800  0.00  0.00    +0.000 N 
ATOM     19  H   UNL     1       6.530   8.729  17.360  0.00  0.00    +0.000 HD
BRANCH  18  20
ATOM     20  C   UNL     1       8.220   7.970  18.278  0.00  0.00    +0.000 C 
BRANCH  20  25
ATOM     21  C   UNL     1       9.554  13.605  19.019  0.00  0.00    +0.000 C 
ATOM     22  C   UNL     1       9.237  12.154  18.796  0.00  0.00    +0.000 A 
ATOM     23  C   UNL     1       8.467  11.747  17.702  0.00  0.00    +0.000 A 
ATOM     24  C   UNL     1       8.150  10.393  17.530  0.00  0.00    +0.000 A 
ATOM     25  C   UNL     1       8.605   9.425  18.432  0.00  0.00    +0.000 A 
ATOM     26  C   UNL     1       9.384   9.841  19.522  0.00  0.00    +0.000 A 
ATOM     27  C   UNL     1       9.699  11.193  19.700  0.00  0.00    +0.000 A 
ENDBRANCH  20  25
ENDBRANCH  18  20
ENDBRANCH   1  18
TORSDOF 5
ENDMDL
MODEL 8
REMARK VINA RESULT:      -8.2      3.580      5.159
REMARK  Name = 
REMARK  7 active torsions:
REMARK  status: ('A' for Active; 'I' for Inactive)
REMARK    1  A    between atoms: C_1  and  C_2
REMARK    2  A    between atoms: C_5  and  C_6
REMARK    3  A    between atoms: C_6  and  N_7
REMARK    4  A    between atoms: N_7  and  C_8
REMARK    5  A    between atoms: C_11  and  C_12
REMARK    6  A    between atoms: C_14  and  C_15
REMARK    7  A    between atoms: C_19  and  C_20
REMARK                            x       y       z     vdW  Elec       q    Type
REMARK                         _______ _______ _______ _____ _____    ______ ____
ROOT
ATOM      1  C   UNL     1       2.123   5.639  19.969  0.00  0.00    +0.000 A 
ATOM      2  N   UNL     1       0.985   5.104  20.476  0.00  0.00    +0.000 NA
ATOM      3  N   UNL     1       0.578   3.837  20.154  0.00  0.00    +0.000 NA
ATOM      4  C   UNL     1       1.311   3.102  19.305  0.00  0.00    +0.000 A 
ATOM      5  C   UNL     1       0.838   1.722  18.980  0.00  0.00    +0.000 C 
ATOM      6  C   UNL     1       2.466   3.615  18.738  0.00  0.00    +0.000 A 
ATOM      7  C   UNL     1       2.921   4.907  19.066  0.00  0.00    +0.000 A 
ENDROOT
BRANCH   7   8
ATOM      8  C   UNL     1       4.121   5.441  18.362  0.00  0.00    +0.000 A 
ATOM      9  C   UNL     1       4.007   6.174  17.164  0.00  0.00    +0.000 A 
ATOM     10  C   UNL     1       5.112   6.802  16.579  0.00  0.00    +0.000 A 
ATOM     11  C   UNL     1       6.369   6.700  17.167  0.00  0.00    +0.000 A 
ATOM     12  C   UNL     1       6.532   5.960  18.342  0.00  0.00    +0.000 A 
ATOM     13  C   UNL     1       5.408   5.338  18.918  0.00  0.00    +0.000 A 
BRANCH  12  14
ATOM     14  C   UNL     1       7.871   5.844  19.025  0.00  0.00    +0.000 C 
ATOM     15  F   UNL     1       8.656   6.948  18.878  0.00  0.00    +0.000 F 
ATOM     16  F   UNL     1       7.753   5.652  20.369  0.00  0.00    +0.000 F 
ATOM     17  F   UNL     1       8.609   4.796  18.563  0.00  0.00    +0.000 F 
ENDBRANCH  12  14
ENDBRANCH   7   8
BRANCH   1  18
ATOM     18  N   UNL     1       2.531   6.915  20.410  0.00  0.00    +0.000 N 
ATOM     19  H   UNL     1       2.328   6.987  21.405  0.00  0.00    +0.000 HD
BRANCH  18  20
ATOM     20  C   UNL     1       1.957   8.023  19.656  0.00  0.00    +0.000 C 
BRANCH  20  25
ATOM     21  C   UNL     1      -1.375  11.355  23.101  0.00  0.00    +0.000 C 
ATOM     22  C   UNL     1      -0.543  10.467  22.223  0.00  0.00    +0.000 A 
ATOM     23  C   UNL     1       0.268   9.468  22.773  0.00  0.00    +0.000 A 
ATOM     24  C   UNL     1       1.065   8.672  21.940  0.00  0.00    +0.000 A 
ATOM     25  C   UNL     1       1.057   8.846  20.552  0.00  0.00    +0.000 A 
ATOM     26  C   UNL     1       0.234   9.843  20.008  0.00  0.00    +0.000 A 
ATOM     27  C   UNL     1      -0.560  10.644  20.836  0.00  0.00    +0.000 A 
ENDBRANCH  20  25
ENDBRANCH  18  20
ENDBRANCH   1  18
TORSDOF 5
ENDMDL
MODEL 9
REMARK VINA RESULT:      -8.2      2.563      6.868
REMARK  Name = 
REMARK  7 active torsions:
REMARK  status: ('A' for Active; 'I' for Inactive)
REMARK    1  A    between atoms: C_1  and  C_2
REMARK    2  A    between atoms: C_5  and  C_6
REMARK    3  A    between atoms: C_6  and  N_7
REMARK    4  A    between atoms: N_7  and  C_8
REMARK    5  A    between atoms: C_11  and  C_12
REMARK    6  A    between atoms: C_14  and  C_15
REMARK    7  A    between atoms: C_19  and  C_20
REMARK                            x       y       z     vdW  Elec       q    Type
REMARK                         _______ _______ _______ _____ _____    ______ ____
ROOT
ATOM      1  C   UNL     1       4.034   5.059  19.324  0.00  0.00    +0.000 A 
ATOM      2  N   UNL     1       4.381   3.811  19.723  0.00  0.00    +0.000 NA
ATOM      3  N   UNL     1       3.527   3.021  20.446  0.00  0.00    +0.000 NA
ATOM      4  C   UNL     1       2.317   3.491  20.785  0.00  0.00    +0.000 A 
ATOM      5  C   UNL     1       1.410   2.600  21.569  0.00  0.00    +0.000 C 
ATOM      6  C   UNL     1       1.928   4.771  20.424  0.00  0.00    +0.000 A 
ATOM      7  C   UNL     1       2.776   5.598  19.663  0.00  0.00    +0.000 A 
ENDROOT
BRANCH   7   8
ATOM      8  C   UNL     1       2.343   6.995  19.378  0.00  0.00    +0.000 A 
ATOM      9  C   UNL     1       2.502   7.571  18.102  0.00  0.00    +0.000 A 
ATOM     10  C   UNL     1       1.966   8.824  17.789  0.00  0.00    +0.000 A 
ATOM     11  C   UNL     1       1.269   9.549  18.752  0.00  0.00    +0.000 A 
ATOM     12  C   UNL     1       1.111   9.027  20.039  0.00  0.00    +0.000 A 
ATOM     13  C   UNL     1       1.654   7.762  20.334  0.00  0.00    +0.000 A 
BRANCH  12  14
ATOM     14  C   UNL     1       0.342   9.768  21.104  0.00  0.00    +0.000 C 
ATOM     15  F   UNL     1      -0.756  10.420  20.631  0.00  0.00    +0.000 F 
ATOM     16  F   UNL     1      -0.115   8.938  22.085  0.00  0.00    +0.000 F 
ATOM     17  F   UNL     1       1.095  10.711  21.736  0.00  0.00    +0.000 F 
ENDBRANCH  12  14
ENDBRANCH   7   8
BRANCH   1  18
ATOM     18  N   UNL     1       4.926   5.785  18.507  0.00  0.00    +0.000 N 
ATOM     19  H   UNL     1       4.432   6.052  17.658  0.00  0.00    +0.000 HD
BRANCH  18  20
ATOM     20  C   UNL     1       6.174   5.089  18.216  0.00  0.00    +0.000 C 
BRANCH  20  25
ATOM     21  C   UNL     1       6.233   3.714  12.543  0.00  0.00    +0.000 C 
ATOM     22  C   UNL     1       6.229   4.029  14.011  0.00  0.00    +0.000 A 
ATOM     23  C   UNL     1       5.233   3.523  14.852  0.00  0.00    +0.000 A 
ATOM     24  C   UNL     1       5.225   3.856  16.213  0.00  0.00    +0.000 A 
ATOM     25  C   UNL     1       6.211   4.684  16.759  0.00  0.00    +0.000 A 
ATOM     26  C   UNL     1       7.212   5.180  15.910  0.00  0.00    +0.000 A 
ATOM     27  C   UNL     1       7.222   4.854  14.550  0.00  0.00    +0.000 A 
ENDBRANCH  20  25
ENDBRANCH  18  20
ENDBRANCH   1  18
TORSDOF 5
ENDMDL
