MODEL 1
REMARK VINA RESULT:      -7.6      0.000      0.000
REMARK  Name = 
REMARK  7 active torsions:
REMARK  status: ('A' for Active; 'I' for Inactive)
REMARK    1  A    between atoms: C_2  and  O_3
REMARK    2  A    between atoms: C_2  and  C_4
REMARK    3  A    between atoms: C_4  and  C_5
REMARK    4  A    between atoms: C_5  and  C_6
REMARK    5  A    between atoms: N_8  and  C_9
REMARK    6  A    between atoms: C_13  and  C_14
REMARK    7  A    between atoms: N_16  and  C_17
REMARK                            x       y       z     vdW  Elec       q    Type
REMARK                         _______ _______ _______ _____ _____    ______ ____
ROOT
ATOM      1  C   UNL     1       5.958   4.591  15.859  0.00  0.00    +0.000 A 
ATOM      2  C   UNL     1       6.960   4.452  16.827  0.00  0.00    +0.000 A 
ATOM      3  C   UNL     1       6.749   4.861  18.141  0.00  0.00    +0.000 A 
ATOM      4  C   UNL     1       5.529   5.414  18.500  0.00  0.00    +0.000 A 
ATOM      5  C   UNL     1       4.511   5.565  17.545  0.00  0.00    +0.000 A 
ATOM      6  C   UNL     1       4.731   5.173  16.217  0.00  0.00    +0.000 A 
ENDROOT
BRANCH   1   9
ATOM      7  C   UNL     1       7.048   4.738  13.629  0.00  0.00    +0.000 C 
ATOM      8  O   UNL     1       7.895   5.592  13.881  0.00  0.00    +0.000 OA
ATOM      9  N   UNL     1       6.149   4.180  14.521  0.00  0.00    +0.000 N 
ATOM     10  H   UNL     1       5.713   3.300  14.243  0.00  0.00    +0.000 HD
BRANCH   7  11
ATOM     11  C   UNL     1       7.005   4.124  12.246  0.00  0.00    +0.000 C 
BRANCH  11  12
ATOM     12  C   UNL     1       5.871   3.110  12.153  0.00  0.00    +0.000 C 
BRANCH  12  14
ATOM     13  O   UNL     1       5.568   0.934  11.151  0.00  0.00    +0.000 OA
ATOM     14  C   UNL     1       6.319   1.847  11.465  0.00  0.00    +0.000 C 
BRANCH  14  15
ATOM     15  O   UNL     1       7.646   1.811  11.221  0.00  0.00    +0.000 OA
ATOM     16  H   UNL     1       8.207   1.922  12.013  0.00  0.00    +0.000 HD
ENDBRANCH  14  15
ENDBRANCH  12  14
ENDBRANCH  11  12
ENDBRANCH   7  11
ENDBRANCH   1   9
BRANCH   5  17
ATOM     17  C   UNL     1       3.252   6.199  18.013  0.00  0.00    +0.000 C 
ATOM     18  O   UNL     1       2.251   5.491  18.047  0.00  0.00    +0.000 OA
ATOM     19  N   UNL     1       3.297   7.560  18.290  0.00  0.00    +0.000 N 
ATOM     20  H   UNL     1       4.131   8.065  18.026  0.00  0.00    +0.000 HD
BRANCH  19  21
ATOM     21  C   UNL     1       2.181   8.330  18.701  0.00  0.00    +0.000 A 
ATOM     22  C   UNL     1       1.478   9.172  17.836  0.00  0.00    +0.000 A 
ATOM     23  C   UNL     1       0.411   9.950  18.287  0.00  0.00    +0.000 A 
ATOM     24  C   UNL     1       0.026   9.891  19.620  0.00  0.00    +0.000 A 
ATOM     25  C   UNL     1       0.705   9.038  20.490  0.00  0.00    +0.000 A 
ATOM     26 CL   UNL     1       0.237   8.978  22.145  0.00  0.00    +0.000 Cl
ATOM     27  C   UNL     1       1.769   8.248  20.038  0.00  0.00    +0.000 A 
ENDBRANCH  19  21
ENDBRANCH   5  17
TORSDOF 7
ENDMDL
MODEL 2
REMARK VINA RESULT:      -7.4      2.952      4.399
REMARK  Name = 
REMARK  7 active torsions:
REMARK  status: ('A' for Active; 'I' for Inactive)
REMARK    1  A    between atoms: C_2  and  O_3
REMARK    2  A    between atoms: C_2  and  C_4
REMARK    3  A    between atoms: C_4  and  C_5
REMARK    4  A    between atoms: C_5  and  C_6
REMARK    5  A    between atoms: N_8  and  C_9
REMARK    6  A    between atoms: C_13  and  C_14
REMARK    7  A    between atoms: N_16  and  C_17
REMARK                            x       y       z     vdW  Elec       q    Type
REMARK                         _______ _______ _______ _____ _____    ______ ____
ROOT
ATOM      1  C   UNL     1       3.908   5.245  19.059  0.00  0.00    +0.000 A 
ATOM      2  C   UNL     1       3.306   4.253  19.842  0.00  0.00    +0.000 A 
ATOM      3  C   UNL     1       2.198   4.538  20.636  0.00  0.00    +0.000 A 
ATOM      4  C   UNL     1       1.681   5.824  20.654  0.00  0.00    +0.000 A 
ATOM      5  C   UNL     1       2.270   6.836  19.880  0.00  0.00    +0.000 A 
ATOM      6  C   UNL     1       3.398   6.554  19.097  0.00  0.00    +0.000 A 
ENDROOT
BRANCH   1   9
ATOM      7  C   UNL     1       6.352   5.068  18.641  0.00  0.00    +0.000 C 
ATOM      8  O   UNL     1       6.762   5.281  19.780  0.00  0.00    +0.000 OA
ATOM      9  N   UNL     1       5.029   4.978  18.245  0.00  0.00    +0.000 N 
ATOM     10  H   UNL     1       4.849   4.523  17.348  0.00  0.00    +0.000 HD
BRANCH   7  11
ATOM     11  C   UNL     1       7.348   4.766  17.542  0.00  0.00    +0.000 C 
BRANCH  11  12
ATOM     12  C   UNL     1       6.622   4.286  16.290  0.00  0.00    +0.000 C 
BRANCH  12  14
ATOM     13  O   UNL     1       7.306   5.277  14.196  0.00  0.00    +0.000 OA
ATOM     14  C   UNL     1       6.629   5.341  15.213  0.00  0.00    +0.000 C 
BRANCH  14  15
ATOM     15  O   UNL     1       5.809   6.380  15.476  0.00  0.00    +0.000 OA
ATOM     16  H   UNL     1       5.087   6.178  16.103  0.00  0.00    +0.000 HD
ENDBRANCH  14  15
ENDBRANCH  12  14
ENDBRANCH  11  12
ENDBRANCH   7  11
ENDBRANCH   1   9
BRANCH   5  17
ATOM     17  C   UNL     1       1.669   8.190  19.991  0.00  0.00    +0.000 C 
ATOM     18  O   UNL     1       1.332   8.560  21.112  0.00  0.00    +0.000 OA
ATOM     19  N   UNL     1       1.462   8.886  18.807  0.00  0.00    +0.000 N 
ATOM     20  H   UNL     1       1.595   8.386  17.940  0.00  0.00    +0.000 HD
BRANCH  19  21
ATOM     21  C   UNL     1       0.859  10.166  18.726  0.00  0.00    +0.000 A 
ATOM     22  C   UNL     1      -0.525  10.354  18.687  0.00  0.00    +0.000 A 
ATOM     23  C   UNL     1      -1.082  11.627  18.561  0.00  0.00    +0.000 A 
ATOM     24  C   UNL     1      -0.255  12.740  18.480  0.00  0.00    +0.000 A 
ATOM     25  C   UNL     1       1.128  12.569  18.541  0.00  0.00    +0.000 A 
ATOM     26 CL   UNL     1       2.152  13.947  18.424  0.00  0.00    +0.000 Cl
ATOM     27  C   UNL     1       1.690  11.294  18.677  0.00  0.00    +0.000 A 
ENDBRANCH  19  21
ENDBRANCH   5  17
TORSDOF 7
ENDMDL
MODEL 3
REMARK VINA RESULT:      -7.4      2.650      4.210
REMARK  Name = 
REMARK  7 active torsions:
REMARK  status: ('A' for Active; 'I' for Inactive)
REMARK    1  A    between atoms: C_2  and  O_3
REMARK    2  A    between atoms: C_2  and  C_4
REMARK    3  A    between atoms: C_4  and  C_5
REMARK    4  A    between atoms: C_5  and  C_6
REMARK    5  A    between atoms: N_8  and  C_9
REMARK    6  A    between atoms: C_13  and  C_14
REMARK    7  A    between atoms: N_16  and  C_17
REMARK                            x       y       z     vdW  Elec       q    Type
REMARK                         _______ _______ _______ _____ _____    ______ ____
ROOT
ATOM      1  C   UNL     1       3.801   5.304  19.023  0.00  0.00    +0.000 A 
ATOM      2  C   UNL     1       3.228   4.336  19.857  0.00  0.00    +0.000 A 
ATOM      3  C   UNL     1       2.148   4.646  20.679  0.00  0.00    +0.000 A 
ATOM      4  C   UNL     1       1.630   5.932  20.674  0.00  0.00    +0.000 A 
ATOM      5  C   UNL     1       2.190   6.919  19.849  0.00  0.00    +0.000 A 
ATOM      6  C   UNL     1       3.291   6.613  19.036  0.00  0.00    +0.000 A 
ENDROOT
BRANCH   1   9
ATOM      7  C   UNL     1       6.230   5.072  18.541  0.00  0.00    +0.000 C 
ATOM      8  O   UNL     1       6.674   5.277  19.669  0.00  0.00    +0.000 OA
ATOM      9  N   UNL     1       4.895   5.011  18.180  0.00  0.00    +0.000 N 
ATOM     10  H   UNL     1       4.681   4.560  17.289  0.00  0.00    +0.000 HD
BRANCH   7  11
ATOM     11  C   UNL     1       7.189   4.747  17.416  0.00  0.00    +0.000 C 
BRANCH  11  12
ATOM     12  C   UNL     1       6.448   4.066  16.271  0.00  0.00    +0.000 C 
BRANCH  12  14
ATOM     13  O   UNL     1       6.359   4.302  13.869  0.00  0.00    +0.000 OA
ATOM     14  C   UNL     1       6.830   4.660  14.940  0.00  0.00    +0.000 C 
BRANCH  14  15
ATOM     15  O   UNL     1       7.756   5.638  15.035  0.00  0.00    +0.000 OA
ATOM     16  H   UNL     1       8.457   5.470  15.695  0.00  0.00    +0.000 HD
ENDBRANCH  14  15
ENDBRANCH  12  14
ENDBRANCH  11  12
ENDBRANCH   7  11
ENDBRANCH   1   9
BRANCH   5  17
ATOM     17  C   UNL     1       1.591   8.276  19.937  0.00  0.00    +0.000 C 
ATOM     18  O   UNL     1       1.226   8.653  21.046  0.00  0.00    +0.000 OA
ATOM     19  N   UNL     1       1.418   8.967  18.744  0.00  0.00    +0.000 N 
ATOM     20  H   UNL     1       1.572   8.461  17.883  0.00  0.00    +0.000 HD
BRANCH  19  21
ATOM     21  C   UNL     1       0.822  10.248  18.641  0.00  0.00    +0.000 A 
ATOM     22  C   UNL     1       1.552  11.436  18.730  0.00  0.00    +0.000 A 
ATOM     23  C   UNL     1       0.924  12.681  18.670  0.00  0.00    +0.000 A 
ATOM     24  C   UNL     1      -0.454  12.754  18.514  0.00  0.00    +0.000 A 
ATOM     25  C   UNL     1      -1.193  11.576  18.401  0.00  0.00    +0.000 A 
ATOM     26 CL   UNL     1      -2.902  11.669  18.223  0.00  0.00    +0.000 Cl
ATOM     27  C   UNL     1      -0.564  10.326  18.450  0.00  0.00    +0.000 A 
ENDBRANCH  19  21
ENDBRANCH   5  17
TORSDOF 7
ENDMDL
MODEL 4
REMARK VINA RESULT:      -7.4      2.541      3.914
REMARK  Name = 
REMARK  7 active torsions:
REMARK  status: ('A' for Active; 'I' for Inactive)
REMARK    1  A    between atoms: C_2  and  O_3
REMARK    2  A    between atoms: C_2  and  C_4
REMARK    3  A    between atoms: C_4  and  C_5
REMARK    4  A    between atoms: C_5  and  C_6
REMARK    5  A    between atoms: N_8  and  C_9
REMARK    6  A    between atoms: C_13  and  C_14
REMARK    7  A    between atoms: N_16  and  C_17
REMARK                            x       y       z     vdW  Elec       q    Type
REMARK                         _______ _______ _______ _____ _____    ______ ____
ROOT
ATOM      1  C   UNL     1       3.962   5.020  18.645  0.00  0.00    +0.000 A 
ATOM      2  C   UNL     1       3.603   3.996  19.530  0.00  0.00    +0.000 A 
ATOM      3  C   UNL     1       2.658   4.210  20.529  0.00  0.00    +0.000 A 
ATOM      4  C   UNL     1       2.061   5.455  20.653  0.00  0.00    +0.000 A 
ATOM      5  C   UNL     1       2.407   6.498  19.780  0.00  0.00    +0.000 A 
ATOM      6  C   UNL     1       3.375   6.288  18.786  0.00  0.00    +0.000 A 
ENDROOT
BRANCH   1   9
ATOM      7  C   UNL     1       6.281   4.692  17.810  0.00  0.00    +0.000 C 
ATOM      8  O   UNL     1       6.867   4.609  18.887  0.00  0.00    +0.000 OA
ATOM      9  N   UNL     1       4.916   4.825  17.623  0.00  0.00    +0.000 N 
ATOM     10  H   UNL     1       4.556   4.598  16.694  0.00  0.00    +0.000 HD
BRANCH   7  11
ATOM     11  C   UNL     1       7.067   4.538  16.526  0.00  0.00    +0.000 C 
BRANCH  11  12
ATOM     12  C   UNL     1       6.135   4.172  15.377  0.00  0.00    +0.000 C 
BRANCH  12  14
ATOM     13  O   UNL     1       6.468   3.883  13.002  0.00  0.00    +0.000 OA
ATOM     14  C   UNL     1       6.775   4.452  14.041  0.00  0.00    +0.000 C 
BRANCH  14  15
ATOM     15  O   UNL     1       7.733   5.401  14.094  0.00  0.00    +0.000 OA
ATOM     16  H   UNL     1       8.644   5.064  13.984  0.00  0.00    +0.000 HD
ENDBRANCH  14  15
ENDBRANCH  12  14
ENDBRANCH  11  12
ENDBRANCH   7  11
ENDBRANCH   1   9
BRANCH   5  17
ATOM     17  C   UNL     1       1.742   7.805  20.011  0.00  0.00    +0.000 C 
ATOM     18  O   UNL     1       1.757   8.610  19.085  0.00  0.00    +0.000 OA
ATOM     19  N   UNL     1       1.235   8.038  21.284  0.00  0.00    +0.000 N 
ATOM     20  H   UNL     1       1.469   7.376  22.009  0.00  0.00    +0.000 HD
BRANCH  19  21
ATOM     21  C   UNL     1       0.612   9.245  21.688  0.00  0.00    +0.000 A 
ATOM     22  C   UNL     1      -0.273   9.320  22.766  0.00  0.00    +0.000 A 
ATOM     23  C   UNL     1      -0.903  10.518  23.107  0.00  0.00    +0.000 A 
ATOM     24  C   UNL     1      -0.647  11.668  22.371  0.00  0.00    +0.000 A 
ATOM     25  C   UNL     1       0.252  11.612  21.307  0.00  0.00    +0.000 A 
ATOM     26 CL   UNL     1       0.555  13.035  20.386  0.00  0.00    +0.000 Cl
ATOM     27  C   UNL     1       0.893  10.414  20.969  0.00  0.00    +0.000 A 
ENDBRANCH  19  21
ENDBRANCH   5  17
TORSDOF 7
ENDMDL
MODEL 5
REMARK VINA RESULT:      -7.3      2.236      2.819
REMARK  Name = 
REMARK  7 active torsions:
REMARK  status: ('A' for Active; 'I' for Inactive)
REMARK    1  A    between atoms: C_2  and  O_3
REMARK    2  A    between atoms: C_2  and  C_4
REMARK    3  A    between atoms: C_4  and  C_5
REMARK    4  A    between atoms: C_5  and  C_6
REMARK    5  A    between atoms: N_8  and  C_9
REMARK    6  A    between atoms: C_13  and  C_14
REMARK    7  A    between atoms: N_16  and  C_17
REMARK                            x       y       z     vdW  Elec       q    Type
REMARK                         _______ _______ _______ _____ _____    ______ ____
ROOT
ATOM      1  C   UNL     1       4.131   3.741  17.357  0.00  0.00    +0.000 A 
ATOM      2  C   UNL     1       4.053   2.469  17.935  0.00  0.00    +0.000 A 
ATOM      3  C   UNL     1       3.325   2.254  19.103  0.00  0.00    +0.000 A 
ATOM      4  C   UNL     1       2.667   3.316  19.705  0.00  0.00    +0.000 A 
ATOM      5  C   UNL     1       2.733   4.601  19.144  0.00  0.00    +0.000 A 
ATOM      6  C   UNL     1       3.483   4.821  17.980  0.00  0.00    +0.000 A 
ENDROOT
BRANCH   1   9
ATOM      7  C   UNL     1       6.203   4.309  16.105  0.00  0.00    +0.000 C 
ATOM      8  O   UNL     1       6.997   4.335  17.043  0.00  0.00    +0.000 OA
ATOM      9  N   UNL     1       4.860   3.980  16.172  0.00  0.00    +0.000 N 
ATOM     10  H   UNL     1       4.406   3.728  15.292  0.00  0.00    +0.000 HD
BRANCH   7  11
ATOM     11  C   UNL     1       6.709   4.553  14.700  0.00  0.00    +0.000 C 
BRANCH  11  12
ATOM     12  C   UNL     1       5.744   3.961  13.681  0.00  0.00    +0.000 C 
BRANCH  12  14
ATOM     13  O   UNL     1       7.277   4.250  11.837  0.00  0.00    +0.000 OA
ATOM     14  C   UNL     1       6.460   3.551  12.419  0.00  0.00    +0.000 C 
BRANCH  14  15
ATOM     15  O   UNL     1       6.112   2.322  11.982  0.00  0.00    +0.000 OA
ATOM     16  H   UNL     1       5.978   2.258  11.016  0.00  0.00    +0.000 HD
ENDBRANCH  14  15
ENDBRANCH  12  14
ENDBRANCH  11  12
ENDBRANCH   7  11
ENDBRANCH   1   9
BRANCH   5  17
ATOM     17  C   UNL     1       2.026   5.682  19.877  0.00  0.00    +0.000 C 
ATOM     18  O   UNL     1       1.177   5.338  20.694  0.00  0.00    +0.000 OA
ATOM     19  N   UNL     1       2.324   6.990  19.515  0.00  0.00    +0.000 N 
ATOM     20  H   UNL     1       2.889   7.129  18.689  0.00  0.00    +0.000 HD
BRANCH  19  21
ATOM     21  C   UNL     1       1.710   8.136  20.077  0.00  0.00    +0.000 A 
ATOM     22  C   UNL     1       1.481   8.280  21.448  0.00  0.00    +0.000 A 
ATOM     23  C   UNL     1       0.832   9.403  21.962  0.00  0.00    +0.000 A 
ATOM     24  C   UNL     1       0.404  10.409  21.104  0.00  0.00    +0.000 A 
ATOM     25  C   UNL     1       0.646  10.288  19.735  0.00  0.00    +0.000 A 
ATOM     26 CL   UNL     1       0.102  11.527  18.672  0.00  0.00    +0.000 Cl
ATOM     27  C   UNL     1       1.307   9.167  19.218  0.00  0.00    +0.000 A 
ENDBRANCH  19  21
ENDBRANCH   5  17
TORSDOF 7
ENDMDL
MODEL 6
REMARK VINA RESULT:      -7.3      2.489      3.973
REMARK  Name = 
REMARK  7 active torsions:
REMARK  status: ('A' for Active; 'I' for Inactive)
REMARK    1  A    between atoms: C_2  and  O_3
REMARK    2  A    between atoms: C_2  and  C_4
REMARK    3  A    between atoms: C_4  and  C_5
REMARK    4  A    between atoms: C_5  and  C_6
REMARK    5  A    between atoms: N_8  and  C_9
REMARK    6  A    between atoms: C_13  and  C_14
REMARK    7  A    between atoms: N_16  and  C_17
REMARK                            x       y       z     vdW  Elec       q    Type
REMARK                         _______ _______ _______ _____ _____    ______ ____
ROOT
ATOM      1  C   UNL     1       3.982   5.751  18.421  0.00  0.00    +0.000 A 
ATOM      2  C   UNL     1       3.511   5.159  19.599  0.00  0.00    +0.000 A 
ATOM      3  C   UNL     1       2.506   5.759  20.353  0.00  0.00    +0.000 A 
ATOM      4  C   UNL     1       1.960   6.963  19.932  0.00  0.00    +0.000 A 
ATOM      5  C   UNL     1       2.418   7.576  18.755  0.00  0.00    +0.000 A 
ATOM      6  C   UNL     1       3.445   6.981  18.008  0.00  0.00    +0.000 A 
ENDROOT
BRANCH   1   9
ATOM      7  C   UNL     1       6.357   5.244  17.887  0.00  0.00    +0.000 C 
ATOM      8  O   UNL     1       6.890   5.746  18.874  0.00  0.00    +0.000 OA
ATOM      9  N   UNL     1       4.998   5.158  17.640  0.00  0.00    +0.000 N 
ATOM     10  H   UNL     1       4.702   4.477  16.939  0.00  0.00    +0.000 HD
BRANCH   7  11
ATOM     11  C   UNL     1       7.217   4.546  16.856  0.00  0.00    +0.000 C 
BRANCH  11  12
ATOM     12  C   UNL     1       6.351   4.011  15.722  0.00  0.00    +0.000 C 
BRANCH  12  14
ATOM     13  O   UNL     1       7.609   5.403  14.200  0.00  0.00    +0.000 OA
ATOM     14  C   UNL     1       6.888   4.431  14.377  0.00  0.00    +0.000 C 
BRANCH  14  15
ATOM     15  O   UNL     1       6.495   3.625  13.368  0.00  0.00    +0.000 OA
ATOM     16  H   UNL     1       6.990   3.747  12.535  0.00  0.00    +0.000 HD
ENDBRANCH  14  15
ENDBRANCH  12  14
ENDBRANCH  11  12
ENDBRANCH   7  11
ENDBRANCH   1   9
BRANCH   5  17
ATOM     17  C   UNL     1       1.799   8.879  18.403  0.00  0.00    +0.000 C 
ATOM     18  O   UNL     1       2.014   9.311  17.275  0.00  0.00    +0.000 OA
ATOM     19  N   UNL     1       1.100   9.537  19.408  0.00  0.00    +0.000 N 
ATOM     20  H   UNL     1       1.171   9.169  20.346  0.00  0.00    +0.000 HD
BRANCH  19  21
ATOM     21  C   UNL     1       0.488  10.806  19.257  0.00  0.00    +0.000 A 
ATOM     22  C   UNL     1       1.214  11.976  19.019  0.00  0.00    +0.000 A 
ATOM     23  C   UNL     1       0.581  13.216  18.922  0.00  0.00    +0.000 A 
ATOM     24  C   UNL     1      -0.799  13.302  19.057  0.00  0.00    +0.000 A 
ATOM     25  C   UNL     1      -1.538  12.138  19.272  0.00  0.00    +0.000 A 
ATOM     26 CL   UNL     1      -3.246  12.248  19.455  0.00  0.00    +0.000 Cl
ATOM     27  C   UNL     1      -0.907  10.891  19.360  0.00  0.00    +0.000 A 
ENDBRANCH  19  21
ENDBRANCH   5  17
TORSDOF 7
ENDMDL
MODEL 7
REMARK VINA RESULT:      -7.2      3.568      4.749
REMARK  Name = 
REMARK  7 active torsions:
REMARK  status: ('A' for Active; 'I' for Inactive)
REMARK    1  A    between atoms: C_2  and  O_3
REMARK    2  A    between atoms: C_2  and  C_4
REMARK    3  A    between atoms: C_4  and  C_5
REMARK    4  A    between atoms: C_5  and  C_6
REMARK    5  A    between atoms: N_8  and  C_9
REMARK    6  A    between atoms: C_13  and  C_14
REMARK    7  A    between atoms: N_16  and  C_17
REMARK                            x       y       z     vdW  Elec       q    Type
REMARK                         _______ _______ _______ _____ _____    ______ ____
ROOT
ATOM      1  C   UNL     1       3.917   5.057  19.138  0.00  0.00    +0.000 A 
ATOM      2  C   UNL     1       3.232   4.084  19.875  0.00  0.00    +0.000 A 
ATOM      3  C   UNL     1       2.089   4.406  20.603  0.00  0.00    +0.000 A 
ATOM      4  C   UNL     1       1.620   5.711  20.599  0.00  0.00    +0.000 A 
ATOM      5  C   UNL     1       2.292   6.703  19.870  0.00  0.00    +0.000 A 
ATOM      6  C   UNL     1       3.454   6.383  19.154  0.00  0.00    +0.000 A 
ENDROOT
BRANCH   1   9
ATOM      7  C   UNL     1       6.379   4.963  18.805  0.00  0.00    +0.000 C 
ATOM      8  O   UNL     1       6.742   5.339  19.917  0.00  0.00    +0.000 OA
ATOM      9  N   UNL     1       5.075   4.752  18.391  0.00  0.00    +0.000 N 
ATOM     10  H   UNL     1       4.947   4.179  17.555  0.00  0.00    +0.000 HD
BRANCH   7  11
ATOM     11  C   UNL     1       7.422   4.581  17.776  0.00  0.00    +0.000 C 
BRANCH  11  12
ATOM     12  C   UNL     1       7.058   5.160  16.415  0.00  0.00    +0.000 C 
BRANCH  12  14
ATOM     13  O   UNL     1       7.626   7.466  16.856  0.00  0.00    +0.000 OA
ATOM     14  C   UNL     1       6.795   6.642  16.500  0.00  0.00    +0.000 C 
BRANCH  14  15
ATOM     15  O   UNL     1       5.539   6.984  16.144  0.00  0.00    +0.000 OA
ATOM     16  H   UNL     1       5.071   7.544  16.794  0.00  0.00    +0.000 HD
ENDBRANCH  14  15
ENDBRANCH  12  14
ENDBRANCH  11  12
ENDBRANCH   7  11
ENDBRANCH   1   9
BRANCH   5  17
ATOM     17  C   UNL     1       1.735   8.078  19.953  0.00  0.00    +0.000 C 
ATOM     18  O   UNL     1       1.428   8.488  21.068  0.00  0.00    +0.000 OA
ATOM     19  N   UNL     1       1.532   8.750  18.754  0.00  0.00    +0.000 N 
ATOM     20  H   UNL     1       1.636   8.223  17.899  0.00  0.00    +0.000 HD
BRANCH  19  21
ATOM     21  C   UNL     1       0.968  10.046  18.649  0.00  0.00    +0.000 A 
ATOM     22  C   UNL     1       1.733  11.214  18.697  0.00  0.00    +0.000 A 
ATOM     23  C   UNL     1       1.138  12.474  18.636  0.00  0.00    +0.000 A 
ATOM     24  C   UNL     1      -0.242  12.584  18.519  0.00  0.00    +0.000 A 
ATOM     25  C   UNL     1      -1.015  11.426  18.446  0.00  0.00    +0.000 A 
ATOM     26 CL   UNL     1      -2.726  11.563  18.317  0.00  0.00    +0.000 Cl
ATOM     27  C   UNL     1      -0.420  10.159  18.497  0.00  0.00    +0.000 A 
ENDBRANCH  19  21
ENDBRANCH   5  17
TORSDOF 7
ENDMDL
MODEL 8
REMARK VINA RESULT:      -7.2      2.907      4.346
REMARK  Name = 
REMARK  7 active torsions:
REMARK  status: ('A' for Active; 'I' for Inactive)
REMARK    1  A    between atoms: C_2  and  O_3
REMARK    2  A    between atoms: C_2  and  C_4
REMARK    3  A    between atoms: C_4  and  C_5
REMARK    4  A    between atoms: C_5  and  C_6
REMARK    5  A    between atoms: N_8  and  C_9
REMARK    6  A    between atoms: C_13  and  C_14
REMARK    7  A    between atoms: N_16  and  C_17
REMARK                            x       y       z     vdW  Elec       q    Type
REMARK                         _______ _______ _______ _____ _____    ______ ____
ROOT
ATOM      1  C   UNL     1       3.429   5.231  19.020  0.00  0.00    +0.000 A 
ATOM      2  C   UNL     1       2.978   4.362  20.021  0.00  0.00    +0.000 A 
ATOM      3  C   UNL     1       2.066   4.787  20.983  0.00  0.00    +0.000 A 
ATOM      4  C   UNL     1       1.596   6.091  20.953  0.00  0.00    +0.000 A 
ATOM      5  C   UNL     1       2.036   6.981  19.961  0.00  0.00    +0.000 A 
ATOM      6  C   UNL     1       2.969   6.558  19.004  0.00  0.00    +0.000 A 
ENDROOT
BRANCH   1   9
ATOM      7  C   UNL     1       4.094   3.910  17.021  0.00  0.00    +0.000 C 
ATOM      8  O   UNL     1       3.007   3.404  16.750  0.00  0.00    +0.000 OA
ATOM      9  N   UNL     1       4.350   4.820  18.032  0.00  0.00    +0.000 N 
ATOM     10  H   UNL     1       5.215   5.358  17.957  0.00  0.00    +0.000 HD
BRANCH   7  11
ATOM     11  C   UNL     1       5.284   3.626  16.131  0.00  0.00    +0.000 C 
BRANCH  11  12
ATOM     12  C   UNL     1       5.708   4.891  15.396  0.00  0.00    +0.000 C 
BRANCH  12  14
ATOM     13  O   UNL     1       7.807   5.493  14.362  0.00  0.00    +0.000 OA
ATOM     14  C   UNL     1       7.209   4.999  15.309  0.00  0.00    +0.000 C 
BRANCH  14  15
ATOM     15  O   UNL     1       7.846   4.493  16.385  0.00  0.00    +0.000 OA
ATOM     16  H   UNL     1       8.544   3.842  16.175  0.00  0.00    +0.000 HD
ENDBRANCH  14  15
ENDBRANCH  12  14
ENDBRANCH  11  12
ENDBRANCH   7  11
ENDBRANCH   1   9
BRANCH   5  17
ATOM     17  C   UNL     1       1.504   8.366  20.029  0.00  0.00    +0.000 C 
ATOM     18  O   UNL     1       1.219   8.799  21.141  0.00  0.00    +0.000 OA
ATOM     19  N   UNL     1       1.295   9.021  18.822  0.00  0.00    +0.000 N 
ATOM     20  H   UNL     1       1.378   8.478  17.974  0.00  0.00    +0.000 HD
BRANCH  19  21
ATOM     21  C   UNL     1       0.752  10.324  18.703  0.00  0.00    +0.000 A 
ATOM     22  C   UNL     1       1.538  11.479  18.705  0.00  0.00    +0.000 A 
ATOM     23  C   UNL     1       0.965  12.749  18.632  0.00  0.00    +0.000 A 
ATOM     24  C   UNL     1      -0.416  12.881  18.548  0.00  0.00    +0.000 A 
ATOM     25  C   UNL     1      -1.212  11.736  18.522  0.00  0.00    +0.000 A 
ATOM     26 CL   UNL     1      -2.922  11.902  18.434  0.00  0.00    +0.000 Cl
ATOM     27  C   UNL     1      -0.638  10.460  18.584  0.00  0.00    +0.000 A 
ENDBRANCH  19  21
ENDBRANCH   5  17
TORSDOF 7
ENDMDL
MODEL 9
REMARK VINA RESULT:      -7.2      4.283      5.912
REMARK  Name = 
REMARK  7 active torsions:
REMARK  status: ('A' for Active; 'I' for Inactive)
REMARK    1  A    between atoms: C_2  and  O_3
REMARK    2  A    between atoms: C_2  and  C_4
REMARK    3  A    between atoms: C_4  and  C_5
REMARK    4  A    between atoms: C_5  and  C_6
REMARK    5  A    between atoms: N_8  and  C_9
REMARK    6  A    between atoms: C_13  and  C_14
REMARK    7  A    between atoms: N_16  and  C_17
REMARK                            x       y       z     vdW  Elec       q    Type
REMARK                         _______ _______ _______ _____ _____    ______ ____
ROOT
ATOM      1  C   UNL     1       3.363   5.347  18.060  0.00  0.00    +0.000 A 
ATOM      2  C   UNL     1       4.438   5.537  17.184  0.00  0.00    +0.000 A 
ATOM      3  C   UNL     1       4.728   6.797  16.666  0.00  0.00    +0.000 A 
ATOM      4  C   UNL     1       3.942   7.882  17.022  0.00  0.00    +0.000 A 
ATOM      5  C   UNL     1       2.857   7.715  17.897  0.00  0.00    +0.000 A 
ATOM      6  C   UNL     1       2.553   6.443  18.402  0.00  0.00    +0.000 A 
ENDROOT
BRANCH   1   9
ATOM      7  C   UNL     1       3.948   3.233  19.229  0.00  0.00    +0.000 C 
ATOM      8  O   UNL     1       5.115   3.486  19.521  0.00  0.00    +0.000 OA
ATOM      9  N   UNL     1       3.053   4.080  18.600  0.00  0.00    +0.000 N 
ATOM     10  H   UNL     1       2.063   3.843  18.680  0.00  0.00    +0.000 HD
BRANCH   7  11
ATOM     11  C   UNL     1       3.345   1.916  19.669  0.00  0.00    +0.000 C 
BRANCH  11  12
ATOM     12  C   UNL     1       1.824   2.005  19.667  0.00  0.00    +0.000 C 
BRANCH  12  14
ATOM     13  O   UNL     1       1.559   2.487  22.019  0.00  0.00    +0.000 OA
ATOM     14  C   UNL     1       1.318   2.780  20.856  0.00  0.00    +0.000 C 
BRANCH  14  15
ATOM     15  O   UNL     1       0.561   3.845  20.518  0.00  0.00    +0.000 OA
ATOM     16  H   UNL     1      -0.187   4.020  21.123  0.00  0.00    +0.000 HD
ENDBRANCH  14  15
ENDBRANCH  12  14
ENDBRANCH  11  12
ENDBRANCH   7  11
ENDBRANCH   1   9
BRANCH   5  17
ATOM     17  C   UNL     1       2.052   8.927  18.193  0.00  0.00    +0.000 C 
ATOM     18  O   UNL     1       2.184   9.883  17.435  0.00  0.00    +0.000 OA
ATOM     19  N   UNL     1       1.283   8.905  19.351  0.00  0.00    +0.000 N 
ATOM     20  H   UNL     1       1.422   8.137  19.991  0.00  0.00    +0.000 HD
BRANCH  19  21
ATOM     21  C   UNL     1       0.493   9.990  19.806  0.00  0.00    +0.000 A 
ATOM     22  C   UNL     1       0.808  10.734  20.947  0.00  0.00    +0.000 A 
ATOM     23  C   UNL     1      -0.018  11.766  21.392  0.00  0.00    +0.000 A 
ATOM     24  C   UNL     1      -1.178  12.075  20.692  0.00  0.00    +0.000 A 
ATOM     25  C   UNL     1      -1.492  11.356  19.538  0.00  0.00    +0.000 A 
ATOM     26 CL   UNL     1      -2.937  11.730  18.682  0.00  0.00    +0.000 Cl
ATOM     27  C   UNL     1      -0.659  10.326  19.084  0.00  0.00    +0.000 A 
ENDBRANCH  19  21
ENDBRANCH   5  17
TORSDOF 7
ENDMDL
