MODEL 1
REMARK VINA RESULT:      -8.5      0.000      0.000
REMARK  Name = 
REMARK  5 active torsions:
REMARK  status: ('A' for Active; 'I' for Inactive)
REMARK    1  A    between atoms: C_2  and  C_3
REMARK    2  A    between atoms: C_3  and  N_4
REMARK    3  A    between atoms: C_5  and  S_6
REMARK    4  A    between atoms: S_6  and  C_7
REMARK    5  A    between atoms: C_7  and  C_8
REMARK                            x       y       z     vdW  Elec       q    Type
REMARK                         _______ _______ _______ _____ _____    ______ ____
ROOT
ATOM      1  N   UNL     1       3.211   4.284  19.340  0.00  0.00    +0.000 N 
ATOM      2  C   UNL     1       3.449   4.929  18.108  0.00  0.00    +0.000 A 
ATOM      3  N   UNL     1       3.130   6.158  17.812  0.00  0.00    +0.000 NA
ATOM      4  C   UNL     1       2.506   6.861  18.842  0.00  0.00    +0.000 A 
ATOM      5  C   UNL     1       2.240   6.296  20.050  0.00  0.00    +0.000 A 
ATOM      6  N   UNL     1       1.623   7.225  20.836  0.00  0.00    +0.000 N 
ATOM      7  C   UNL     1       1.484   8.403  20.133  0.00  0.00    +0.000 A 
ATOM      8  C   UNL     1       0.911   9.617  20.536  0.00  0.00    +0.000 A 
ATOM      9  C   UNL     1       0.904  10.662  19.611  0.00  0.00    +0.000 A 
ATOM     10  C   UNL     1       1.451  10.497  18.340  0.00  0.00    +0.000 A 
ATOM     11  C   UNL     1       2.022   9.274  17.952  0.00  0.00    +0.000 A 
ATOM     12  C   UNL     1       2.042   8.200  18.863  0.00  0.00    +0.000 A 
ATOM     13  C   UNL     1       2.562   4.957  20.381  0.00  0.00    +0.000 A 
ATOM     14  O   UNL     1       2.270   4.472  21.471  0.00  0.00    +0.000 OA
ATOM     15  H   UNL     1       1.316   7.064  21.787  0.00  0.00    +0.000 HD
ENDROOT
BRANCH   1  16
ATOM     16  C   UNL     1       3.568   2.901  19.655  0.00  0.00    +0.000 C 
BRANCH  16  18
ATOM     17  C   UNL     1       1.358   2.232  18.644  0.00  0.00    +0.000 C 
ATOM     18  C   UNL     1       2.351   2.023  19.522  0.00  0.00    +0.000 C 
ENDBRANCH  16  18
ENDBRANCH   1  16
BRANCH   2  19
ATOM     19  S   UNL     1       4.245   3.964  16.847  0.00  0.00    +0.000 S 
BRANCH  19  20
ATOM     20  C   UNL     1       5.346   5.178  16.047  0.00  0.00    +0.000 C 
BRANCH  20  21
ATOM     21  C   UNL     1       6.327   5.845  17.001  0.00  0.00    +0.000 A 
ATOM     22  C   UNL     1       6.920   5.143  18.054  0.00  0.00    +0.000 A 
ATOM     23  C   UNL     1       7.852   5.789  18.870  0.00  0.00    +0.000 A 
ATOM     24  C   UNL     1       8.188   7.110  18.610  0.00  0.00    +0.000 A 
ATOM     25  C   UNL     1       7.575   7.735  17.540  0.00  0.00    +0.000 A 
ATOM     26  N   UNL     1       6.660   7.138  16.740  0.00  0.00    +0.000 NA
ENDBRANCH  20  21
ENDBRANCH  19  20
ENDBRANCH   2  19
TORSDOF 5
ENDMDL
MODEL 2
REMARK VINA RESULT:      -8.4      1.758      2.621
REMARK  Name = 
REMARK  5 active torsions:
REMARK  status: ('A' for Active; 'I' for Inactive)
REMARK    1  A    between atoms: C_2  and  C_3
REMARK    2  A    between atoms: C_3  and  N_4
REMARK    3  A    between atoms: C_5  and  S_6
REMARK    4  A    between atoms: S_6  and  C_7
REMARK    5  A    between atoms: C_7  and  C_8
REMARK                            x       y       z     vdW  Elec       q    Type
REMARK                         _______ _______ _______ _____ _____    ______ ____
ROOT
ATOM      1  N   UNL     1       3.677   4.179  19.279  0.00  0.00    +0.000 N 
ATOM      2  C   UNL     1       3.987   4.869  18.089  0.00  0.00    +0.000 A 
ATOM      3  N   UNL     1       3.608   6.079  17.783  0.00  0.00    +0.000 NA
ATOM      4  C   UNL     1       2.833   6.709  18.757  0.00  0.00    +0.000 A 
ATOM      5  C   UNL     1       2.491   6.096  19.921  0.00  0.00    +0.000 A 
ATOM      6  N   UNL     1       1.731   6.957  20.657  0.00  0.00    +0.000 N 
ATOM      7  C   UNL     1       1.574   8.139  19.964  0.00  0.00    +0.000 A 
ATOM      8  C   UNL     1       0.873   9.298  20.327  0.00  0.00    +0.000 A 
ATOM      9  C   UNL     1       0.880  10.362  19.424  0.00  0.00    +0.000 A 
ATOM     10  C   UNL     1       1.562  10.268  18.212  0.00  0.00    +0.000 A 
ATOM     11  C   UNL     1       2.259   9.101  17.863  0.00  0.00    +0.000 A 
ATOM     12  C   UNL     1       2.269   8.009  18.753  0.00  0.00    +0.000 A 
ATOM     13  C   UNL     1       2.879   4.776  20.261  0.00  0.00    +0.000 A 
ATOM     14  O   UNL     1       2.517   4.245  21.307  0.00  0.00    +0.000 OA
ATOM     15  H   UNL     1       1.343   6.751  21.568  0.00  0.00    +0.000 HD
ENDROOT
BRANCH   1  16
ATOM     16  C   UNL     1       4.104   2.818  19.605  0.00  0.00    +0.000 C 
BRANCH  16  18
ATOM     17  C   UNL     1       1.921   1.788  18.880  0.00  0.00    +0.000 C 
ATOM     18  C   UNL     1       3.262   1.829  18.843  0.00  0.00    +0.000 C 
ENDBRANCH  16  18
ENDBRANCH   1  16
BRANCH   2  19
ATOM     19  S   UNL     1       4.976   3.997  16.899  0.00  0.00    +0.000 S 
BRANCH  19  20
ATOM     20  C   UNL     1       5.662   5.345  15.881  0.00  0.00    +0.000 C 
BRANCH  20  21
ATOM     21  C   UNL     1       6.240   4.882  14.551  0.00  0.00    +0.000 A 
ATOM     22  C   UNL     1       5.583   3.944  13.751  0.00  0.00    +0.000 A 
ATOM     23  C   UNL     1       6.132   3.590  12.516  0.00  0.00    +0.000 A 
ATOM     24  C   UNL     1       7.310   4.191  12.095  0.00  0.00    +0.000 A 
ATOM     25  C   UNL     1       7.894   5.125  12.930  0.00  0.00    +0.000 A 
ATOM     26  N   UNL     1       7.392   5.478  14.137  0.00  0.00    +0.000 NA
ENDBRANCH  20  21
ENDBRANCH  19  20
ENDBRANCH   2  19
TORSDOF 5
ENDMDL
MODEL 3
REMARK VINA RESULT:      -8.2      0.648      1.005
REMARK  Name = 
REMARK  5 active torsions:
REMARK  status: ('A' for Active; 'I' for Inactive)
REMARK    1  A    between atoms: C_2  and  C_3
REMARK    2  A    between atoms: C_3  and  N_4
REMARK    3  A    between atoms: C_5  and  S_6
REMARK    4  A    between atoms: S_6  and  C_7
REMARK    5  A    between atoms: C_7  and  C_8
REMARK                            x       y       z     vdW  Elec       q    Type
REMARK                         _______ _______ _______ _____ _____    ______ ____
ROOT
ATOM      1  N   UNL     1       3.449   4.179  19.194  0.00  0.00    +0.000 N 
ATOM      2  C   UNL     1       3.677   4.855  17.977  0.00  0.00    +0.000 A 
ATOM      3  N   UNL     1       3.318   6.078  17.701  0.00  0.00    +0.000 NA
ATOM      4  C   UNL     1       2.659   6.739  18.738  0.00  0.00    +0.000 A 
ATOM      5  C   UNL     1       2.400   6.141  19.931  0.00  0.00    +0.000 A 
ATOM      6  N   UNL     1       1.743   7.033  20.729  0.00  0.00    +0.000 N 
ATOM      7  C   UNL     1       1.570   8.219  20.047  0.00  0.00    +0.000 A 
ATOM      8  C   UNL     1       0.950   9.404  20.466  0.00  0.00    +0.000 A 
ATOM      9  C   UNL     1       0.916  10.466  19.561  0.00  0.00    +0.000 A 
ATOM     10  C   UNL     1       1.482  10.345  18.293  0.00  0.00    +0.000 A 
ATOM     11  C   UNL     1       2.099   9.150  17.888  0.00  0.00    +0.000 A 
ATOM     12  C   UNL     1       2.147   8.061  18.779  0.00  0.00    +0.000 A 
ATOM     13  C   UNL     1       2.766   4.808  20.241  0.00  0.00    +0.000 A 
ATOM     14  O   UNL     1       2.480   4.292  21.318  0.00  0.00    +0.000 OA
ATOM     15  H   UNL     1       1.432   6.843  21.672  0.00  0.00    +0.000 HD
ENDROOT
BRANCH   1  16
ATOM     16  C   UNL     1       3.850   2.803  19.487  0.00  0.00    +0.000 C 
BRANCH  16  18
ATOM     17  C   UNL     1       1.580   1.902  18.866  0.00  0.00    +0.000 C 
ATOM     18  C   UNL     1       2.918   1.847  18.790  0.00  0.00    +0.000 C 
ENDBRANCH  16  18
ENDBRANCH   1  16
BRANCH   2  19
ATOM     19  S   UNL     1       4.519   3.943  16.708  0.00  0.00    +0.000 S 
BRANCH  19  20
ATOM     20  C   UNL     1       5.620   5.199  15.975  0.00  0.00    +0.000 C 
BRANCH  20  21
ATOM     21  C   UNL     1       6.589   5.825  16.969  0.00  0.00    +0.000 A 
ATOM     22  C   UNL     1       6.910   7.184  16.924  0.00  0.00    +0.000 A 
ATOM     23  C   UNL     1       7.766   7.720  17.889  0.00  0.00    +0.000 A 
ATOM     24  C   UNL     1       8.268   6.898  18.889  0.00  0.00    +0.000 A 
ATOM     25  C   UNL     1       7.892   5.568  18.881  0.00  0.00    +0.000 A 
ATOM     26  N   UNL     1       7.074   5.018  17.951  0.00  0.00    +0.000 NA
ENDBRANCH  20  21
ENDBRANCH  19  20
ENDBRANCH   2  19
TORSDOF 5
ENDMDL
MODEL 4
REMARK VINA RESULT:      -7.9      0.654      1.079
REMARK  Name = 
REMARK  5 active torsions:
REMARK  status: ('A' for Active; 'I' for Inactive)
REMARK    1  A    between atoms: C_2  and  C_3
REMARK    2  A    between atoms: C_3  and  N_4
REMARK    3  A    between atoms: C_5  and  S_6
REMARK    4  A    between atoms: S_6  and  C_7
REMARK    5  A    between atoms: C_7  and  C_8
REMARK                            x       y       z     vdW  Elec       q    Type
REMARK                         _______ _______ _______ _____ _____    ______ ____
ROOT
ATOM      1  N   UNL     1       3.091   3.941  19.270  0.00  0.00    +0.000 N 
ATOM      2  C   UNL     1       3.406   4.600  18.062  0.00  0.00    +0.000 A 
ATOM      3  N   UNL     1       3.156   5.849  17.783  0.00  0.00    +0.000 NA
ATOM      4  C   UNL     1       2.527   6.559  18.806  0.00  0.00    +0.000 A 
ATOM      5  C   UNL     1       2.189   5.981  19.989  0.00  0.00    +0.000 A 
ATOM      6  N   UNL     1       1.587   6.922  20.774  0.00  0.00    +0.000 N 
ATOM      7  C   UNL     1       1.530   8.120  20.093  0.00  0.00    +0.000 A 
ATOM      8  C   UNL     1       0.999   9.351  20.503  0.00  0.00    +0.000 A 
ATOM      9  C   UNL     1       1.077  10.414  19.602  0.00  0.00    +0.000 A 
ATOM     10  C   UNL     1       1.663  10.250  18.349  0.00  0.00    +0.000 A 
ATOM     11  C   UNL     1       2.191   9.011  17.954  0.00  0.00    +0.000 A 
ATOM     12  C   UNL     1       2.126   7.918  18.840  0.00  0.00    +0.000 A 
ATOM     13  C   UNL     1       2.436   4.621  20.301  0.00  0.00    +0.000 A 
ATOM     14  O   UNL     1       2.080   4.128  21.368  0.00  0.00    +0.000 OA
ATOM     15  H   UNL     1       1.237   6.755  21.708  0.00  0.00    +0.000 HD
ENDROOT
BRANCH   1  16
ATOM     16  C   UNL     1       3.370   2.536  19.565  0.00  0.00    +0.000 C 
BRANCH  16  18
ATOM     17  C   UNL     1       5.151   1.413  20.951  0.00  0.00    +0.000 C 
ATOM     18  C   UNL     1       4.757   2.406  20.139  0.00  0.00    +0.000 C 
ENDBRANCH  16  18
ENDBRANCH   1  16
BRANCH   2  19
ATOM     19  S   UNL     1       4.203   3.625  16.810  0.00  0.00    +0.000 S 
BRANCH  19  20
ATOM     20  C   UNL     1       5.293   4.837  15.992  0.00  0.00    +0.000 C 
BRANCH  20  21
ATOM     21  C   UNL     1       6.249   5.547  16.940  0.00  0.00    +0.000 A 
ATOM     22  C   UNL     1       6.882   4.872  17.988  0.00  0.00    +0.000 A 
ATOM     23  C   UNL     1       7.788   5.559  18.798  0.00  0.00    +0.000 A 
ATOM     24  C   UNL     1       8.061   6.895  18.539  0.00  0.00    +0.000 A 
ATOM     25  C   UNL     1       7.413   7.492  17.474  0.00  0.00    +0.000 A 
ATOM     26  N   UNL     1       6.520   6.855  16.679  0.00  0.00    +0.000 NA
ENDBRANCH  20  21
ENDBRANCH  19  20
ENDBRANCH   2  19
TORSDOF 5
ENDMDL
MODEL 5
REMARK VINA RESULT:      -7.5      3.416      5.857
REMARK  Name = 
REMARK  5 active torsions:
REMARK  status: ('A' for Active; 'I' for Inactive)
REMARK    1  A    between atoms: C_2  and  C_3
REMARK    2  A    between atoms: C_3  and  N_4
REMARK    3  A    between atoms: C_5  and  S_6
REMARK    4  A    between atoms: S_6  and  C_7
REMARK    5  A    between atoms: C_7  and  C_8
REMARK                            x       y       z     vdW  Elec       q    Type
REMARK                         _______ _______ _______ _____ _____    ______ ____
ROOT
ATOM      1  N   UNL     1       6.268   5.625  17.621  0.00  0.00    +0.000 N 
ATOM      2  C   UNL     1       5.309   5.338  16.627  0.00  0.00    +0.000 A 
ATOM      3  N   UNL     1       4.153   4.766  16.820  0.00  0.00    +0.000 NA
ATOM      4  C   UNL     1       3.883   4.434  18.148  0.00  0.00    +0.000 A 
ATOM      5  C   UNL     1       4.769   4.675  19.151  0.00  0.00    +0.000 A 
ATOM      6  N   UNL     1       4.226   4.236  20.323  0.00  0.00    +0.000 N 
ATOM      7  C   UNL     1       2.978   3.701  20.080  0.00  0.00    +0.000 A 
ATOM      8  C   UNL     1       2.064   3.131  20.977  0.00  0.00    +0.000 A 
ATOM      9  C   UNL     1       0.858   2.663  20.454  0.00  0.00    +0.000 A 
ATOM     10  C   UNL     1       0.580   2.766  19.092  0.00  0.00    +0.000 A 
ATOM     11  C   UNL     1       1.507   3.339  18.207  0.00  0.00    +0.000 A 
ATOM     12  C   UNL     1       2.734   3.819  18.705  0.00  0.00    +0.000 A 
ATOM     13  C   UNL     1       6.036   5.278  18.956  0.00  0.00    +0.000 A 
ATOM     14  O   UNL     1       6.823   5.444  19.883  0.00  0.00    +0.000 OA
ATOM     15  H   UNL     1       4.678   4.294  21.227  0.00  0.00    +0.000 HD
ENDROOT
BRANCH   1  16
ATOM     16  C   UNL     1       7.565   6.260  17.387  0.00  0.00    +0.000 C 
BRANCH  16  18
ATOM     17  C   UNL     1       8.226   8.592  18.077  0.00  0.00    +0.000 C 
ATOM     18  C   UNL     1       7.408   7.757  17.418  0.00  0.00    +0.000 C 
ENDBRANCH  16  18
ENDBRANCH   1  16
BRANCH   2  19
ATOM     19  S   UNL     1       5.730   5.789  14.962  0.00  0.00    +0.000 S 
BRANCH  19  20
ATOM     20  C   UNL     1       6.667   4.338  14.378  0.00  0.00    +0.000 C 
BRANCH  20  21
ATOM     21  C   UNL     1       6.068   3.670  13.148  0.00  0.00    +0.000 A 
ATOM     22  C   UNL     1       6.795   2.755  12.382  0.00  0.00    +0.000 A 
ATOM     23  C   UNL     1       6.182   2.132  11.293  0.00  0.00    +0.000 A 
ATOM     24  C   UNL     1       4.856   2.417  11.000  0.00  0.00    +0.000 A 
ATOM     25  C   UNL     1       4.194   3.318  11.813  0.00  0.00    +0.000 A 
ATOM     26  N   UNL     1       4.765   3.946  12.868  0.00  0.00    +0.000 NA
ENDBRANCH  20  21
ENDBRANCH  19  20
ENDBRANCH   2  19
TORSDOF 5
ENDMDL
MODEL 6
REMARK VINA RESULT:      -7.4      2.293      6.290
REMARK  Name = 
REMARK  5 active torsions:
REMARK  status: ('A' for Active; 'I' for Inactive)
REMARK    1  A    between atoms: C_2  and  C_3
REMARK    2  A    between atoms: C_3  and  N_4
REMARK    3  A    between atoms: C_5  and  S_6
REMARK    4  A    between atoms: S_6  and  C_7
REMARK    5  A    between atoms: C_7  and  C_8
REMARK                            x       y       z     vdW  Elec       q    Type
REMARK                         _______ _______ _______ _____ _____    ______ ____
ROOT
ATOM      1  N   UNL     1       1.861   4.309  19.340  0.00  0.00    +0.000 N 
ATOM      2  C   UNL     1       2.527   5.534  19.555  0.00  0.00    +0.000 A 
ATOM      3  N   UNL     1       3.567   5.967  18.898  0.00  0.00    +0.000 NA
ATOM      4  C   UNL     1       4.019   5.109  17.895  0.00  0.00    +0.000 A 
ATOM      5  C   UNL     1       3.428   3.911  17.643  0.00  0.00    +0.000 A 
ATOM      6  N   UNL     1       4.096   3.306  16.619  0.00  0.00    +0.000 N 
ATOM      7  C   UNL     1       5.133   4.115  16.204  0.00  0.00    +0.000 A 
ATOM      8  C   UNL     1       6.079   3.901  15.192  0.00  0.00    +0.000 A 
ATOM      9  C   UNL     1       7.030   4.900  14.981  0.00  0.00    +0.000 A 
ATOM     10  C   UNL     1       7.030   6.063  15.748  0.00  0.00    +0.000 A 
ATOM     11  C   UNL     1       6.075   6.262  16.758  0.00  0.00    +0.000 A 
ATOM     12  C   UNL     1       5.104   5.271  16.996  0.00  0.00    +0.000 A 
ATOM     13  C   UNL     1       2.310   3.417  18.360  0.00  0.00    +0.000 A 
ATOM     14  O   UNL     1       1.829   2.313  18.126  0.00  0.00    +0.000 OA
ATOM     15  H   UNL     1       3.862   2.401  16.232  0.00  0.00    +0.000 HD
ENDROOT
BRANCH   1  16
ATOM     16  C   UNL     1       0.701   3.833  20.092  0.00  0.00    +0.000 C 
BRANCH  16  18
ATOM     17  C   UNL     1       2.232   2.909  21.869  0.00  0.00    +0.000 C 
ATOM     18  C   UNL     1       1.139   2.800  21.097  0.00  0.00    +0.000 C 
ENDBRANCH  16  18
ENDBRANCH   1  16
BRANCH   2  19
ATOM     19  S   UNL     1       1.891   6.567  20.852  0.00  0.00    +0.000 S 
BRANCH  19  20
ATOM     20  C   UNL     1       1.664   8.170  20.014  0.00  0.00    +0.000 C 
BRANCH  20  21
ATOM     21  C   UNL     1       0.828   9.167  20.804  0.00  0.00    +0.000 A 
ATOM     22  C   UNL     1       0.520   8.964  22.151  0.00  0.00    +0.000 A 
ATOM     23  C   UNL     1      -0.207   9.934  22.843  0.00  0.00    +0.000 A 
ATOM     24  C   UNL     1      -0.597  11.093  22.188  0.00  0.00    +0.000 A 
ATOM     25  C   UNL     1      -0.241  11.235  20.859  0.00  0.00    +0.000 A 
ATOM     26  N   UNL     1       0.453  10.306  20.159  0.00  0.00    +0.000 NA
ENDBRANCH  20  21
ENDBRANCH  19  20
ENDBRANCH   2  19
TORSDOF 5
ENDMDL
MODEL 7
REMARK VINA RESULT:      -7.4      2.272      4.708
REMARK  Name = 
REMARK  5 active torsions:
REMARK  status: ('A' for Active; 'I' for Inactive)
REMARK    1  A    between atoms: C_2  and  C_3
REMARK    2  A    between atoms: C_3  and  N_4
REMARK    3  A    between atoms: C_5  and  S_6
REMARK    4  A    between atoms: S_6  and  C_7
REMARK    5  A    between atoms: C_7  and  C_8
REMARK                            x       y       z     vdW  Elec       q    Type
REMARK                         _______ _______ _______ _____ _____    ______ ____
ROOT
ATOM      1  N   UNL     1       5.169   5.602  17.449  0.00  0.00    +0.000 N 
ATOM      2  C   UNL     1       4.792   5.195  18.746  0.00  0.00    +0.000 A 
ATOM      3  N   UNL     1       3.888   5.762  19.495  0.00  0.00    +0.000 NA
ATOM      4  C   UNL     1       3.258   6.862  18.913  0.00  0.00    +0.000 A 
ATOM      5  C   UNL     1       3.581   7.311  17.672  0.00  0.00    +0.000 A 
ATOM      6  N   UNL     1       2.804   8.397  17.388  0.00  0.00    +0.000 N 
ATOM      7  C   UNL     1       1.971   8.658  18.456  0.00  0.00    +0.000 A 
ATOM      8  C   UNL     1       1.014   9.669  18.611  0.00  0.00    +0.000 A 
ATOM      9  C   UNL     1       0.302   9.701  19.811  0.00  0.00    +0.000 A 
ATOM     10  C   UNL     1       0.538   8.757  20.809  0.00  0.00    +0.000 A 
ATOM     11  C   UNL     1       1.500   7.750  20.638  0.00  0.00    +0.000 A 
ATOM     12  C   UNL     1       2.236   7.693  19.438  0.00  0.00    +0.000 A 
ATOM     13  C   UNL     1       4.574   6.719  16.853  0.00  0.00    +0.000 A 
ATOM     14  O   UNL     1       4.863   7.179  15.752  0.00  0.00    +0.000 OA
ATOM     15  H   UNL     1       2.842   8.924  16.526  0.00  0.00    +0.000 HD
ENDROOT
BRANCH   1  16
ATOM     16  C   UNL     1       6.193   4.961  16.624  0.00  0.00    +0.000 C 
BRANCH  16  18
ATOM     17  C   UNL     1       5.873   4.005  14.314  0.00  0.00    +0.000 C 
ATOM     18  C   UNL     1       5.534   4.062  15.611  0.00  0.00    +0.000 C 
ENDBRANCH  16  18
ENDBRANCH   1  16
BRANCH   2  19
ATOM     19  S   UNL     1       5.644   3.787  19.415  0.00  0.00    +0.000 S 
BRANCH  19  20
ATOM     20  C   UNL     1       4.512   2.411  19.027  0.00  0.00    +0.000 C 
BRANCH  20  21
ATOM     21  C   UNL     1       3.084   2.632  19.506  0.00  0.00    +0.000 A 
ATOM     22  C   UNL     1       2.779   2.785  20.861  0.00  0.00    +0.000 A 
ATOM     23  C   UNL     1       1.460   3.035  21.244  0.00  0.00    +0.000 A 
ATOM     24  C   UNL     1       0.475   3.147  20.271  0.00  0.00    +0.000 A 
ATOM     25  C   UNL     1       0.854   3.002  18.949  0.00  0.00    +0.000 A 
ATOM     26  N   UNL     1       2.123   2.748  18.550  0.00  0.00    +0.000 NA
ENDBRANCH  20  21
ENDBRANCH  19  20
ENDBRANCH   2  19
TORSDOF 5
ENDMDL
MODEL 8
REMARK VINA RESULT:      -7.3      2.439      6.097
REMARK  Name = 
REMARK  5 active torsions:
REMARK  status: ('A' for Active; 'I' for Inactive)
REMARK    1  A    between atoms: C_2  and  C_3
REMARK    2  A    between atoms: C_3  and  N_4
REMARK    3  A    between atoms: C_5  and  S_6
REMARK    4  A    between atoms: S_6  and  C_7
REMARK    5  A    between atoms: C_7  and  C_8
REMARK                            x       y       z     vdW  Elec       q    Type
REMARK                         _______ _______ _______ _____ _____    ______ ____
ROOT
ATOM      1  N   UNL     1       2.940   4.121  20.394  0.00  0.00    +0.000 N 
ATOM      2  C   UNL     1       2.652   5.410  19.899  0.00  0.00    +0.000 A 
ATOM      3  N   UNL     1       3.159   5.950  18.826  0.00  0.00    +0.000 NA
ATOM      4  C   UNL     1       4.057   5.137  18.135  0.00  0.00    +0.000 A 
ATOM      5  C   UNL     1       4.385   3.889  18.564  0.00  0.00    +0.000 A 
ATOM      6  N   UNL     1       5.284   3.354  17.688  0.00  0.00    +0.000 N 
ATOM      7  C   UNL     1       5.546   4.262  16.684  0.00  0.00    +0.000 A 
ATOM      8  C   UNL     1       6.402   4.146  15.580  0.00  0.00    +0.000 A 
ATOM      9  C   UNL     1       6.475   5.233  14.708  0.00  0.00    +0.000 A 
ATOM     10  C   UNL     1       5.721   6.384  14.932  0.00  0.00    +0.000 A 
ATOM     11  C   UNL     1       4.869   6.484  16.043  0.00  0.00    +0.000 A 
ATOM     12  C   UNL     1       4.775   5.404  16.942  0.00  0.00    +0.000 A 
ATOM     13  C   UNL     1       3.858   3.295  19.736  0.00  0.00    +0.000 A 
ATOM     14  O   UNL     1       4.210   2.179  20.110  0.00  0.00    +0.000 OA
ATOM     15  H   UNL     1       5.694   2.432  17.772  0.00  0.00    +0.000 HD
ENDROOT
BRANCH   1  16
ATOM     16  C   UNL     1       2.369   3.531  21.605  0.00  0.00    +0.000 C 
BRANCH  16  18
ATOM     17  C   UNL     1       0.604   2.685  20.018  0.00  0.00    +0.000 C 
ATOM     18  C   UNL     1       1.111   2.781  21.256  0.00  0.00    +0.000 C 
ENDBRANCH  16  18
ENDBRANCH   1  16
BRANCH   2  19
ATOM     19  S   UNL     1       1.500   6.382  20.839  0.00  0.00    +0.000 S 
BRANCH  19  20
ATOM     20  C   UNL     1       1.790   8.068  20.208  0.00  0.00    +0.000 C 
BRANCH  20  21
ATOM     21  C   UNL     1       0.931   9.133  20.876  0.00  0.00    +0.000 A 
ATOM     22  C   UNL     1       0.509   9.011  22.202  0.00  0.00    +0.000 A 
ATOM     23  C   UNL     1      -0.235  10.041  22.783  0.00  0.00    +0.000 A 
ATOM     24  C   UNL     1      -0.526  11.177  22.040  0.00  0.00    +0.000 A 
ATOM     25  C   UNL     1      -0.058  11.236  20.740  0.00  0.00    +0.000 A 
ATOM     26  N   UNL     1       0.654  10.249  20.147  0.00  0.00    +0.000 NA
ENDBRANCH  20  21
ENDBRANCH  19  20
ENDBRANCH   2  19
TORSDOF 5
ENDMDL
MODEL 9
REMARK VINA RESULT:      -7.2      2.332      6.200
REMARK  Name = 
REMARK  5 active torsions:
REMARK  status: ('A' for Active; 'I' for Inactive)
REMARK    1  A    between atoms: C_2  and  C_3
REMARK    2  A    between atoms: C_3  and  N_4
REMARK    3  A    between atoms: C_5  and  S_6
REMARK    4  A    between atoms: S_6  and  C_7
REMARK    5  A    between atoms: C_7  and  C_8
REMARK                            x       y       z     vdW  Elec       q    Type
REMARK                         _______ _______ _______ _____ _____    ______ ____
ROOT
ATOM      1  N   UNL     1       2.978   4.485  20.251  0.00  0.00    +0.000 N 
ATOM      2  C   UNL     1       2.827   5.761  19.669  0.00  0.00    +0.000 A 
ATOM      3  N   UNL     1       3.368   6.163  18.553  0.00  0.00    +0.000 NA
ATOM      4  C   UNL     1       4.153   5.206  17.909  0.00  0.00    +0.000 A 
ATOM      5  C   UNL     1       4.346   3.961  18.422  0.00  0.00    +0.000 A 
ATOM      6  N   UNL     1       5.158   3.266  17.574  0.00  0.00    +0.000 N 
ATOM      7  C   UNL     1       5.499   4.065  16.504  0.00  0.00    +0.000 A 
ATOM      8  C   UNL     1       6.311   3.775  15.399  0.00  0.00    +0.000 A 
ATOM      9  C   UNL     1       6.489   4.782  14.450  0.00  0.00    +0.000 A 
ATOM     10  C   UNL     1       5.876   6.024  14.601  0.00  0.00    +0.000 A 
ATOM     11  C   UNL     1       5.066   6.300  15.714  0.00  0.00    +0.000 A 
ATOM     12  C   UNL     1       4.869   5.304  16.690  0.00  0.00    +0.000 A 
ATOM     13  C   UNL     1       3.781   3.515  19.642  0.00  0.00    +0.000 A 
ATOM     14  O   UNL     1       4.011   2.396  20.090  0.00  0.00    +0.000 OA
ATOM     15  H   UNL     1       5.461   2.311  17.719  0.00  0.00    +0.000 HD
ENDROOT
BRANCH   1  16
ATOM     16  C   UNL     1       2.371   4.052  21.509  0.00  0.00    +0.000 C 
BRANCH  16  18
ATOM     17  C   UNL     1       0.508   3.121  20.089  0.00  0.00    +0.000 C 
ATOM     18  C   UNL     1       1.228   3.114  21.222  0.00  0.00    +0.000 C 
ENDBRANCH  16  18
ENDBRANCH   1  16
BRANCH   2  19
ATOM     19  S   UNL     1       1.815   6.923  20.552  0.00  0.00    +0.000 S 
BRANCH  19  20
ATOM     20  C   UNL     1       1.823   8.378  19.454  0.00  0.00    +0.000 C 
BRANCH  20  21
ATOM     21  C   UNL     1       0.868   9.483  19.885  0.00  0.00    +0.000 A 
ATOM     22  C   UNL     1      -0.060  10.039  19.002  0.00  0.00    +0.000 A 
ATOM     23  C   UNL     1      -0.947  11.015  19.462  0.00  0.00    +0.000 A 
ATOM     24  C   UNL     1      -0.904  11.404  20.793  0.00  0.00    +0.000 A 
ATOM     25  C   UNL     1       0.029  10.797  21.614  0.00  0.00    +0.000 A 
ATOM     26  N   UNL     1       0.908   9.857  21.193  0.00  0.00    +0.000 NA
ENDBRANCH  20  21
ENDBRANCH  19  20
ENDBRANCH   2  19
TORSDOF 5
ENDMDL
