MODEL 1
REMARK VINA RESULT:      -7.8      0.000      0.000
REMARK  Name = 
REMARK  8 active torsions:
REMARK  status: ('A' for Active; 'I' for Inactive)
REMARK    1  A    between atoms: CB_1  and  CA_2
REMARK    2  A    between atoms: CA_2  and  N_3
REMARK    3  A    between atoms: CA_2  and  C_4
REMARK    4  A    between atoms: N_6  and  CA_7
REMARK    5  A    between atoms: CA_7  and  CB_8
REMARK    6  A    between atoms: CA_7  and  C_18
REMARK    7  A    between atoms: CB_8  and  CG_9
REMARK    8  A    between atoms: C_18  and  OXT_20
REMARK                            x       y       z     vdW  Elec       q    Type
REMARK                         _______ _______ _______ _____ _____    ______ ____
ROOT
ATOM      1  CA  TRP A   2       5.958   3.982  16.268  0.00  0.00    +0.000 C 
ENDROOT
BRANCH   1   4
ATOM      2  C   ALA A   1       7.482   4.834  18.062  0.00  0.00    +0.000 C 
ATOM      3  O   ALA A   1       8.368   4.029  17.787  0.00  0.00    +0.000 OA
ATOM      4  N   TRP A   2       6.312   4.939  17.339  0.00  0.00    +0.000 N 
ATOM      5  H   TRP A   2       5.558   5.504  17.720  0.00  0.00    +0.000 HD
BRANCH   2   7
ATOM      6  CB  ALA A   1       8.206   7.160  18.555  0.00  0.00    +0.000 C 
ATOM      7  CA  ALA A   1       7.637   5.889  19.174  0.00  0.00    +0.000 C 
BRANCH   7   8
ATOM      8  N   ALA A   1       8.535   5.384  20.223  0.00  0.00    +0.000 NA
ATOM      9  H1  ALA A   1       9.390   5.051  19.765  0.00  0.00    +0.000 HD
ATOM     10  H2  ALA A   1       8.125   4.540  20.623  0.00  0.00    +0.000 HD
ENDBRANCH   7   8
ENDBRANCH   2   7
ENDBRANCH   1   4
BRANCH   1  11
ATOM     11  C   TRP A   2       6.645   4.444  14.980  0.00  0.00    +0.000 C 
ATOM     12  O   TRP A   2       7.292   5.473  14.857  0.00  0.00    +0.000 OA
BRANCH  11  13
ATOM     13  OXT TRP A   2       6.394   3.622  13.924  0.00  0.00    +0.000 OA
ATOM     14  HXT TRP A   2       5.436   3.655  13.710  0.00  0.00    +0.000 HD
ENDBRANCH  11  13
ENDBRANCH   1  11
BRANCH   1  15
ATOM     15  CB  TRP A   2       4.442   3.851  16.052  0.00  0.00    +0.000 C 
BRANCH  15  16
ATOM     16  CG  TRP A   2       3.671   3.475  17.285  0.00  0.00    +0.000 A 
ATOM     17  CD1 TRP A   2       3.376   2.198  17.724  0.00  0.00    +0.000 A 
ATOM     18  NE1 TRP A   2       2.738   2.286  18.930  0.00  0.00    +0.000 N 
ATOM     19  CE2 TRP A   2       2.548   3.605  19.268  0.00  0.00    +0.000 A 
ATOM     20  CZ2 TRP A   2       1.943   4.163  20.399  0.00  0.00    +0.000 A 
ATOM     21  CH2 TRP A   2       1.866   5.556  20.470  0.00  0.00    +0.000 A 
ATOM     22  CZ3 TRP A   2       2.367   6.356  19.446  0.00  0.00    +0.000 A 
ATOM     23  CE3 TRP A   2       2.980   5.780  18.326  0.00  0.00    +0.000 A 
ATOM     24  CD2 TRP A   2       3.086   4.376  18.236  0.00  0.00    +0.000 A 
ATOM     25  HE1 TRP A   2       2.445   1.500  19.494  0.00  0.00    +0.000 HD
ENDBRANCH  15  16
ENDBRANCH   1  15
TORSDOF 7
ENDMDL
MODEL 2
REMARK VINA RESULT:      -7.7      0.911      1.126
REMARK  Name = 
REMARK  8 active torsions:
REMARK  status: ('A' for Active; 'I' for Inactive)
REMARK    1  A    between atoms: CB_1  and  CA_2
REMARK    2  A    between atoms: CA_2  and  N_3
REMARK    3  A    between atoms: CA_2  and  C_4
REMARK    4  A    between atoms: N_6  and  CA_7
REMARK    5  A    between atoms: CA_7  and  CB_8
REMARK    6  A    between atoms: CA_7  and  C_18
REMARK    7  A    between atoms: CB_8  and  CG_9
REMARK    8  A    between atoms: C_18  and  OXT_20
REMARK                            x       y       z     vdW  Elec       q    Type
REMARK                         _______ _______ _______ _____ _____    ______ ____
ROOT
ATOM      1  CA  TRP A   2       5.272   4.142  16.619  0.00  0.00    +0.000 C 
ENDROOT
BRANCH   1   4
ATOM      2  C   ALA A   1       7.187   4.987  17.994  0.00  0.00    +0.000 C 
ATOM      3  O   ALA A   1       8.017   4.342  17.358  0.00  0.00    +0.000 OA
ATOM      4  N   TRP A   2       5.847   5.014  17.668  0.00  0.00    +0.000 N 
ATOM      5  H   TRP A   2       5.197   5.428  18.330  0.00  0.00    +0.000 HD
BRANCH   2   7
ATOM      6  CB  ALA A   1       8.190   7.188  18.564  0.00  0.00    +0.000 C 
ATOM      7  CA  ALA A   1       7.576   5.924  19.153  0.00  0.00    +0.000 C 
BRANCH   7   8
ATOM      8  N   ALA A   1       8.538   5.252  20.040  0.00  0.00    +0.000 NA
ATOM      9  H1  ALA A   1       8.867   4.409  19.558  0.00  0.00    +0.000 HD
ATOM     10  H2  ALA A   1       8.035   4.893  20.852  0.00  0.00    +0.000 HD
ENDBRANCH   7   8
ENDBRANCH   2   7
ENDBRANCH   1   4
BRANCH   1  11
ATOM     11  C   TRP A   2       5.855   4.581  15.273  0.00  0.00    +0.000 C 
ATOM     12  O   TRP A   2       5.780   5.708  14.806  0.00  0.00    +0.000 OA
BRANCH  11  13
ATOM     13  OXT TRP A   2       6.412   3.550  14.579  0.00  0.00    +0.000 OA
ATOM     14  HXT TRP A   2       5.704   2.929  14.301  0.00  0.00    +0.000 HD
ENDBRANCH  11  13
ENDBRANCH   1  11
BRANCH   1  15
ATOM     15  CB  TRP A   2       3.736   4.179  16.578  0.00  0.00    +0.000 C 
BRANCH  15  16
ATOM     16  CG  TRP A   2       3.068   3.295  17.593  0.00  0.00    +0.000 A 
ATOM     17  CD1 TRP A   2       2.714   1.968  17.435  0.00  0.00    +0.000 A 
ATOM     18  NE1 TRP A   2       2.214   1.505  18.619  0.00  0.00    +0.000 N 
ATOM     19  CE2 TRP A   2       2.171   2.521  19.543  0.00  0.00    +0.000 A 
ATOM     20  CZ2 TRP A   2       1.736   2.508  20.873  0.00  0.00    +0.000 A 
ATOM     21  CH2 TRP A   2       1.784   3.711  21.581  0.00  0.00    +0.000 A 
ATOM     22  CZ3 TRP A   2       2.242   4.880  20.980  0.00  0.00    +0.000 A 
ATOM     23  CE3 TRP A   2       2.685   4.873  19.651  0.00  0.00    +0.000 A 
ATOM     24  CD2 TRP A   2       2.663   3.667  18.917  0.00  0.00    +0.000 A 
ATOM     25  HE1 TRP A   2       1.916   0.555  18.795  0.00  0.00    +0.000 HD
ENDBRANCH  15  16
ENDBRANCH   1  15
TORSDOF 7
ENDMDL
MODEL 3
REMARK VINA RESULT:      -7.6      0.942      1.027
REMARK  Name = 
REMARK  8 active torsions:
REMARK  status: ('A' for Active; 'I' for Inactive)
REMARK    1  A    between atoms: CB_1  and  CA_2
REMARK    2  A    between atoms: CA_2  and  N_3
REMARK    3  A    between atoms: CA_2  and  C_4
REMARK    4  A    between atoms: N_6  and  CA_7
REMARK    5  A    between atoms: CA_7  and  CB_8
REMARK    6  A    between atoms: CA_7  and  C_18
REMARK    7  A    between atoms: CB_8  and  CG_9
REMARK    8  A    between atoms: C_18  and  OXT_20
REMARK                            x       y       z     vdW  Elec       q    Type
REMARK                         _______ _______ _______ _____ _____    ______ ____
ROOT
ATOM      1  CA  TRP A   2       5.957   4.226  16.451  0.00  0.00    +0.000 C 
ENDROOT
BRANCH   1   4
ATOM      2  C   ALA A   1       6.608   4.964  18.753  0.00  0.00    +0.000 C 
ATOM      3  O   ALA A   1       5.958   4.074  19.296  0.00  0.00    +0.000 OA
ATOM      4  N   TRP A   2       6.730   5.076  17.383  0.00  0.00    +0.000 N 
ATOM      5  H   TRP A   2       7.138   5.925  17.002  0.00  0.00    +0.000 HD
BRANCH   2   7
ATOM      6  CB  ALA A   1       8.084   6.955  18.565  0.00  0.00    +0.000 C 
ATOM      7  CA  ALA A   1       7.449   5.980  19.549  0.00  0.00    +0.000 C 
BRANCH   7   8
ATOM      8  N   ALA A   1       8.489   5.278  20.317  0.00  0.00    +0.000 NA
ATOM      9  H1  ALA A   1       9.154   5.982  20.653  0.00  0.00    +0.000 HD
ATOM     10  H2  ALA A   1       9.037   4.706  19.675  0.00  0.00    +0.000 HD
ENDBRANCH   7   8
ENDBRANCH   2   7
ENDBRANCH   1   4
BRANCH   1  11
ATOM     11  C   TRP A   2       6.619   4.319  15.073  0.00  0.00    +0.000 C 
ATOM     12  O   TRP A   2       7.411   5.184  14.729  0.00  0.00    +0.000 OA
BRANCH  11  13
ATOM     13  OXT TRP A   2       6.169   3.370  14.207  0.00  0.00    +0.000 OA
ATOM     14  HXT TRP A   2       6.539   3.547  13.314  0.00  0.00    +0.000 HD
ENDBRANCH  11  13
ENDBRANCH   1  11
BRANCH   1  15
ATOM     15  CB  TRP A   2       4.474   4.618  16.363  0.00  0.00    +0.000 C 
BRANCH  15  16
ATOM     16  CG  TRP A   2       3.552   3.733  17.153  0.00  0.00    +0.000 A 
ATOM     17  CD1 TRP A   2       3.297   2.392  16.934  0.00  0.00    +0.000 A 
ATOM     18  NE1 TRP A   2       2.472   1.936  17.924  0.00  0.00    +0.000 N 
ATOM     19  CE2 TRP A   2       2.123   2.969  18.760  0.00  0.00    +0.000 A 
ATOM     20  CZ2 TRP A   2       1.304   2.968  19.895  0.00  0.00    +0.000 A 
ATOM     21  CH2 TRP A   2       1.103   4.187  20.548  0.00  0.00    +0.000 A 
ATOM     22  CZ3 TRP A   2       1.692   5.358  20.080  0.00  0.00    +0.000 A 
ATOM     23  CE3 TRP A   2       2.519   5.338  18.949  0.00  0.00    +0.000 A 
ATOM     24  CD2 TRP A   2       2.753   4.118  18.280  0.00  0.00    +0.000 A 
ATOM     25  HE1 TRP A   2       2.159   0.981  18.029  0.00  0.00    +0.000 HD
ENDBRANCH  15  16
ENDBRANCH   1  15
TORSDOF 7
ENDMDL
MODEL 4
REMARK VINA RESULT:      -7.4      1.213      2.014
REMARK  Name = 
REMARK  8 active torsions:
REMARK  status: ('A' for Active; 'I' for Inactive)
REMARK    1  A    between atoms: CB_1  and  CA_2
REMARK    2  A    between atoms: CA_2  and  N_3
REMARK    3  A    between atoms: CA_2  and  C_4
REMARK    4  A    between atoms: N_6  and  CA_7
REMARK    5  A    between atoms: CA_7  and  CB_8
REMARK    6  A    between atoms: CA_7  and  C_18
REMARK    7  A    between atoms: CB_8  and  CG_9
REMARK    8  A    between atoms: C_18  and  OXT_20
REMARK                            x       y       z     vdW  Elec       q    Type
REMARK                         _______ _______ _______ _____ _____    ______ ____
ROOT
ATOM      1  CA  TRP A   2       5.623   4.133  16.380  0.00  0.00    +0.000 C 
ENDROOT
BRANCH   1   4
ATOM      2  C   ALA A   1       7.328   4.930  18.031  0.00  0.00    +0.000 C 
ATOM      3  O   ALA A   1       8.182   4.141  17.634  0.00  0.00    +0.000 OA
ATOM      4  N   TRP A   2       6.087   5.053  17.441  0.00  0.00    +0.000 N 
ATOM      5  H   TRP A   2       5.377   5.600  17.920  0.00  0.00    +0.000 HD
BRANCH   2   7
ATOM      6  CB  ALA A   1       8.181   7.210  18.536  0.00  0.00    +0.000 C 
ATOM      7  CA  ALA A   1       7.598   5.946  19.157  0.00  0.00    +0.000 C 
BRANCH   7   8
ATOM      8  N   ALA A   1       8.539   5.374  20.133  0.00  0.00    +0.000 NA
ATOM      9  H1  ALA A   1       9.471   5.380  19.705  0.00  0.00    +0.000 HD
ATOM     10  H2  ALA A   1       8.326   4.384  20.249  0.00  0.00    +0.000 HD
ENDBRANCH   7   8
ENDBRANCH   2   7
ENDBRANCH   1   4
BRANCH   1  11
ATOM     11  C   TRP A   2       5.703   4.878  15.045  0.00  0.00    +0.000 C 
ATOM     12  O   TRP A   2       5.803   4.349  13.948  0.00  0.00    +0.000 OA
BRANCH  11  13
ATOM     13  OXT TRP A   2       5.738   6.231  15.197  0.00  0.00    +0.000 OA
ATOM     14  HXT TRP A   2       6.372   6.459  15.912  0.00  0.00    +0.000 HD
ENDBRANCH  11  13
ENDBRANCH   1  11
BRANCH   1  15
ATOM     15  CB  TRP A   2       4.199   3.606  16.617  0.00  0.00    +0.000 C 
BRANCH  15  16
ATOM     16  CG  TRP A   2       3.428   4.358  17.666  0.00  0.00    +0.000 A 
ATOM     17  CD1 TRP A   2       3.217   5.722  17.724  0.00  0.00    +0.000 A 
ATOM     18  NE1 TRP A   2       2.392   5.992  18.780  0.00  0.00    +0.000 N 
ATOM     19  CE2 TRP A   2       2.104   4.835  19.462  0.00  0.00    +0.000 A 
ATOM     20  CZ2 TRP A   2       1.310   4.635  20.597  0.00  0.00    +0.000 A 
ATOM     21  CH2 TRP A   2       1.212   3.335  21.097  0.00  0.00    +0.000 A 
ATOM     22  CZ3 TRP A   2       1.887   2.280  20.490  0.00  0.00    +0.000 A 
ATOM     23  CE3 TRP A   2       2.669   2.495  19.347  0.00  0.00    +0.000 A 
ATOM     24  CD2 TRP A   2       2.772   3.796  18.811  0.00  0.00    +0.000 A 
ATOM     25  HE1 TRP A   2       2.044   6.908  19.029  0.00  0.00    +0.000 HD
ENDBRANCH  15  16
ENDBRANCH   1  15
TORSDOF 7
ENDMDL
MODEL 5
REMARK VINA RESULT:      -7.3      1.417      2.201
REMARK  Name = 
REMARK  8 active torsions:
REMARK  status: ('A' for Active; 'I' for Inactive)
REMARK    1  A    between atoms: CB_1  and  CA_2
REMARK    2  A    between atoms: CA_2  and  N_3
REMARK    3  A    between atoms: CA_2  and  C_4
REMARK    4  A    between atoms: N_6  and  CA_7
REMARK    5  A    between atoms: CA_7  and  CB_8
REMARK    6  A    between atoms: CA_7  and  C_18
REMARK    7  A    between atoms: CB_8  and  CG_9
REMARK    8  A    between atoms: C_18  and  OXT_20
REMARK                            x       y       z     vdW  Elec       q    Type
REMARK                         _______ _______ _______ _____ _____    ______ ____
ROOT
ATOM      1  CA  TRP A   2       5.657   4.357  16.543  0.00  0.00    +0.000 C 
ENDROOT
BRANCH   1   4
ATOM      2  C   ALA A   1       6.504   4.965  18.819  0.00  0.00    +0.000 C 
ATOM      3  O   ALA A   1       5.969   3.995  19.352  0.00  0.00    +0.000 OA
ATOM      4  N   TRP A   2       6.473   5.186  17.457  0.00  0.00    +0.000 N 
ATOM      5  H   TRP A   2       6.787   6.086  17.107  0.00  0.00    +0.000 HD
BRANCH   2   7
ATOM      6  CB  ALA A   1       8.107   6.852  18.606  0.00  0.00    +0.000 C 
ATOM      7  CA  ALA A   1       7.364   5.973  19.604  0.00  0.00    +0.000 C 
BRANCH   7   8
ATOM      8  N   ALA A   1       8.317   5.256  20.465  0.00  0.00    +0.000 NA
ATOM      9  H1  ALA A   1       7.889   4.360  20.723  0.00  0.00    +0.000 HD
ATOM     10  H2  ALA A   1       8.395   5.757  21.350  0.00  0.00    +0.000 HD
ENDBRANCH   7   8
ENDBRANCH   2   7
ENDBRANCH   1   4
BRANCH   1  11
ATOM     11  C   TRP A   2       6.422   4.222  15.223  0.00  0.00    +0.000 C 
ATOM     12  O   TRP A   2       6.019   3.632  14.233  0.00  0.00    +0.000 OA
BRANCH  11  13
ATOM     13  OXT TRP A   2       7.669   4.767  15.279  0.00  0.00    +0.000 OA
ATOM     14  HXT TRP A   2       8.196   4.445  14.515  0.00  0.00    +0.000 HD
ENDBRANCH  11  13
ENDBRANCH   1  11
BRANCH   1  15
ATOM     15  CB  TRP A   2       4.254   4.933  16.294  0.00  0.00    +0.000 C 
BRANCH  15  16
ATOM     16  CG  TRP A   2       3.452   5.169  17.543  0.00  0.00    +0.000 A 
ATOM     17  CD1 TRP A   2       3.320   6.359  18.234  0.00  0.00    +0.000 A 
ATOM     18  NE1 TRP A   2       2.436   6.174  19.259  0.00  0.00    +0.000 N 
ATOM     19  CE2 TRP A   2       2.027   4.863  19.299  0.00  0.00    +0.000 A 
ATOM     20  CZ2 TRP A   2       1.138   4.225  20.171  0.00  0.00    +0.000 A 
ATOM     21  CH2 TRP A   2       0.923   2.857  19.990  0.00  0.00    +0.000 A 
ATOM     22  CZ3 TRP A   2       1.577   2.155  18.981  0.00  0.00    +0.000 A 
ATOM     23  CE3 TRP A   2       2.455   2.812  18.109  0.00  0.00    +0.000 A 
ATOM     24  CD2 TRP A   2       2.678   4.197  18.259  0.00  0.00    +0.000 A 
ATOM     25  HE1 TRP A   2       2.126   6.892  19.899  0.00  0.00    +0.000 HD
ENDBRANCH  15  16
ENDBRANCH   1  15
TORSDOF 7
ENDMDL
MODEL 6
REMARK VINA RESULT:      -7.3      0.856      1.218
REMARK  Name = 
REMARK  8 active torsions:
REMARK  status: ('A' for Active; 'I' for Inactive)
REMARK    1  A    between atoms: CB_1  and  CA_2
REMARK    2  A    between atoms: CA_2  and  N_3
REMARK    3  A    between atoms: CA_2  and  C_4
REMARK    4  A    between atoms: N_6  and  CA_7
REMARK    5  A    between atoms: CA_7  and  CB_8
REMARK    6  A    between atoms: CA_7  and  C_18
REMARK    7  A    between atoms: CB_8  and  CG_9
REMARK    8  A    between atoms: C_18  and  OXT_20
REMARK                            x       y       z     vdW  Elec       q    Type
REMARK                         _______ _______ _______ _____ _____    ______ ____
ROOT
ATOM      1  CA  TRP A   2       5.494   4.013  16.482  0.00  0.00    +0.000 C 
ENDROOT
BRANCH   1   4
ATOM      2  C   ALA A   1       7.281   4.899  17.995  0.00  0.00    +0.000 C 
ATOM      3  O   ALA A   1       8.157   4.212  17.476  0.00  0.00    +0.000 OA
ATOM      4  N   TRP A   2       5.979   4.928  17.538  0.00  0.00    +0.000 N 
ATOM      5  H   TRP A   2       5.276   5.383  18.112  0.00  0.00    +0.000 HD
BRANCH   2   7
ATOM      6  CB  ALA A   1       8.159   7.159  18.540  0.00  0.00    +0.000 C 
ATOM      7  CA  ALA A   1       7.572   5.887  19.140  0.00  0.00    +0.000 C 
BRANCH   7   8
ATOM      8  N   ALA A   1       8.518   5.287  20.093  0.00  0.00    +0.000 NA
ATOM      9  H1  ALA A   1       9.327   5.913  20.162  0.00  0.00    +0.000 HD
ATOM     10  H2  ALA A   1       8.899   4.435  19.679  0.00  0.00    +0.000 HD
ENDBRANCH   7   8
ENDBRANCH   2   7
ENDBRANCH   1   4
BRANCH   1  11
ATOM     11  C   TRP A   2       5.949   4.571  15.131  0.00  0.00    +0.000 C 
ATOM     12  O   TRP A   2       6.537   3.937  14.268  0.00  0.00    +0.000 OA
BRANCH  11  13
ATOM     13  OXT TRP A   2       5.708   5.906  15.004  0.00  0.00    +0.000 OA
ATOM     14  HXT TRP A   2       5.820   6.338  15.879  0.00  0.00    +0.000 HD
ENDBRANCH  11  13
ENDBRANCH   1  11
BRANCH   1  15
ATOM     15  CB  TRP A   2       3.968   3.825  16.499  0.00  0.00    +0.000 C 
BRANCH  15  16
ATOM     16  CG  TRP A   2       3.336   4.019  17.849  0.00  0.00    +0.000 A 
ATOM     17  CD1 TRP A   2       3.066   3.043  18.789  0.00  0.00    +0.000 A 
ATOM     18  NE1 TRP A   2       2.573   3.644  19.913  0.00  0.00    +0.000 N 
ATOM     19  CE2 TRP A   2       2.452   4.997  19.711  0.00  0.00    +0.000 A 
ATOM     20  CZ2 TRP A   2       1.994   5.997  20.577  0.00  0.00    +0.000 A 
ATOM     21  CH2 TRP A   2       1.957   7.306  20.091  0.00  0.00    +0.000 A 
ATOM     22  CZ3 TRP A   2       2.354   7.600  18.789  0.00  0.00    +0.000 A 
ATOM     23  CE3 TRP A   2       2.821   6.588  17.940  0.00  0.00    +0.000 A 
ATOM     24  CD2 TRP A   2       2.885   5.260  18.411  0.00  0.00    +0.000 A 
ATOM     25  HE1 TRP A   2       2.329   3.166  20.770  0.00  0.00    +0.000 HD
ENDBRANCH  15  16
ENDBRANCH   1  15
TORSDOF 7
ENDMDL
MODEL 7
REMARK VINA RESULT:      -7.2      2.019      3.504
REMARK  Name = 
REMARK  8 active torsions:
REMARK  status: ('A' for Active; 'I' for Inactive)
REMARK    1  A    between atoms: CB_1  and  CA_2
REMARK    2  A    between atoms: CA_2  and  N_3
REMARK    3  A    between atoms: CA_2  and  C_4
REMARK    4  A    between atoms: N_6  and  CA_7
REMARK    5  A    between atoms: CA_7  and  CB_8
REMARK    6  A    between atoms: CA_7  and  C_18
REMARK    7  A    between atoms: CB_8  and  CG_9
REMARK    8  A    between atoms: C_18  and  OXT_20
REMARK                            x       y       z     vdW  Elec       q    Type
REMARK                         _______ _______ _______ _____ _____    ______ ____
ROOT
ATOM      1  CA  TRP A   2       5.425   5.706  17.613  0.00  0.00    +0.000 C 
ENDROOT
BRANCH   1   4
ATOM      2  C   ALA A   1       6.753   5.226  15.546  0.00  0.00    +0.000 C 
ATOM      3  O   ALA A   1       7.622   6.046  15.831  0.00  0.00    +0.000 OA
ATOM      4  N   TRP A   2       5.691   4.937  16.377  0.00  0.00    +0.000 N 
ATOM      5  H   TRP A   2       4.927   4.379  16.008  0.00  0.00    +0.000 HD
BRANCH   2   7
ATOM      6  CB  ALA A   1       7.585   5.119  13.206  0.00  0.00    +0.000 C 
ATOM      7  CA  ALA A   1       6.823   4.352  14.280  0.00  0.00    +0.000 C 
BRANCH   7   8
ATOM      8  N   ALA A   1       5.464   4.033  13.815  0.00  0.00    +0.000 NA
ATOM      9  H1  ALA A   1       5.129   3.234  14.362  0.00  0.00    +0.000 HD
ATOM     10  H2  ALA A   1       5.523   3.673  12.862  0.00  0.00    +0.000 HD
ENDBRANCH   7   8
ENDBRANCH   2   7
ENDBRANCH   1   4
BRANCH   1  11
ATOM     11  C   TRP A   2       6.035   4.935  18.786  0.00  0.00    +0.000 C 
ATOM     12  O   TRP A   2       6.558   5.443  19.767  0.00  0.00    +0.000 OA
BRANCH  11  13
ATOM     13  OXT TRP A   2       6.017   3.587  18.598  0.00  0.00    +0.000 OA
ATOM     14  HXT TRP A   2       5.197   3.339  18.118  0.00  0.00    +0.000 HD
ENDBRANCH  11  13
ENDBRANCH   1  11
BRANCH   1  15
ATOM     15  CB  TRP A   2       3.929   5.960  17.855  0.00  0.00    +0.000 C 
BRANCH  15  16
ATOM     16  CG  TRP A   2       3.113   4.713  18.053  0.00  0.00    +0.000 A 
ATOM     17  CD1 TRP A   2       2.695   3.829  17.076  0.00  0.00    +0.000 A 
ATOM     18  NE1 TRP A   2       2.057   2.782  17.678  0.00  0.00    +0.000 N 
ATOM     19  CE2 TRP A   2       1.987   2.988  19.035  0.00  0.00    +0.000 A 
ATOM     20  CZ2 TRP A   2       1.426   2.189  20.037  0.00  0.00    +0.000 A 
ATOM     21  CH2 TRP A   2       1.480   2.665  21.350  0.00  0.00    +0.000 A 
ATOM     22  CZ3 TRP A   2       2.064   3.894  21.644  0.00  0.00    +0.000 A 
ATOM     23  CE3 TRP A   2       2.631   4.676  20.630  0.00  0.00    +0.000 A 
ATOM     24  CD2 TRP A   2       2.606   4.211  19.298  0.00  0.00    +0.000 A 
ATOM     25  HE1 TRP A   2       1.685   1.973  17.200  0.00  0.00    +0.000 HD
ENDBRANCH  15  16
ENDBRANCH   1  15
TORSDOF 7
ENDMDL
MODEL 8
REMARK VINA RESULT:      -7.2      1.828      3.617
REMARK  Name = 
REMARK  8 active torsions:
REMARK  status: ('A' for Active; 'I' for Inactive)
REMARK    1  A    between atoms: CB_1  and  CA_2
REMARK    2  A    between atoms: CA_2  and  N_3
REMARK    3  A    between atoms: CA_2  and  C_4
REMARK    4  A    between atoms: N_6  and  CA_7
REMARK    5  A    between atoms: CA_7  and  CB_8
REMARK    6  A    between atoms: CA_7  and  C_18
REMARK    7  A    between atoms: CB_8  and  CG_9
REMARK    8  A    between atoms: C_18  and  OXT_20
REMARK                            x       y       z     vdW  Elec       q    Type
REMARK                         _______ _______ _______ _____ _____    ______ ____
ROOT
ATOM      1  CA  TRP A   2       6.102   5.449  16.719  0.00  0.00    +0.000 C 
ENDROOT
BRANCH   1   4
ATOM      2  C   ALA A   1       6.767   4.709  14.422  0.00  0.00    +0.000 C 
ATOM      3  O   ALA A   1       7.739   5.460  14.387  0.00  0.00    +0.000 OA
ATOM      4  N   TRP A   2       5.959   4.578  15.532  0.00  0.00    +0.000 N 
ATOM      5  H   TRP A   2       5.084   4.071  15.435  0.00  0.00    +0.000 HD
BRANCH   2   7
ATOM      6  CB  ALA A   1       7.186   4.192  12.027  0.00  0.00    +0.000 C 
ATOM      7  CA  ALA A   1       6.420   3.750  13.268  0.00  0.00    +0.000 C 
BRANCH   7   8
ATOM      8  N   ALA A   1       4.971   3.776  13.012  0.00  0.00    +0.000 NA
ATOM      9  H1  ALA A   1       4.586   4.593  13.498  0.00  0.00    +0.000 HD
ATOM     10  H2  ALA A   1       4.543   2.981  13.487  0.00  0.00    +0.000 HD
ENDBRANCH   7   8
ENDBRANCH   2   7
ENDBRANCH   1   4
BRANCH   1  11
ATOM     11  C   TRP A   2       6.883   4.671  17.781  0.00  0.00    +0.000 C 
ATOM     12  O   TRP A   2       6.567   4.573  18.958  0.00  0.00    +0.000 OA
BRANCH  11  13
ATOM     13  OXT TRP A   2       8.045   4.147  17.303  0.00  0.00    +0.000 OA
ATOM     14  HXT TRP A   2       8.785   4.758  17.513  0.00  0.00    +0.000 HD
ENDBRANCH  11  13
ENDBRANCH   1  11
BRANCH   1  15
ATOM     15  CB  TRP A   2       4.754   5.926  17.284  0.00  0.00    +0.000 C 
BRANCH  15  16
ATOM     16  CG  TRP A   2       3.766   4.823  17.541  0.00  0.00    +0.000 A 
ATOM     17  CD1 TRP A   2       3.536   3.712  16.751  0.00  0.00    +0.000 A 
ATOM     18  NE1 TRP A   2       2.625   2.910  17.380  0.00  0.00    +0.000 N 
ATOM     19  CE2 TRP A   2       2.197   3.503  18.543  0.00  0.00    +0.000 A 
ATOM     20  CZ2 TRP A   2       1.277   3.051  19.495  0.00  0.00    +0.000 A 
ATOM     21  CH2 TRP A   2       1.013   3.884  20.586  0.00  0.00    +0.000 A 
ATOM     22  CZ3 TRP A   2       1.639   5.121  20.712  0.00  0.00    +0.000 A 
ATOM     23  CE3 TRP A   2       2.567   5.552  19.755  0.00  0.00    +0.000 A 
ATOM     24  CD2 TRP A   2       2.865   4.724  18.653  0.00  0.00    +0.000 A 
ATOM     25  HE1 TRP A   2       2.306   2.013  17.041  0.00  0.00    +0.000 HD
ENDBRANCH  15  16
ENDBRANCH   1  15
TORSDOF 7
ENDMDL
MODEL 9
REMARK VINA RESULT:      -7.1      2.144      4.068
REMARK  Name = 
REMARK  8 active torsions:
REMARK  status: ('A' for Active; 'I' for Inactive)
REMARK    1  A    between atoms: CB_1  and  CA_2
REMARK    2  A    between atoms: CA_2  and  N_3
REMARK    3  A    between atoms: CA_2  and  C_4
REMARK    4  A    between atoms: N_6  and  CA_7
REMARK    5  A    between atoms: CA_7  and  CB_8
REMARK    6  A    between atoms: CA_7  and  C_18
REMARK    7  A    between atoms: CB_8  and  CG_9
REMARK    8  A    between atoms: C_18  and  OXT_20
REMARK                            x       y       z     vdW  Elec       q    Type
REMARK                         _______ _______ _______ _____ _____    ______ ____
ROOT
ATOM      1  CA  TRP A   2       5.921   4.398  16.543  0.00  0.00    +0.000 C 
ENDROOT
BRANCH   1   4
ATOM      2  C   ALA A   1       6.233   4.365  14.059  0.00  0.00    +0.000 C 
ATOM      3  O   ALA A   1       6.547   5.552  14.014  0.00  0.00    +0.000 OA
ATOM      4  N   TRP A   2       5.984   3.699  15.241  0.00  0.00    +0.000 N 
ATOM      5  H   TRP A   2       5.569   2.772  15.195  0.00  0.00    +0.000 HD
BRANCH   2   7
ATOM      6  CB  ALA A   1       7.219   3.997  11.808  0.00  0.00    +0.000 C 
ATOM      7  CA  ALA A   1       6.197   3.469  12.807  0.00  0.00    +0.000 C 
BRANCH   7   8
ATOM      8  N   ALA A   1       4.849   3.485  12.217  0.00  0.00    +0.000 NA
ATOM      9  H1  ALA A   1       4.270   2.830  12.753  0.00  0.00    +0.000 HD
ATOM     10  H2  ALA A   1       4.897   3.069  11.287  0.00  0.00    +0.000 HD
ENDBRANCH   7   8
ENDBRANCH   2   7
ENDBRANCH   1   4
BRANCH   1  11
ATOM     11  C   TRP A   2       7.333   4.877  16.888  0.00  0.00    +0.000 C 
ATOM     12  O   TRP A   2       8.201   4.194  17.409  0.00  0.00    +0.000 OA
BRANCH  11  13
ATOM     13  OXT TRP A   2       7.519   6.201  16.629  0.00  0.00    +0.000 OA
ATOM     14  HXT TRP A   2       6.675   6.681  16.781  0.00  0.00    +0.000 HD
ENDBRANCH  11  13
ENDBRANCH   1  11
BRANCH   1  15
ATOM     15  CB  TRP A   2       5.359   3.521  17.674  0.00  0.00    +0.000 C 
BRANCH  15  16
ATOM     16  CG  TRP A   2       4.452   4.246  18.628  0.00  0.00    +0.000 A 
ATOM     17  CD1 TRP A   2       4.662   5.491  19.190  0.00  0.00    +0.000 A 
ATOM     18  NE1 TRP A   2       3.562   5.828  19.928  0.00  0.00    +0.000 N 
ATOM     19  CE2 TRP A   2       2.652   4.798  19.916  0.00  0.00    +0.000 A 
ATOM     20  CZ2 TRP A   2       1.399   4.701  20.530  0.00  0.00    +0.000 A 
ATOM     21  CH2 TRP A   2       0.688   3.509  20.366  0.00  0.00    +0.000 A 
ATOM     22  CZ3 TRP A   2       1.216   2.456  19.623  0.00  0.00    +0.000 A 
ATOM     23  CE3 TRP A   2       2.468   2.575  19.006  0.00  0.00    +0.000 A 
ATOM     24  CD2 TRP A   2       3.199   3.775  19.141  0.00  0.00    +0.000 A 
ATOM     25  HE1 TRP A   2       3.432   6.704  20.415  0.00  0.00    +0.000 HD
ENDBRANCH  15  16
ENDBRANCH   1  15
TORSDOF 7
ENDMDL
