MODEL 1
REMARK VINA RESULT:      -5.1      0.000      0.000
REMARK  Name = 
REMARK  5 active torsions:
REMARK  status: ('A' for Active; 'I' for Inactive)
REMARK    1  A    between atoms: C_1  and  C_2
REMARK    2  A    between atoms: C_2  and  C_3
REMARK    3  A    between atoms: C_3  and  C_4
REMARK    4  A    between atoms: C_4  and  C_5
REMARK    5  A    between atoms: C_5  and  C_6
REMARK                            x       y       z     vdW  Elec       q    Type
REMARK                         _______ _______ _______ _____ _____    ______ ____
ROOT
ATOM      1  C   UNL     1       3.882   3.114  17.876  0.00  0.00    +0.000 A 
ATOM      2  C   UNL     1       4.544   3.262  19.092  0.00  0.00    +0.000 A 
ATOM      3  N   UNL     1       5.634   4.050  19.246  0.00  0.00    +0.000 NA
ATOM      4  C   UNL     1       6.044   4.685  18.126  0.00  0.00    +0.000 A 
ATOM      5  C   UNL     1       5.396   4.542  16.911  0.00  0.00    +0.000 A 
ATOM      6  N   UNL     1       4.307   3.756  16.759  0.00  0.00    +0.000 NA
ENDROOT
BRANCH   1   7
ATOM      7  C   UNL     1       2.701   2.194  17.744  0.00  0.00    +0.000 C 
BRANCH   7   8
ATOM      8  C   UNL     1       2.012   1.989  19.094  0.00  0.00    +0.000 C 
BRANCH   8   9
ATOM      9  C   UNL     1       0.882   2.997  19.296  0.00  0.00    +0.000 C 
BRANCH   9  11
ATOM     10  C   UNL     1       1.837   2.987  21.623  0.00  0.00    +0.000 C 
ATOM     11  C   UNL     1       1.069   3.791  20.587  0.00  0.00    +0.000 C 
ENDBRANCH   9  11
ENDBRANCH   8   9
ENDBRANCH   7   8
ENDBRANCH   1   7
TORSDOF 4
ENDMDL
MODEL 2
REMARK VINA RESULT:      -5.0      0.952      1.058
REMARK  Name = 
REMARK  5 active torsions:
REMARK  status: ('A' for Active; 'I' for Inactive)
REMARK    1  A    between atoms: C_1  and  C_2
REMARK    2  A    between atoms: C_2  and  C_3
REMARK    3  A    between atoms: C_3  and  C_4
REMARK    4  A    between atoms: C_4  and  C_5
REMARK    5  A    between atoms: C_5  and  C_6
REMARK                            x       y       z     vdW  Elec       q    Type
REMARK                         _______ _______ _______ _____ _____    ______ ____
ROOT
ATOM      1  C   UNL     1       3.893   4.057  17.794  0.00  0.00    +0.000 A 
ATOM      2  C   UNL     1       4.653   3.590  18.864  0.00  0.00    +0.000 A 
ATOM      3  N   UNL     1       5.783   4.204  19.287  0.00  0.00    +0.000 NA
ATOM      4  C   UNL     1       6.131   5.308  18.591  0.00  0.00    +0.000 A 
ATOM      5  C   UNL     1       5.385   5.779  17.524  0.00  0.00    +0.000 A 
ATOM      6  N   UNL     1       4.256   5.166  17.102  0.00  0.00    +0.000 NA
ENDROOT
BRANCH   1   7
ATOM      7  C   UNL     1       2.669   3.317  17.332  0.00  0.00    +0.000 C 
BRANCH   7   8
ATOM      8  C   UNL     1       1.411   3.862  18.009  0.00  0.00    +0.000 C 
BRANCH   8   9
ATOM      9  C   UNL     1       0.959   2.952  19.150  0.00  0.00    +0.000 C 
BRANCH   9  11
ATOM     10  C   UNL     1       1.771   2.816  21.527  0.00  0.00    +0.000 C 
ATOM     11  C   UNL     1       1.043   3.666  20.498  0.00  0.00    +0.000 C 
ENDBRANCH   9  11
ENDBRANCH   8   9
ENDBRANCH   7   8
ENDBRANCH   1   7
TORSDOF 4
ENDMDL
MODEL 3
REMARK VINA RESULT:      -5.0      4.761      6.116
REMARK  Name = 
REMARK  5 active torsions:
REMARK  status: ('A' for Active; 'I' for Inactive)
REMARK    1  A    between atoms: C_1  and  C_2
REMARK    2  A    between atoms: C_2  and  C_3
REMARK    3  A    between atoms: C_3  and  C_4
REMARK    4  A    between atoms: C_4  and  C_5
REMARK    5  A    between atoms: C_5  and  C_6
REMARK                            x       y       z     vdW  Elec       q    Type
REMARK                         _______ _______ _______ _____ _____    ______ ____
ROOT
ATOM      1  C   UNL     1       6.585   5.754  16.388  0.00  0.00    +0.000 A 
ATOM      2  C   UNL     1       6.968   4.664  17.166  0.00  0.00    +0.000 A 
ATOM      3  N   UNL     1       7.656   4.794  18.325  0.00  0.00    +0.000 NA
ATOM      4  C   UNL     1       7.953   6.064  18.676  0.00  0.00    +0.000 A 
ATOM      5  C   UNL     1       7.580   7.153  17.909  0.00  0.00    +0.000 A 
ATOM      6  N   UNL     1       6.893   7.024  16.752  0.00  0.00    +0.000 NA
ENDROOT
BRANCH   1   7
ATOM      7  C   UNL     1       5.860   5.559  15.085  0.00  0.00    +0.000 C 
BRANCH   7   8
ATOM      8  C   UNL     1       6.677   4.691  14.128  0.00  0.00    +0.000 C 
BRANCH   8   9
ATOM      9  C   UNL     1       5.866   3.489  13.643  0.00  0.00    +0.000 C 
BRANCH   9  11
ATOM     10  C   UNL     1       4.462   3.266  11.568  0.00  0.00    +0.000 C 
ATOM     11  C   UNL     1       5.873   3.392  12.119  0.00  0.00    +0.000 C 
ENDBRANCH   9  11
ENDBRANCH   8   9
ENDBRANCH   7   8
ENDBRANCH   1   7
TORSDOF 4
ENDMDL
MODEL 4
REMARK VINA RESULT:      -5.0      1.436      1.612
REMARK  Name = 
REMARK  5 active torsions:
REMARK  status: ('A' for Active; 'I' for Inactive)
REMARK    1  A    between atoms: C_1  and  C_2
REMARK    2  A    between atoms: C_2  and  C_3
REMARK    3  A    between atoms: C_3  and  C_4
REMARK    4  A    between atoms: C_4  and  C_5
REMARK    5  A    between atoms: C_5  and  C_6
REMARK                            x       y       z     vdW  Elec       q    Type
REMARK                         _______ _______ _______ _____ _____    ______ ____
ROOT
ATOM      1  C   UNL     1       3.885   5.117  18.231  0.00  0.00    +0.000 A 
ATOM      2  C   UNL     1       4.739   5.143  19.332  0.00  0.00    +0.000 A 
ATOM      3  N   UNL     1       6.066   4.893  19.239  0.00  0.00    +0.000 NA
ATOM      4  C   UNL     1       6.510   4.608  17.995  0.00  0.00    +0.000 A 
ATOM      5  C   UNL     1       5.670   4.575  16.896  0.00  0.00    +0.000 A 
ATOM      6  N   UNL     1       4.345   4.826  16.989  0.00  0.00    +0.000 NA
ENDROOT
BRANCH   1   7
ATOM      7  C   UNL     1       2.410   5.359  18.390  0.00  0.00    +0.000 C 
BRANCH   7   8
ATOM      8  C   UNL     1       1.598   4.233  17.750  0.00  0.00    +0.000 C 
BRANCH   8   9
ATOM      9  C   UNL     1       1.183   3.191  18.789  0.00  0.00    +0.000 C 
BRANCH   9  11
ATOM     10  C   UNL     1       1.431   2.927  21.278  0.00  0.00    +0.000 C 
ATOM     11  C   UNL     1       0.949   3.832  20.156  0.00  0.00    +0.000 C 
ENDBRANCH   9  11
ENDBRANCH   8   9
ENDBRANCH   7   8
ENDBRANCH   1   7
TORSDOF 4
ENDMDL
MODEL 5
REMARK VINA RESULT:      -4.9      1.124      1.323
REMARK  Name = 
REMARK  5 active torsions:
REMARK  status: ('A' for Active; 'I' for Inactive)
REMARK    1  A    between atoms: C_1  and  C_2
REMARK    2  A    between atoms: C_2  and  C_3
REMARK    3  A    between atoms: C_3  and  C_4
REMARK    4  A    between atoms: C_4  and  C_5
REMARK    5  A    between atoms: C_5  and  C_6
REMARK                            x       y       z     vdW  Elec       q    Type
REMARK                         _______ _______ _______ _____ _____    ______ ____
ROOT
ATOM      1  C   UNL     1       4.437   3.867  17.360  0.00  0.00    +0.000 A 
ATOM      2  C   UNL     1       4.946   4.038  18.645  0.00  0.00    +0.000 A 
ATOM      3  N   UNL     1       6.217   4.438  18.886  0.00  0.00    +0.000 NA
ATOM      4  C   UNL     1       6.968   4.655  17.785  0.00  0.00    +0.000 A 
ATOM      5  C   UNL     1       6.473   4.485  16.503  0.00  0.00    +0.000 A 
ATOM      6  N   UNL     1       5.204   4.087  16.263  0.00  0.00    +0.000 NA
ENDROOT
BRANCH   1   7
ATOM      7  C   UNL     1       3.032   3.380  17.143  0.00  0.00    +0.000 C 
BRANCH   7   8
ATOM      8  C   UNL     1       2.041   4.158  18.009  0.00  0.00    +0.000 C 
BRANCH   8   9
ATOM      9  C   UNL     1       1.081   3.215  18.733  0.00  0.00    +0.000 C 
BRANCH   9  11
ATOM     10  C   UNL     1       1.567   4.856  20.576  0.00  0.00    +0.000 C 
ATOM     11  C   UNL     1       1.106   3.447  20.243  0.00  0.00    +0.000 C 
ENDBRANCH   9  11
ENDBRANCH   8   9
ENDBRANCH   7   8
ENDBRANCH   1   7
TORSDOF 4
ENDMDL
MODEL 6
REMARK VINA RESULT:      -4.9      1.493      1.850
REMARK  Name = 
REMARK  5 active torsions:
REMARK  status: ('A' for Active; 'I' for Inactive)
REMARK    1  A    between atoms: C_1  and  C_2
REMARK    2  A    between atoms: C_2  and  C_3
REMARK    3  A    between atoms: C_3  and  C_4
REMARK    4  A    between atoms: C_4  and  C_5
REMARK    5  A    between atoms: C_5  and  C_6
REMARK                            x       y       z     vdW  Elec       q    Type
REMARK                         _______ _______ _______ _____ _____    ______ ____
ROOT
ATOM      1  C   UNL     1       5.083   4.638  17.885  0.00  0.00    +0.000 A 
ATOM      2  C   UNL     1       5.385   5.090  19.168  0.00  0.00    +0.000 A 
ATOM      3  N   UNL     1       6.646   5.370  19.571  0.00  0.00    +0.000 NA
ATOM      4  C   UNL     1       7.604   5.174  18.639  0.00  0.00    +0.000 A 
ATOM      5  C   UNL     1       7.316   4.721  17.363  0.00  0.00    +0.000 A 
ATOM      6  N   UNL     1       6.056   4.443  16.959  0.00  0.00    +0.000 NA
ENDROOT
BRANCH   1   7
ATOM      7  C   UNL     1       3.672   4.298  17.496  0.00  0.00    +0.000 C 
BRANCH   7   8
ATOM      8  C   UNL     1       2.673   4.864  18.506  0.00  0.00    +0.000 C 
BRANCH   8   9
ATOM      9  C   UNL     1       1.607   3.830  18.866  0.00  0.00    +0.000 C 
BRANCH   9  11
ATOM     10  C   UNL     1       1.318   2.876  21.177  0.00  0.00    +0.000 C 
ATOM     11  C   UNL     1       1.054   4.068  20.270  0.00  0.00    +0.000 C 
ENDBRANCH   9  11
ENDBRANCH   8   9
ENDBRANCH   7   8
ENDBRANCH   1   7
TORSDOF 4
ENDMDL
MODEL 7
REMARK VINA RESULT:      -4.8      1.669      2.094
REMARK  Name = 
REMARK  5 active torsions:
REMARK  status: ('A' for Active; 'I' for Inactive)
REMARK    1  A    between atoms: C_1  and  C_2
REMARK    2  A    between atoms: C_2  and  C_3
REMARK    3  A    between atoms: C_3  and  C_4
REMARK    4  A    between atoms: C_4  and  C_5
REMARK    5  A    between atoms: C_5  and  C_6
REMARK                            x       y       z     vdW  Elec       q    Type
REMARK                         _______ _______ _______ _____ _____    ______ ____
ROOT
ATOM      1  C   UNL     1       3.421   5.103  17.647  0.00  0.00    +0.000 A 
ATOM      2  C   UNL     1       4.069   4.071  16.972  0.00  0.00    +0.000 A 
ATOM      3  N   UNL     1       5.149   4.274  16.182  0.00  0.00    +0.000 NA
ATOM      4  C   UNL     1       5.558   5.558  16.087  0.00  0.00    +0.000 A 
ATOM      5  C   UNL     1       4.920   6.591  16.751  0.00  0.00    +0.000 A 
ATOM      6  N   UNL     1       3.841   6.389  17.541  0.00  0.00    +0.000 NA
ENDROOT
BRANCH   1   7
ATOM      7  C   UNL     1       2.198   4.836  18.479  0.00  0.00    +0.000 C 
BRANCH   7   8
ATOM      8  C   UNL     1       1.526   3.527  18.061  0.00  0.00    +0.000 C 
BRANCH   8   9
ATOM      9  C   UNL     1       0.830   2.861  19.247  0.00  0.00    +0.000 C 
BRANCH   9  11
ATOM     10  C   UNL     1       1.637   2.710  21.626  0.00  0.00    +0.000 C 
ATOM     11  C   UNL     1       1.087   3.626  20.545  0.00  0.00    +0.000 C 
ENDBRANCH   9  11
ENDBRANCH   8   9
ENDBRANCH   7   8
ENDBRANCH   1   7
TORSDOF 4
ENDMDL
MODEL 8
REMARK VINA RESULT:      -4.8      1.976      2.683
REMARK  Name = 
REMARK  5 active torsions:
REMARK  status: ('A' for Active; 'I' for Inactive)
REMARK    1  A    between atoms: C_1  and  C_2
REMARK    2  A    between atoms: C_2  and  C_3
REMARK    3  A    between atoms: C_3  and  C_4
REMARK    4  A    between atoms: C_4  and  C_5
REMARK    5  A    between atoms: C_5  and  C_6
REMARK                            x       y       z     vdW  Elec       q    Type
REMARK                         _______ _______ _______ _____ _____    ______ ____
ROOT
ATOM      1  C   UNL     1       5.411   5.527  17.837  0.00  0.00    +0.000 A 
ATOM      2  C   UNL     1       5.730   5.049  19.106  0.00  0.00    +0.000 A 
ATOM      3  N   UNL     1       6.906   5.321  19.720  0.00  0.00    +0.000 NA
ATOM      4  C   UNL     1       7.760   6.090  19.010  0.00  0.00    +0.000 A 
ATOM      5  C   UNL     1       7.454   6.567  17.747  0.00  0.00    +0.000 A 
ATOM      6  N   UNL     1       6.279   6.296  17.134  0.00  0.00    +0.000 NA
ENDROOT
BRANCH   1   7
ATOM      7  C   UNL     1       4.111   5.162  17.178  0.00  0.00    +0.000 C 
BRANCH   7   8
ATOM      8  C   UNL     1       2.921   5.593  18.035  0.00  0.00    +0.000 C 
BRANCH   8   9
ATOM      9  C   UNL     1       1.789   4.568  17.965  0.00  0.00    +0.000 C 
BRANCH   9  11
ATOM     10  C   UNL     1       0.896   3.811  20.192  0.00  0.00    +0.000 C 
ATOM     11  C   UNL     1       1.903   3.536  19.086  0.00  0.00    +0.000 C 
ENDBRANCH   9  11
ENDBRANCH   8   9
ENDBRANCH   7   8
ENDBRANCH   1   7
TORSDOF 4
ENDMDL
MODEL 9
REMARK VINA RESULT:      -4.8      1.548      1.975
REMARK  Name = 
REMARK  5 active torsions:
REMARK  status: ('A' for Active; 'I' for Inactive)
REMARK    1  A    between atoms: C_1  and  C_2
REMARK    2  A    between atoms: C_2  and  C_3
REMARK    3  A    between atoms: C_3  and  C_4
REMARK    4  A    between atoms: C_4  and  C_5
REMARK    5  A    between atoms: C_5  and  C_6
REMARK                            x       y       z     vdW  Elec       q    Type
REMARK                         _______ _______ _______ _____ _____    ______ ____
ROOT
ATOM      1  C   UNL     1       4.251   4.908  18.160  0.00  0.00    +0.000 A 
ATOM      2  C   UNL     1       5.164   4.892  19.212  0.00  0.00    +0.000 A 
ATOM      3  N   UNL     1       6.499   4.763  19.026  0.00  0.00    +0.000 NA
ATOM      4  C   UNL     1       6.889   4.644  17.738  0.00  0.00    +0.000 A 
ATOM      5  C   UNL     1       5.991   4.655  16.685  0.00  0.00    +0.000 A 
ATOM      6  N   UNL     1       4.658   4.784  16.871  0.00  0.00    +0.000 NA
ENDROOT
BRANCH   1   7
ATOM      7  C   UNL     1       2.774   5.009  18.418  0.00  0.00    +0.000 C 
BRANCH   7   8
ATOM      8  C   UNL     1       2.485   5.946  19.591  0.00  0.00    +0.000 C 
BRANCH   8   9
ATOM      9  C   UNL     1       1.670   5.241  20.674  0.00  0.00    +0.000 C 
BRANCH   9  11
ATOM     10  C   UNL     1       1.368   2.815  21.268  0.00  0.00    +0.000 C 
ATOM     11  C   UNL     1       1.175   3.876  20.197  0.00  0.00    +0.000 C 
ENDBRANCH   9  11
ENDBRANCH   8   9
ENDBRANCH   7   8
ENDBRANCH   1   7
TORSDOF 4
ENDMDL
