MODEL 1
REMARK VINA RESULT:      -6.7      0.000      0.000
REMARK  Name = 
REMARK  12 active torsions:
REMARK  status: ('A' for Active; 'I' for Inactive)
REMARK    1  A    between atoms: C_1  and  O_2
REMARK    2  A    between atoms: O_2  and  C_3
REMARK    3  A    between atoms: C_5  and  C_6
REMARK    4  A    between atoms: C_6  and  O_8
REMARK    5  A    between atoms: O_8  and  C_9
REMARK    6  A    between atoms: C_9  and  C_10
REMARK    7  A    between atoms: N_12  and  C_13
REMARK    8  A    between atoms: N_12  and  C_14
REMARK    9  A    between atoms: C_21  and  O_22
REMARK   10  A    between atoms: O_22  and  C_23
REMARK   11  A    between atoms: C_24  and  O_25
REMARK   12  A    between atoms: O_25  and  C_26
REMARK                            x       y       z     vdW  Elec       q    Type
REMARK                         _______ _______ _______ _____ _____    ______ ____
ROOT
ATOM      1  C   UNL     1       8.300   9.127  18.248  0.00  0.00    +0.000 C 
ATOM      2  O   UNL     1       7.421   9.441  17.461  0.00  0.00    +0.000 OA
ENDROOT
BRANCH   1   5
ATOM      3  C   UNL     1      10.929  11.802  18.429  0.00  0.00    +0.000 A 
ATOM      4  C   UNL     1      10.195  10.682  18.015  0.00  0.00    +0.000 A 
ATOM      5  C   UNL     1       9.237  10.107  18.848  0.00  0.00    +0.000 A 
ATOM      6  C   UNL     1       9.101  10.581  20.150  0.00  0.00    +0.000 A 
ATOM      7  C   UNL     1       9.893  11.637  20.620  0.00  0.00    +0.000 A 
ATOM      8  C   UNL     1      10.818  12.273  19.758  0.00  0.00    +0.000 A 
BRANCH   3  10
ATOM      9  C   UNL     1      11.148  13.421  16.712  0.00  0.00    +0.000 C 
ATOM     10  O   UNL     1      11.765  12.431  17.540  0.00  0.00    +0.000 OA
ENDBRANCH   3  10
BRANCH   7  11
ATOM     11  O   UNL     1       9.591  11.935  21.927  0.00  0.00    +0.000 OA
ATOM     12  C   UNL     1       8.266  11.770  22.402  0.00  0.00    +0.000 C 
ENDBRANCH   7  11
BRANCH   8  13
ATOM     13  O   UNL     1      11.532  13.302  20.307  0.00  0.00    +0.000 OA
ATOM     14  C   UNL     1      11.076  14.640  20.230  0.00  0.00    +0.000 C 
ENDBRANCH   8  13
ENDBRANCH   1   5
BRANCH   1  15
ATOM     15  O   UNL     1       8.466   7.899  18.801  0.00  0.00    +0.000 OA
BRANCH  15  16
ATOM     16  C   UNL     1       7.952   6.835  17.986  0.00  0.00    +0.000 C 
BRANCH  16  17
ATOM     17  C   UNL     1       6.959   5.986  18.809  0.00  0.00    +0.000 C 
ATOM     18  O   UNL     1       7.347   5.561  19.903  0.00  0.00    +0.000 OA
ATOM     19  N   UNL     1       5.694   5.706  18.262  0.00  0.00    +0.000 N 
ATOM     20  C   UNL     1       5.311   6.118  16.909  0.00  0.00    +0.000 C 
BRANCH  19  21
ATOM     21  C   UNL     1       4.688   4.971  19.014  0.00  0.00    +0.000 A 
ATOM     22  C   UNL     1       4.747   3.581  19.192  0.00  0.00    +0.000 A 
ATOM     23  C   UNL     1       3.773   2.888  19.924  0.00  0.00    +0.000 A 
ATOM     24  C   UNL     1       2.712   3.573  20.501  0.00  0.00    +0.000 A 
ATOM     25  C   UNL     1       2.631   4.951  20.354  0.00  0.00    +0.000 A 
ATOM     26  C   UNL     1       3.610   5.641  19.626  0.00  0.00    +0.000 A 
ENDBRANCH  19  21
ENDBRANCH  16  17
ENDBRANCH  15  16
ENDBRANCH   1  15
TORSDOF 8
ENDMDL
MODEL 2
REMARK VINA RESULT:      -6.7      5.296      8.618
REMARK  Name = 
REMARK  12 active torsions:
REMARK  status: ('A' for Active; 'I' for Inactive)
REMARK    1  A    between atoms: C_1  and  O_2
REMARK    2  A    between atoms: O_2  and  C_3
REMARK    3  A    between atoms: C_5  and  C_6
REMARK    4  A    between atoms: C_6  and  O_8
REMARK    5  A    between atoms: O_8  and  C_9
REMARK    6  A    between atoms: C_9  and  C_10
REMARK    7  A    between atoms: N_12  and  C_13
REMARK    8  A    between atoms: N_12  and  C_14
REMARK    9  A    between atoms: C_21  and  O_22
REMARK   10  A    between atoms: O_22  and  C_23
REMARK   11  A    between atoms: C_24  and  O_25
REMARK   12  A    between atoms: O_25  and  C_26
REMARK                            x       y       z     vdW  Elec       q    Type
REMARK                         _______ _______ _______ _____ _____    ______ ____
ROOT
ATOM      1  C   UNL     1       7.186   5.555  18.093  0.00  0.00    +0.000 C 
ATOM      2  O   UNL     1       7.802   6.440  18.666  0.00  0.00    +0.000 OA
ENDROOT
BRANCH   1   5
ATOM      3  C   UNL     1       4.055   3.736  19.087  0.00  0.00    +0.000 A 
ATOM      4  C   UNL     1       5.345   4.003  18.606  0.00  0.00    +0.000 A 
ATOM      5  C   UNL     1       5.740   5.306  18.308  0.00  0.00    +0.000 A 
ATOM      6  C   UNL     1       4.800   6.330  18.374  0.00  0.00    +0.000 A 
ATOM      7  C   UNL     1       3.477   6.072  18.758  0.00  0.00    +0.000 A 
ATOM      8  C   UNL     1       3.085   4.765  19.131  0.00  0.00    +0.000 A 
BRANCH   3  10
ATOM      9  C   UNL     1       3.464   1.529  18.457  0.00  0.00    +0.000 C 
ATOM     10  O   UNL     1       3.737   2.467  19.502  0.00  0.00    +0.000 OA
ENDBRANCH   3  10
BRANCH   7  11
ATOM     11  O   UNL     1       2.729   7.224  18.751  0.00  0.00    +0.000 OA
ATOM     12  C   UNL     1       2.699   8.041  17.593  0.00  0.00    +0.000 C 
ENDBRANCH   7  11
BRANCH   8  13
ATOM     13  O   UNL     1       1.778   4.619  19.504  0.00  0.00    +0.000 OA
ATOM     14  C   UNL     1       1.399   4.574  20.867  0.00  0.00    +0.000 C 
ENDBRANCH   8  13
ENDBRANCH   1   5
BRANCH   1  15
ATOM     15  O   UNL     1       7.666   4.778  17.088  0.00  0.00    +0.000 OA
BRANCH  15  16
ATOM     16  C   UNL     1       7.479   5.354  15.787  0.00  0.00    +0.000 C 
BRANCH  16  17
ATOM     17  C   UNL     1       6.735   4.351  14.879  0.00  0.00    +0.000 C 
ATOM     18  O   UNL     1       6.034   3.496  15.433  0.00  0.00    +0.000 OA
ATOM     19  N   UNL     1       6.922   4.432  13.487  0.00  0.00    +0.000 N 
ATOM     20  C   UNL     1       7.858   5.376  12.871  0.00  0.00    +0.000 C 
BRANCH  19  21
ATOM     21  C   UNL     1       6.198   3.563  12.573  0.00  0.00    +0.000 A 
ATOM     22  C   UNL     1       4.861   3.796  12.214  0.00  0.00    +0.000 A 
ATOM     23  C   UNL     1       4.178   2.953  11.327  0.00  0.00    +0.000 A 
ATOM     24  C   UNL     1       4.818   1.852  10.772  0.00  0.00    +0.000 A 
ATOM     25  C   UNL     1       6.144   1.601  11.098  0.00  0.00    +0.000 A 
ATOM     26  C   UNL     1       6.825   2.449  11.980  0.00  0.00    +0.000 A 
ENDBRANCH  19  21
ENDBRANCH  16  17
ENDBRANCH  15  16
ENDBRANCH   1  15
TORSDOF 8
ENDMDL
MODEL 3
REMARK VINA RESULT:      -6.6      5.248      8.630
REMARK  Name = 
REMARK  12 active torsions:
REMARK  status: ('A' for Active; 'I' for Inactive)
REMARK    1  A    between atoms: C_1  and  O_2
REMARK    2  A    between atoms: O_2  and  C_3
REMARK    3  A    between atoms: C_5  and  C_6
REMARK    4  A    between atoms: C_6  and  O_8
REMARK    5  A    between atoms: O_8  and  C_9
REMARK    6  A    between atoms: C_9  and  C_10
REMARK    7  A    between atoms: N_12  and  C_13
REMARK    8  A    between atoms: N_12  and  C_14
REMARK    9  A    between atoms: C_21  and  O_22
REMARK   10  A    between atoms: O_22  and  C_23
REMARK   11  A    between atoms: C_24  and  O_25
REMARK   12  A    between atoms: O_25  and  C_26
REMARK                            x       y       z     vdW  Elec       q    Type
REMARK                         _______ _______ _______ _____ _____    ______ ____
ROOT
ATOM      1  C   UNL     1       7.110   5.646  18.060  0.00  0.00    +0.000 C 
ATOM      2  O   UNL     1       7.678   6.649  18.462  0.00  0.00    +0.000 OA
ENDROOT
BRANCH   1   5
ATOM      3  C   UNL     1       4.268   3.562  19.356  0.00  0.00    +0.000 A 
ATOM      4  C   UNL     1       5.458   3.944  18.721  0.00  0.00    +0.000 A 
ATOM      5  C   UNL     1       5.727   5.285  18.455  0.00  0.00    +0.000 A 
ATOM      6  C   UNL     1       4.745   6.237  18.714  0.00  0.00    +0.000 A 
ATOM      7  C   UNL     1       3.508   5.867  19.259  0.00  0.00    +0.000 A 
ATOM      8  C   UNL     1       3.253   4.517  19.599  0.00  0.00    +0.000 A 
BRANCH   3  10
ATOM      9  C   UNL     1       3.737   1.356  18.673  0.00  0.00    +0.000 C 
ATOM     10  O   UNL     1       4.090   2.253  19.730  0.00  0.00    +0.000 OA
ENDBRANCH   3  10
BRANCH   7  11
ATOM     11  O   UNL     1       2.697   6.963  19.427  0.00  0.00    +0.000 OA
ATOM     12  C   UNL     1       2.343   7.760  18.310  0.00  0.00    +0.000 C 
ENDBRANCH   7  11
BRANCH   8  13
ATOM     13  O   UNL     1       2.022   4.261  20.137  0.00  0.00    +0.000 OA
ATOM     14  C   UNL     1       0.992   3.662  19.374  0.00  0.00    +0.000 C 
ENDBRANCH   8  13
ENDBRANCH   1   5
BRANCH   1  15
ATOM     15  O   UNL     1       7.574   4.804  17.102  0.00  0.00    +0.000 OA
BRANCH  15  16
ATOM     16  C   UNL     1       7.476   5.344  15.776  0.00  0.00    +0.000 C 
BRANCH  16  17
ATOM     17  C   UNL     1       6.727   4.348  14.865  0.00  0.00    +0.000 C 
ATOM     18  O   UNL     1       6.027   3.490  15.416  0.00  0.00    +0.000 OA
ATOM     19  N   UNL     1       6.909   4.436  13.473  0.00  0.00    +0.000 N 
ATOM     20  C   UNL     1       7.843   5.383  12.858  0.00  0.00    +0.000 C 
BRANCH  19  21
ATOM     21  C   UNL     1       6.178   3.575  12.556  0.00  0.00    +0.000 A 
ATOM     22  C   UNL     1       6.739   2.411  12.007  0.00  0.00    +0.000 A 
ATOM     23  C   UNL     1       6.021   1.588  11.130  0.00  0.00    +0.000 A 
ATOM     24  C   UNL     1       4.715   1.908  10.779  0.00  0.00    +0.000 A 
ATOM     25  C   UNL     1       4.127   3.046  11.314  0.00  0.00    +0.000 A 
ATOM     26  C   UNL     1       4.847   3.863  12.196  0.00  0.00    +0.000 A 
ENDBRANCH  19  21
ENDBRANCH  16  17
ENDBRANCH  15  16
ENDBRANCH   1  15
TORSDOF 8
ENDMDL
MODEL 4
REMARK VINA RESULT:      -6.6      5.530      8.665
REMARK  Name = 
REMARK  12 active torsions:
REMARK  status: ('A' for Active; 'I' for Inactive)
REMARK    1  A    between atoms: C_1  and  O_2
REMARK    2  A    between atoms: O_2  and  C_3
REMARK    3  A    between atoms: C_5  and  C_6
REMARK    4  A    between atoms: C_6  and  O_8
REMARK    5  A    between atoms: O_8  and  C_9
REMARK    6  A    between atoms: C_9  and  C_10
REMARK    7  A    between atoms: N_12  and  C_13
REMARK    8  A    between atoms: N_12  and  C_14
REMARK    9  A    between atoms: C_21  and  O_22
REMARK   10  A    between atoms: O_22  and  C_23
REMARK   11  A    between atoms: C_24  and  O_25
REMARK   12  A    between atoms: O_25  and  C_26
REMARK                            x       y       z     vdW  Elec       q    Type
REMARK                         _______ _______ _______ _____ _____    ______ ____
ROOT
ATOM      1  C   UNL     1       7.064   5.116  18.585  0.00  0.00    +0.000 C 
ATOM      2  O   UNL     1       7.793   5.871  19.209  0.00  0.00    +0.000 OA
ENDROOT
BRANCH   1   5
ATOM      3  C   UNL     1       3.423   5.934  18.999  0.00  0.00    +0.000 A 
ATOM      4  C   UNL     1       4.820   6.052  18.969  0.00  0.00    +0.000 A 
ATOM      5  C   UNL     1       5.631   4.920  18.912  0.00  0.00    +0.000 A 
ATOM      6  C   UNL     1       5.045   3.662  19.011  0.00  0.00    +0.000 A 
ATOM      7  C   UNL     1       3.656   3.521  19.140  0.00  0.00    +0.000 A 
ATOM      8  C   UNL     1       2.819   4.661  19.128  0.00  0.00    +0.000 A 
BRANCH   3  10
ATOM      9  C   UNL     1       2.901   7.902  17.787  0.00  0.00    +0.000 C 
ATOM     10  O   UNL     1       2.646   7.063  18.917  0.00  0.00    +0.000 OA
ENDBRANCH   3  10
BRANCH   7  11
ATOM     11  O   UNL     1       3.302   2.196  19.223  0.00  0.00    +0.000 OA
ATOM     12  C   UNL     1       3.934   1.241  18.387  0.00  0.00    +0.000 C 
ENDBRANCH   7  11
BRANCH   8  13
ATOM     13  O   UNL     1       1.479   4.417  19.245  0.00  0.00    +0.000 OA
ATOM     14  C   UNL     1       0.882   4.164  20.503  0.00  0.00    +0.000 C 
ENDBRANCH   8  13
ENDBRANCH   1   5
BRANCH   1  15
ATOM     15  O   UNL     1       7.391   4.467  17.438  0.00  0.00    +0.000 OA
BRANCH  15  16
ATOM     16  C   UNL     1       7.075   5.215  16.255  0.00  0.00    +0.000 C 
BRANCH  16  17
ATOM     17  C   UNL     1       6.394   4.288  15.224  0.00  0.00    +0.000 C 
ATOM     18  O   UNL     1       5.601   3.444  15.656  0.00  0.00    +0.000 OA
ATOM     19  N   UNL     1       6.739   4.418  13.867  0.00  0.00    +0.000 N 
ATOM     20  C   UNL     1       7.777   5.342  13.402  0.00  0.00    +0.000 C 
BRANCH  19  21
ATOM     21  C   UNL     1       6.084   3.625  12.838  0.00  0.00    +0.000 A 
ATOM     22  C   UNL     1       4.767   3.871  12.423  0.00  0.00    +0.000 A 
ATOM     23  C   UNL     1       4.151   3.101  11.426  0.00  0.00    +0.000 A 
ATOM     24  C   UNL     1       4.842   2.063  10.815  0.00  0.00    +0.000 A 
ATOM     25  C   UNL     1       6.151   1.802  11.195  0.00  0.00    +0.000 A 
ATOM     26  C   UNL     1       6.765   2.577  12.187  0.00  0.00    +0.000 A 
ENDBRANCH  19  21
ENDBRANCH  16  17
ENDBRANCH  15  16
ENDBRANCH   1  15
TORSDOF 8
ENDMDL
MODEL 5
REMARK VINA RESULT:      -6.6      6.729     10.100
REMARK  Name = 
REMARK  12 active torsions:
REMARK  status: ('A' for Active; 'I' for Inactive)
REMARK    1  A    between atoms: C_1  and  O_2
REMARK    2  A    between atoms: O_2  and  C_3
REMARK    3  A    between atoms: C_5  and  C_6
REMARK    4  A    between atoms: C_6  and  O_8
REMARK    5  A    between atoms: O_8  and  C_9
REMARK    6  A    between atoms: C_9  and  C_10
REMARK    7  A    between atoms: N_12  and  C_13
REMARK    8  A    between atoms: N_12  and  C_14
REMARK    9  A    between atoms: C_21  and  O_22
REMARK   10  A    between atoms: O_22  and  C_23
REMARK   11  A    between atoms: C_24  and  O_25
REMARK   12  A    between atoms: O_25  and  C_26
REMARK                            x       y       z     vdW  Elec       q    Type
REMARK                         _______ _______ _______ _____ _____    ______ ____
ROOT
ATOM      1  C   UNL     1       1.666   8.008  20.017  0.00  0.00    +0.000 C 
ATOM      2  O   UNL     1       1.736   8.904  19.190  0.00  0.00    +0.000 OA
ENDROOT
BRANCH   1   5
ATOM      3  C   UNL     1       3.366   5.147  18.279  0.00  0.00    +0.000 A 
ATOM      4  C   UNL     1       2.694   6.356  18.509  0.00  0.00    +0.000 A 
ATOM      5  C   UNL     1       2.095   6.616  19.740  0.00  0.00    +0.000 A 
ATOM      6  C   UNL     1       2.062   5.611  20.703  0.00  0.00    +0.000 A 
ATOM      7  C   UNL     1       2.643   4.359  20.459  0.00  0.00    +0.000 A 
ATOM      8  C   UNL     1       3.315   4.110  19.239  0.00  0.00    +0.000 A 
BRANCH   3  10
ATOM      9  C   UNL     1       5.471   5.211  17.191  0.00  0.00    +0.000 C 
ATOM     10  O   UNL     1       4.063   4.972  17.109  0.00  0.00    +0.000 OA
ENDBRANCH   3  10
BRANCH   7  11
ATOM     11  O   UNL     1       2.490   3.527  21.542  0.00  0.00    +0.000 OA
ATOM     12  C   UNL     1       1.354   2.685  21.633  0.00  0.00    +0.000 C 
ENDBRANCH   7  11
BRANCH   8  13
ATOM     13  O   UNL     1       3.860   2.863  19.104  0.00  0.00    +0.000 OA
ATOM     14  C   UNL     1       3.229   1.862  18.328  0.00  0.00    +0.000 C 
ENDBRANCH   8  13
ENDBRANCH   1   5
BRANCH   1  15
ATOM     15  O   UNL     1       1.338   8.162  21.325  0.00  0.00    +0.000 OA
BRANCH  15  16
ATOM     16  C   UNL     1      -0.028   8.552  21.525  0.00  0.00    +0.000 C 
BRANCH  16  17
ATOM     17  C   UNL     1      -0.076   9.933  22.215  0.00  0.00    +0.000 C 
ATOM     18  O   UNL     1       0.241   9.982  23.409  0.00  0.00    +0.000 OA
ATOM     19  N   UNL     1      -0.515  11.044  21.473  0.00  0.00    +0.000 N 
ATOM     20  C   UNL     1      -1.005  10.931  20.097  0.00  0.00    +0.000 C 
BRANCH  19  21
ATOM     21  C   UNL     1      -0.517  12.383  22.042  0.00  0.00    +0.000 A 
ATOM     22  C   UNL     1       0.353  13.391  21.600  0.00  0.00    +0.000 A 
ATOM     23  C   UNL     1       0.335  14.678  22.155  0.00  0.00    +0.000 A 
ATOM     24  C   UNL     1      -0.561  14.992  23.169  0.00  0.00    +0.000 A 
ATOM     25  C   UNL     1      -1.443  14.020  23.621  0.00  0.00    +0.000 A 
ATOM     26  C   UNL     1      -1.426  12.737  23.060  0.00  0.00    +0.000 A 
ENDBRANCH  19  21
ENDBRANCH  16  17
ENDBRANCH  15  16
ENDBRANCH   1  15
TORSDOF 8
ENDMDL
MODEL 6
REMARK VINA RESULT:      -6.5      6.485      9.685
REMARK  Name = 
REMARK  12 active torsions:
REMARK  status: ('A' for Active; 'I' for Inactive)
REMARK    1  A    between atoms: C_1  and  O_2
REMARK    2  A    between atoms: O_2  and  C_3
REMARK    3  A    between atoms: C_5  and  C_6
REMARK    4  A    between atoms: C_6  and  O_8
REMARK    5  A    between atoms: O_8  and  C_9
REMARK    6  A    between atoms: C_9  and  C_10
REMARK    7  A    between atoms: N_12  and  C_13
REMARK    8  A    between atoms: N_12  and  C_14
REMARK    9  A    between atoms: C_21  and  O_22
REMARK   10  A    between atoms: O_22  and  C_23
REMARK   11  A    between atoms: C_24  and  O_25
REMARK   12  A    between atoms: O_25  and  C_26
REMARK                            x       y       z     vdW  Elec       q    Type
REMARK                         _______ _______ _______ _____ _____    ______ ____
ROOT
ATOM      1  C   UNL     1       1.945   8.910  18.371  0.00  0.00    +0.000 C 
ATOM      2  O   UNL     1       2.075   9.556  17.342  0.00  0.00    +0.000 OA
ENDROOT
BRANCH   1   5
ATOM      3  C   UNL     1       4.366   6.062  18.012  0.00  0.00    +0.000 A 
ATOM      4  C   UNL     1       3.585   7.191  17.726  0.00  0.00    +0.000 A 
ATOM      5  C   UNL     1       2.532   7.562  18.560  0.00  0.00    +0.000 A 
ATOM      6  C   UNL     1       2.181   6.728  19.617  0.00  0.00    +0.000 A 
ATOM      7  C   UNL     1       2.885   5.542  19.866  0.00  0.00    +0.000 A 
ATOM      8  C   UNL     1       4.001   5.194  19.067  0.00  0.00    +0.000 A 
BRANCH   3  10
ATOM      9  C   UNL     1       5.241   5.072  16.045  0.00  0.00    +0.000 C 
ATOM     10  O   UNL     1       5.480   5.799  17.254  0.00  0.00    +0.000 OA
ENDBRANCH   3  10
BRANCH   7  11
ATOM     11  O   UNL     1       2.366   4.880  20.952  0.00  0.00    +0.000 OA
ATOM     12  C   UNL     1       1.303   3.959  20.778  0.00  0.00    +0.000 C 
ENDBRANCH   7  11
BRANCH   8  13
ATOM     13  O   UNL     1       4.629   4.026  19.400  0.00  0.00    +0.000 OA
ATOM     14  C   UNL     1       4.203   2.783  18.874  0.00  0.00    +0.000 C 
ENDBRANCH   8  13
ENDBRANCH   1   5
BRANCH   1  15
ATOM     15  O   UNL     1       1.391   9.362  19.524  0.00  0.00    +0.000 OA
BRANCH  15  16
ATOM     16  C   UNL     1       0.881  10.700  19.422  0.00  0.00    +0.000 C 
BRANCH  16  17
ATOM     17  C   UNL     1      -0.650  10.656  19.221  0.00  0.00    +0.000 C 
ATOM     18  O   UNL     1      -1.231   9.607  19.517  0.00  0.00    +0.000 OA
ATOM     19  N   UNL     1      -1.292  11.783  18.677  0.00  0.00    +0.000 N 
ATOM     20  C   UNL     1      -0.557  12.965  18.218  0.00  0.00    +0.000 C 
BRANCH  19  21
ATOM     21  C   UNL     1      -2.738  11.833  18.528  0.00  0.00    +0.000 A 
ATOM     22  C   UNL     1      -3.585  12.293  19.547  0.00  0.00    +0.000 A 
ATOM     23  C   UNL     1      -4.977  12.341  19.386  0.00  0.00    +0.000 A 
ATOM     24  C   UNL     1      -5.558  11.930  18.194  0.00  0.00    +0.000 A 
ATOM     25  C   UNL     1      -4.747  11.481  17.161  0.00  0.00    +0.000 A 
ATOM     26  C   UNL     1      -3.356  11.440  17.324  0.00  0.00    +0.000 A 
ENDBRANCH  19  21
ENDBRANCH  16  17
ENDBRANCH  15  16
ENDBRANCH   1  15
TORSDOF 8
ENDMDL
MODEL 7
REMARK VINA RESULT:      -6.5      5.184      8.433
REMARK  Name = 
REMARK  12 active torsions:
REMARK  status: ('A' for Active; 'I' for Inactive)
REMARK    1  A    between atoms: C_1  and  O_2
REMARK    2  A    between atoms: O_2  and  C_3
REMARK    3  A    between atoms: C_5  and  C_6
REMARK    4  A    between atoms: C_6  and  O_8
REMARK    5  A    between atoms: O_8  and  C_9
REMARK    6  A    between atoms: C_9  and  C_10
REMARK    7  A    between atoms: N_12  and  C_13
REMARK    8  A    between atoms: N_12  and  C_14
REMARK    9  A    between atoms: C_21  and  O_22
REMARK   10  A    between atoms: O_22  and  C_23
REMARK   11  A    between atoms: C_24  and  O_25
REMARK   12  A    between atoms: O_25  and  C_26
REMARK                            x       y       z     vdW  Elec       q    Type
REMARK                         _______ _______ _______ _____ _____    ______ ____
ROOT
ATOM      1  C   UNL     1       7.141   5.757  18.061  0.00  0.00    +0.000 C 
ATOM      2  O   UNL     1       7.766   6.748  18.408  0.00  0.00    +0.000 OA
ENDROOT
BRANCH   1   5
ATOM      3  C   UNL     1       3.400   6.006  18.275  0.00  0.00    +0.000 A 
ATOM      4  C   UNL     1       4.752   6.347  18.121  0.00  0.00    +0.000 A 
ATOM      5  C   UNL     1       5.759   5.471  18.517  0.00  0.00    +0.000 A 
ATOM      6  C   UNL     1       5.414   4.299  19.184  0.00  0.00    +0.000 A 
ATOM      7  C   UNL     1       4.072   3.982  19.437  0.00  0.00    +0.000 A 
ATOM      8  C   UNL     1       3.039   4.832  18.976  0.00  0.00    +0.000 A 
BRANCH   3  10
ATOM      9  C   UNL     1       2.333   8.120  18.352  0.00  0.00    +0.000 C 
ATOM     10  O   UNL     1       2.431   6.825  17.752  0.00  0.00    +0.000 OA
ENDBRANCH   3  10
BRANCH   7  11
ATOM     11  O   UNL     1       3.967   2.787  20.107  0.00  0.00    +0.000 OA
ATOM     12  C   UNL     1       4.463   1.598  19.515  0.00  0.00    +0.000 C 
ENDBRANCH   7  11
BRANCH   8  13
ATOM     13  O   UNL     1       1.765   4.427  19.261  0.00  0.00    +0.000 OA
ATOM     14  C   UNL     1       1.154   4.728  20.501  0.00  0.00    +0.000 C 
ENDBRANCH   8  13
ENDBRANCH   1   5
BRANCH   1  15
ATOM     15  O   UNL     1       7.534   4.864  17.117  0.00  0.00    +0.000 OA
BRANCH  15  16
ATOM     16  C   UNL     1       7.474   5.387  15.782  0.00  0.00    +0.000 C 
BRANCH  16  17
ATOM     17  C   UNL     1       6.702   4.404  14.875  0.00  0.00    +0.000 C 
ATOM     18  O   UNL     1       5.942   3.601  15.426  0.00  0.00    +0.000 OA
ATOM     19  N   UNL     1       6.933   4.442  13.488  0.00  0.00    +0.000 N 
ATOM     20  C   UNL     1       7.935   5.321  12.878  0.00  0.00    +0.000 C 
BRANCH  19  21
ATOM     21  C   UNL     1       6.188   3.592  12.572  0.00  0.00    +0.000 A 
ATOM     22  C   UNL     1       6.736   2.430  12.008  0.00  0.00    +0.000 A 
ATOM     23  C   UNL     1       6.003   1.619  11.131  0.00  0.00    +0.000 A 
ATOM     24  C   UNL     1       4.696   1.949  10.797  0.00  0.00    +0.000 A 
ATOM     25  C   UNL     1       4.120   3.086  11.347  0.00  0.00    +0.000 A 
ATOM     26  C   UNL     1       4.854   3.892  12.228  0.00  0.00    +0.000 A 
ENDBRANCH  19  21
ENDBRANCH  16  17
ENDBRANCH  15  16
ENDBRANCH   1  15
TORSDOF 8
ENDMDL
MODEL 8
REMARK VINA RESULT:      -6.5      6.596      9.934
REMARK  Name = 
REMARK  12 active torsions:
REMARK  status: ('A' for Active; 'I' for Inactive)
REMARK    1  A    between atoms: C_1  and  O_2
REMARK    2  A    between atoms: O_2  and  C_3
REMARK    3  A    between atoms: C_5  and  C_6
REMARK    4  A    between atoms: C_6  and  O_8
REMARK    5  A    between atoms: O_8  and  C_9
REMARK    6  A    between atoms: C_9  and  C_10
REMARK    7  A    between atoms: N_12  and  C_13
REMARK    8  A    between atoms: N_12  and  C_14
REMARK    9  A    between atoms: C_21  and  O_22
REMARK   10  A    between atoms: O_22  and  C_23
REMARK   11  A    between atoms: C_24  and  O_25
REMARK   12  A    between atoms: O_25  and  C_26
REMARK                            x       y       z     vdW  Elec       q    Type
REMARK                         _______ _______ _______ _____ _____    ______ ____
ROOT
ATOM      1  C   UNL     1       2.280   8.294  18.121  0.00  0.00    +0.000 C 
ATOM      2  O   UNL     1       2.501   8.807  17.036  0.00  0.00    +0.000 OA
ENDROOT
BRANCH   1   5
ATOM      3  C   UNL     1       2.839   5.130  20.064  0.00  0.00    +0.000 A 
ATOM      4  C   UNL     1       2.448   6.432  19.724  0.00  0.00    +0.000 A 
ATOM      5  C   UNL     1       2.949   7.053  18.581  0.00  0.00    +0.000 A 
ATOM      6  C   UNL     1       3.940   6.413  17.843  0.00  0.00    +0.000 A 
ATOM      7  C   UNL     1       4.419   5.151  18.220  0.00  0.00    +0.000 A 
ATOM      8  C   UNL     1       3.866   4.483  19.338  0.00  0.00    +0.000 A 
BRANCH   3  10
ATOM      9  C   UNL     1       1.102   3.681  20.771  0.00  0.00    +0.000 C 
ATOM     10  O   UNL     1       2.228   4.492  21.116  0.00  0.00    +0.000 OA
ENDBRANCH   3  10
BRANCH   7  11
ATOM     11  O   UNL     1       5.392   4.715  17.353  0.00  0.00    +0.000 OA
ATOM     12  C   UNL     1       5.092   4.551  15.978  0.00  0.00    +0.000 C 
ENDBRANCH   7  11
BRANCH   8  13
ATOM     13  O   UNL     1       4.390   3.251  19.614  0.00  0.00    +0.000 OA
ATOM     14  C   UNL     1       3.882   2.078  19.006  0.00  0.00    +0.000 C 
ENDBRANCH   8  13
ENDBRANCH   1   5
BRANCH   1  15
ATOM     15  O   UNL     1       1.526   8.833  19.113  0.00  0.00    +0.000 OA
BRANCH  15  16
ATOM     16  C   UNL     1       1.260  10.231  18.927  0.00  0.00    +0.000 C 
BRANCH  16  17
ATOM     17  C   UNL     1      -0.070  10.601  19.618  0.00  0.00    +0.000 C 
ATOM     18  O   UNL     1      -1.069   9.936  19.320  0.00  0.00    +0.000 OA
ATOM     19  N   UNL     1      -0.090  11.691  20.507  0.00  0.00    +0.000 N 
ATOM     20  C   UNL     1       1.083  12.538  20.742  0.00  0.00    +0.000 C 
BRANCH  19  21
ATOM     21  C   UNL     1      -1.292  12.048  21.243  0.00  0.00    +0.000 A 
ATOM     22  C   UNL     1      -2.337  12.786  20.666  0.00  0.00    +0.000 A 
ATOM     23  C   UNL     1      -3.493  13.117  21.387  0.00  0.00    +0.000 A 
ATOM     24  C   UNL     1      -3.634  12.715  22.708  0.00  0.00    +0.000 A 
ATOM     25  C   UNL     1      -2.623  11.973  23.305  0.00  0.00    +0.000 A 
ATOM     26  C   UNL     1      -1.472  11.639  22.580  0.00  0.00    +0.000 A 
ENDBRANCH  19  21
ENDBRANCH  16  17
ENDBRANCH  15  16
ENDBRANCH   1  15
TORSDOF 8
ENDMDL
MODEL 9
REMARK VINA RESULT:      -6.5      6.850      9.861
REMARK  Name = 
REMARK  12 active torsions:
REMARK  status: ('A' for Active; 'I' for Inactive)
REMARK    1  A    between atoms: C_1  and  O_2
REMARK    2  A    between atoms: O_2  and  C_3
REMARK    3  A    between atoms: C_5  and  C_6
REMARK    4  A    between atoms: C_6  and  O_8
REMARK    5  A    between atoms: O_8  and  C_9
REMARK    6  A    between atoms: C_9  and  C_10
REMARK    7  A    between atoms: N_12  and  C_13
REMARK    8  A    between atoms: N_12  and  C_14
REMARK    9  A    between atoms: C_21  and  O_22
REMARK   10  A    between atoms: O_22  and  C_23
REMARK   11  A    between atoms: C_24  and  O_25
REMARK   12  A    between atoms: O_25  and  C_26
REMARK                            x       y       z     vdW  Elec       q    Type
REMARK                         _______ _______ _______ _____ _____    ______ ____
ROOT
ATOM      1  C   UNL     1       0.915  10.131  18.278  0.00  0.00    +0.000 C 
ATOM      2  O   UNL     1       1.670  11.029  18.617  0.00  0.00    +0.000 OA
ENDROOT
BRANCH   1   5
ATOM      3  C   UNL     1      -2.483  11.465  19.157  0.00  0.00    +0.000 A 
ATOM      4  C   UNL     1      -1.146  11.055  19.258  0.00  0.00    +0.000 A 
ATOM      5  C   UNL     1      -0.561  10.278  18.260  0.00  0.00    +0.000 A 
ATOM      6  C   UNL     1      -1.353   9.807  17.217  0.00  0.00    +0.000 A 
ATOM      7  C   UNL     1      -2.716  10.123  17.147  0.00  0.00    +0.000 A 
ATOM      8  C   UNL     1      -3.303  10.969  18.117  0.00  0.00    +0.000 A 
BRANCH   3  10
ATOM      9  C   UNL     1      -2.086  13.346  20.544  0.00  0.00    +0.000 C 
ATOM     10  O   UNL     1      -2.994  12.341  20.083  0.00  0.00    +0.000 OA
ENDBRANCH   3  10
BRANCH   7  11
ATOM     11  O   UNL     1      -3.297   9.551  16.041  0.00  0.00    +0.000 OA
ATOM     12  C   UNL     1      -2.990  10.042  14.747  0.00  0.00    +0.000 C 
ENDBRANCH   7  11
BRANCH   8  13
ATOM     13  O   UNL     1      -4.635  11.229  17.952  0.00  0.00    +0.000 OA
ATOM     14  C   UNL     1      -5.095  12.124  16.956  0.00  0.00    +0.000 C 
ENDBRANCH   8  13
ENDBRANCH   1   5
BRANCH   1  15
ATOM     15  O   UNL     1       1.289   8.943  17.739  0.00  0.00    +0.000 OA
BRANCH  15  16
ATOM     16  C   UNL     1       2.628   8.561  18.082  0.00  0.00    +0.000 C 
BRANCH  16  17
ATOM     17  C   UNL     1       2.648   7.079  18.519  0.00  0.00    +0.000 C 
ATOM     18  O   UNL     1       1.929   6.759  19.471  0.00  0.00    +0.000 OA
ATOM     19  N   UNL     1       3.505   6.189  17.847  0.00  0.00    +0.000 N 
ATOM     20  C   UNL     1       4.438   6.626  16.805  0.00  0.00    +0.000 C 
BRANCH  19  21
ATOM     21  C   UNL     1       3.520   4.769  18.162  0.00  0.00    +0.000 A 
ATOM     22  C   UNL     1       2.726   3.837  17.476  0.00  0.00    +0.000 A 
ATOM     23  C   UNL     1       2.755   2.471  17.787  0.00  0.00    +0.000 A 
ATOM     24  C   UNL     1       3.586   1.999  18.795  0.00  0.00    +0.000 A 
ATOM     25  C   UNL     1       4.394   2.893  19.485  0.00  0.00    +0.000 A 
ATOM     26  C   UNL     1       4.366   4.258  19.167  0.00  0.00    +0.000 A 
ENDBRANCH  19  21
ENDBRANCH  16  17
ENDBRANCH  15  16
ENDBRANCH   1  15
TORSDOF 8
ENDMDL
