MODEL 1
REMARK VINA RESULT:      -7.1      0.000      0.000
REMARK  Name = 
REMARK  6 active torsions:
REMARK  status: ('A' for Active; 'I' for Inactive)
REMARK    1  A    between atoms: C_2  and  C_3
REMARK    2  A    between atoms: C_3  and  N_4
REMARK    3  A    between atoms: C_5  and  C_7
REMARK    4  A    between atoms: C_9  and  S_10
REMARK    5  A    between atoms: S_10  and  C_13
REMARK    6  A    between atoms: C_20  and  C_21
REMARK                            x       y       z     vdW  Elec       q    Type
REMARK                         _______ _______ _______ _____ _____    ______ ____
ROOT
ATOM      1  C   UNL     1      -0.350  11.817  18.850  0.00  0.00    +0.000 C 
ATOM      2  C   UNL     1      -0.031  13.064  18.025  0.00  0.00    +0.000 C 
ATOM      3  C   UNL     1       1.438  13.380  18.312  0.00  0.00    +0.000 C 
ATOM      4  C   UNL     1       2.071  12.059  18.746  0.00  0.00    +0.000 C 
ATOM      5  C   UNL     1       0.951  11.009  18.741  0.00  0.00    +0.000 C 
ENDROOT
BRANCH   5   6
ATOM      6  C   UNL     1       1.091   9.999  19.874  0.00  0.00    +0.000 C 
ATOM      7  O   UNL     1       0.903  10.336  21.043  0.00  0.00    +0.000 OA
ATOM      8  N   UNL     1       1.442   8.706  19.521  0.00  0.00    +0.000 N 
ATOM      9  C   UNL     1       1.507   7.672  20.568  0.00  0.00    +0.000 C 
ATOM     10  C   UNL     1       2.441   6.507  20.173  0.00  0.00    +0.000 C 
ATOM     11  C   UNL     1       1.781   5.488  19.228  0.00  0.00    +0.000 C 
ATOM     12  C   UNL     1       2.357   5.826  17.860  0.00  0.00    +0.000 C 
ATOM     13  C   UNL     1       2.876   7.229  18.082  0.00  0.00    +0.000 C 
ATOM     14  C   UNL     1       1.706   8.244  18.153  0.00  0.00    +0.000 C 
ATOM     15  O   UNL     1       3.504   7.082  19.375  0.00  0.00    +0.000 OA
ENDBRANCH   5   6
BRANCH   1  17
ATOM     16  N   UNL     1      -1.927  11.511  17.000  0.00  0.00    +0.000 N 
ATOM     17  C   UNL     1      -1.494  11.032  18.218  0.00  0.00    +0.000 C 
ATOM     18  O   UNL     1      -1.958  10.023  18.743  0.00  0.00    +0.000 OA
ATOM     19  H   UNL     1      -1.659  12.453  16.730  0.00  0.00    +0.000 HD
BRANCH  16  20
ATOM     20  C   UNL     1      -3.074  10.933  16.331  0.00  0.00    +0.000 C 
ATOM     21  C   UNL     1      -3.013   9.492  15.848  0.00  0.00    +0.000 C 
ATOM     22  C   UNL     1      -2.935  10.603  14.851  0.00  0.00    +0.000 C 
BRANCH  20  24
ATOM     23  N   UNL     1      -5.402  11.790  17.164  0.00  0.00    +0.000 NA
ATOM     24  C   UNL     1      -4.365  11.424  16.782  0.00  0.00    +0.000 C 
ENDBRANCH  20  24
ENDBRANCH  16  20
ENDBRANCH   1  17
BRANCH   3  25
ATOM     25  S   UNL     1       1.636  14.677  19.526  0.00  0.00    +0.000 S 
ATOM     26  O   UNL     1       0.778  14.369  20.655  0.00  0.00    +0.000 OA
ATOM     27  O   UNL     1       3.055  14.906  19.722  0.00  0.00    +0.000 OA
BRANCH  25  28
ATOM     28  C   UNL     1       0.937  16.121  18.747  0.00  0.00    +0.000 A 
ATOM     29  C   UNL     1      -0.420  16.399  18.931  0.00  0.00    +0.000 A 
ATOM     30  C   UNL     1      -0.975  17.535  18.340  0.00  0.00    +0.000 A 
ATOM     31  C   UNL     1      -0.175  18.395  17.588  0.00  0.00    +0.000 A 
ATOM     32  C   UNL     1       1.184  18.118  17.417  0.00  0.00    +0.000 A 
ATOM     33  C   UNL     1       1.746  16.978  17.995  0.00  0.00    +0.000 A 
ENDBRANCH  25  28
ENDBRANCH   3  25
TORSDOF 6
ENDMDL
MODEL 2
REMARK VINA RESULT:      -6.9      3.368      5.472
REMARK  Name = 
REMARK  6 active torsions:
REMARK  status: ('A' for Active; 'I' for Inactive)
REMARK    1  A    between atoms: C_2  and  C_3
REMARK    2  A    between atoms: C_3  and  N_4
REMARK    3  A    between atoms: C_5  and  C_7
REMARK    4  A    between atoms: C_9  and  S_10
REMARK    5  A    between atoms: S_10  and  C_13
REMARK    6  A    between atoms: C_20  and  C_21
REMARK                            x       y       z     vdW  Elec       q    Type
REMARK                         _______ _______ _______ _____ _____    ______ ____
ROOT
ATOM      1  C   UNL     1      -0.644  12.570  19.215  0.00  0.00    +0.000 C 
ATOM      2  C   UNL     1       0.731  11.902  19.246  0.00  0.00    +0.000 C 
ATOM      3  C   UNL     1       1.483  12.567  20.401  0.00  0.00    +0.000 C 
ATOM      4  C   UNL     1       0.407  13.099  21.347  0.00  0.00    +0.000 C 
ATOM      5  C   UNL     1      -0.949  12.767  20.706  0.00  0.00    +0.000 C 
ENDROOT
BRANCH   5   6
ATOM      6  C   UNL     1      -1.987  13.858  20.937  0.00  0.00    +0.000 C 
ATOM      7  O   UNL     1      -1.966  14.896  20.274  0.00  0.00    +0.000 OA
ATOM      8  N   UNL     1      -2.934  13.625  21.921  0.00  0.00    +0.000 N 
ATOM      9  C   UNL     1      -4.011  14.610  22.125  0.00  0.00    +0.000 C 
ATOM     10  C   UNL     1      -4.593  14.541  23.554  0.00  0.00    +0.000 C 
ATOM     11  C   UNL     1      -5.614  13.407  23.745  0.00  0.00    +0.000 C 
ATOM     12  C   UNL     1      -4.837  12.331  24.489  0.00  0.00    +0.000 C 
ATOM     13  C   UNL     1      -3.406  12.746  24.226  0.00  0.00    +0.000 C 
ATOM     14  C   UNL     1      -3.000  12.425  22.765  0.00  0.00    +0.000 C 
ATOM     15  O   UNL     1      -3.499  14.174  24.429  0.00  0.00    +0.000 OA
ENDBRANCH   5   6
BRANCH   1  17
ATOM     16  N   UNL     1      -2.042  11.940  17.304  0.00  0.00    +0.000 N 
ATOM     17  C   UNL     1      -1.681  11.637  18.600  0.00  0.00    +0.000 C 
ATOM     18  O   UNL     1      -2.123  10.665  19.208  0.00  0.00    +0.000 OA
ATOM     19  H   UNL     1      -1.813  12.861  16.943  0.00  0.00    +0.000 HD
BRANCH  16  20
ATOM     20  C   UNL     1      -3.092  11.206  16.627  0.00  0.00    +0.000 C 
ATOM     21  C   UNL     1      -2.892   9.734  16.307  0.00  0.00    +0.000 C 
ATOM     22  C   UNL     1      -2.822  10.740  15.204  0.00  0.00    +0.000 C 
BRANCH  20  24
ATOM     23  N   UNL     1      -5.519  12.014  17.184  0.00  0.00    +0.000 NA
ATOM     24  C   UNL     1      -4.446  11.637  16.938  0.00  0.00    +0.000 C 
ENDBRANCH  20  24
ENDBRANCH  16  20
ENDBRANCH   1  17
BRANCH   3  25
ATOM     25  S   UNL     1       2.607  13.840  19.844  0.00  0.00    +0.000 S 
ATOM     26  O   UNL     1       3.611  14.035  20.873  0.00  0.00    +0.000 OA
ATOM     27  O   UNL     1       3.002  13.536  18.481  0.00  0.00    +0.000 OA
BRANCH  25  28
ATOM     28  C   UNL     1       1.619  15.324  19.823  0.00  0.00    +0.000 A 
ATOM     29  C   UNL     1       1.514  16.084  20.992  0.00  0.00    +0.000 A 
ATOM     30  C   UNL     1       0.757  17.256  20.984  0.00  0.00    +0.000 A 
ATOM     31  C   UNL     1       0.125  17.674  19.813  0.00  0.00    +0.000 A 
ATOM     32  C   UNL     1       0.241  16.916  18.645  0.00  0.00    +0.000 A 
ATOM     33  C   UNL     1       0.989  15.736  18.645  0.00  0.00    +0.000 A 
ENDBRANCH  25  28
ENDBRANCH   3  25
TORSDOF 6
ENDMDL
MODEL 3
REMARK VINA RESULT:      -6.8      3.545      5.693
REMARK  Name = 
REMARK  6 active torsions:
REMARK  status: ('A' for Active; 'I' for Inactive)
REMARK    1  A    between atoms: C_2  and  C_3
REMARK    2  A    between atoms: C_3  and  N_4
REMARK    3  A    between atoms: C_5  and  C_7
REMARK    4  A    between atoms: C_9  and  S_10
REMARK    5  A    between atoms: S_10  and  C_13
REMARK    6  A    between atoms: C_20  and  C_21
REMARK                            x       y       z     vdW  Elec       q    Type
REMARK                         _______ _______ _______ _____ _____    ______ ____
ROOT
ATOM      1  C   UNL     1      -0.789  12.381  19.314  0.00  0.00    +0.000 C 
ATOM      2  C   UNL     1       0.582  11.723  19.475  0.00  0.00    +0.000 C 
ATOM      3  C   UNL     1       1.180  12.331  20.746  0.00  0.00    +0.000 C 
ATOM      4  C   UNL     1      -0.010  12.801  21.582  0.00  0.00    +0.000 C 
ATOM      5  C   UNL     1      -1.273  12.494  20.766  0.00  0.00    +0.000 C 
ENDROOT
BRANCH   5   6
ATOM      6  C   UNL     1      -2.348  13.563  20.927  0.00  0.00    +0.000 C 
ATOM      7  O   UNL     1      -2.392  14.530  20.166  0.00  0.00    +0.000 OA
ATOM      8  N   UNL     1      -3.251  13.393  21.964  0.00  0.00    +0.000 N 
ATOM      9  C   UNL     1      -4.360  14.352  22.111  0.00  0.00    +0.000 C 
ATOM     10  C   UNL     1      -4.891  14.404  23.560  0.00  0.00    +0.000 C 
ATOM     11  C   UNL     1      -5.857  13.256  23.899  0.00  0.00    +0.000 C 
ATOM     12  C   UNL     1      -5.012  12.290  24.716  0.00  0.00    +0.000 C 
ATOM     13  C   UNL     1      -3.609  12.730  24.360  0.00  0.00    +0.000 C 
ATOM     14  C   UNL     1      -3.240  12.282  22.923  0.00  0.00    +0.000 C 
ATOM     15  O   UNL     1      -3.754  14.167  24.426  0.00  0.00    +0.000 OA
ENDBRANCH   5   6
BRANCH   1  17
ATOM     16  N   UNL     1      -2.677  12.132  17.773  0.00  0.00    +0.000 N 
ATOM     17  C   UNL     1      -1.731  11.474  18.530  0.00  0.00    +0.000 C 
ATOM     18  O   UNL     1      -1.619  10.251  18.545  0.00  0.00    +0.000 OA
ATOM     19  H   UNL     1      -2.856  13.112  17.970  0.00  0.00    +0.000 HD
BRANCH  16  20
ATOM     20  C   UNL     1      -3.706  11.404  17.059  0.00  0.00    +0.000 C 
ATOM     21  C   UNL     1      -5.137  11.917  17.073  0.00  0.00    +0.000 C 
ATOM     22  C   UNL     1      -4.781  10.711  17.883  0.00  0.00    +0.000 C 
BRANCH  20  24
ATOM     23  N   UNL     1      -2.916  10.211  14.866  0.00  0.00    +0.000 NA
ATOM     24  C   UNL     1      -3.259  10.728  15.851  0.00  0.00    +0.000 C 
ENDBRANCH  20  24
ENDBRANCH  16  20
ENDBRANCH   1  17
BRANCH   3  25
ATOM     25  S   UNL     1       2.344  13.641  20.397  0.00  0.00    +0.000 S 
ATOM     26  O   UNL     1       3.146  13.859  21.587  0.00  0.00    +0.000 OA
ATOM     27  O   UNL     1       2.981  13.358  19.125  0.00  0.00    +0.000 OA
BRANCH  25  28
ATOM     28  C   UNL     1       1.329  15.094  20.206  0.00  0.00    +0.000 A 
ATOM     29  C   UNL     1       0.865  15.433  18.932  0.00  0.00    +0.000 A 
ATOM     30  C   UNL     1       0.056  16.559  18.771  0.00  0.00    +0.000 A 
ATOM     31  C   UNL     1      -0.301  17.327  19.879  0.00  0.00    +0.000 A 
ATOM     32  C   UNL     1       0.156  16.978  21.152  0.00  0.00    +0.000 A 
ATOM     33  C   UNL     1       0.975  15.859  21.321  0.00  0.00    +0.000 A 
ENDBRANCH  25  28
ENDBRANCH   3  25
TORSDOF 6
ENDMDL
MODEL 4
REMARK VINA RESULT:      -6.7      1.886      2.576
REMARK  Name = 
REMARK  6 active torsions:
REMARK  status: ('A' for Active; 'I' for Inactive)
REMARK    1  A    between atoms: C_2  and  C_3
REMARK    2  A    between atoms: C_3  and  N_4
REMARK    3  A    between atoms: C_5  and  C_7
REMARK    4  A    between atoms: C_9  and  S_10
REMARK    5  A    between atoms: S_10  and  C_13
REMARK    6  A    between atoms: C_20  and  C_21
REMARK                            x       y       z     vdW  Elec       q    Type
REMARK                         _______ _______ _______ _____ _____    ______ ____
ROOT
ATOM      1  C   UNL     1      -0.258  11.783  18.895  0.00  0.00    +0.000 C 
ATOM      2  C   UNL     1       0.101  13.016  18.066  0.00  0.00    +0.000 C 
ATOM      3  C   UNL     1       1.603  13.224  18.272  0.00  0.00    +0.000 C 
ATOM      4  C   UNL     1       2.164  11.855  18.656  0.00  0.00    +0.000 C 
ATOM      5  C   UNL     1       0.973  10.887  18.704  0.00  0.00    +0.000 C 
ENDROOT
BRANCH   5   6
ATOM      6  C   UNL     1       1.105   9.853  19.816  0.00  0.00    +0.000 C 
ATOM      7  O   UNL     1       0.874  10.157  20.987  0.00  0.00    +0.000 OA
ATOM      8  N   UNL     1       1.499   8.578  19.443  0.00  0.00    +0.000 N 
ATOM      9  C   UNL     1       1.558   7.520  20.468  0.00  0.00    +0.000 C 
ATOM     10  C   UNL     1       2.531   6.388  20.074  0.00  0.00    +0.000 C 
ATOM     11  C   UNL     1       1.926   5.377  19.085  0.00  0.00    +0.000 C 
ATOM     12  C   UNL     1       2.534   5.762  17.744  0.00  0.00    +0.000 C 
ATOM     13  C   UNL     1       3.011   7.172  18.014  0.00  0.00    +0.000 C 
ATOM     14  C   UNL     1       1.815   8.156  18.074  0.00  0.00    +0.000 C 
ATOM     15  O   UNL     1       3.604   7.009  19.322  0.00  0.00    +0.000 OA
ENDBRANCH   5   6
BRANCH   1  17
ATOM     16  N   UNL     1      -1.848  11.495  17.053  0.00  0.00    +0.000 N 
ATOM     17  C   UNL     1      -1.489  11.089  18.321  0.00  0.00    +0.000 C 
ATOM     18  O   UNL     1      -2.082  10.205  18.934  0.00  0.00    +0.000 OA
ATOM     19  H   UNL     1      -1.461  12.364  16.697  0.00  0.00    +0.000 HD
BRANCH  16  20
ATOM     20  C   UNL     1      -3.055  11.002  16.422  0.00  0.00    +0.000 C 
ATOM     21  C   UNL     1      -3.104   9.570  15.912  0.00  0.00    +0.000 C 
ATOM     22  C   UNL     1      -2.997  10.695  14.932  0.00  0.00    +0.000 C 
BRANCH  20  24
ATOM     23  N   UNL     1      -5.303  11.997  17.320  0.00  0.00    +0.000 NA
ATOM     24  C   UNL     1      -4.295  11.563  16.935  0.00  0.00    +0.000 C 
ENDBRANCH  20  24
ENDBRANCH  16  20
ENDBRANCH   1  17
BRANCH   3  25
ATOM     25  S   UNL     1       1.960  14.486  19.487  0.00  0.00    +0.000 S 
ATOM     26  O   UNL     1       1.355  15.726  19.037  0.00  0.00    +0.000 OA
ATOM     27  O   UNL     1       1.655  13.953  20.801  0.00  0.00    +0.000 OA
BRANCH  25  28
ATOM     28  C   UNL     1       3.724  14.722  19.373  0.00  0.00    +0.000 A 
ATOM     29  C   UNL     1       4.321  14.769  18.110  0.00  0.00    +0.000 A 
ATOM     30  C   UNL     1       5.698  14.969  18.007  0.00  0.00    +0.000 A 
ATOM     31  C   UNL     1       6.468  15.140  19.158  0.00  0.00    +0.000 A 
ATOM     32  C   UNL     1       5.865  15.104  20.417  0.00  0.00    +0.000 A 
ATOM     33  C   UNL     1       4.488  14.893  20.531  0.00  0.00    +0.000 A 
ENDBRANCH  25  28
ENDBRANCH   3  25
TORSDOF 6
ENDMDL
MODEL 5
REMARK VINA RESULT:      -6.6      0.674      1.431
REMARK  Name = 
REMARK  6 active torsions:
REMARK  status: ('A' for Active; 'I' for Inactive)
REMARK    1  A    between atoms: C_2  and  C_3
REMARK    2  A    between atoms: C_3  and  N_4
REMARK    3  A    between atoms: C_5  and  C_7
REMARK    4  A    between atoms: C_9  and  S_10
REMARK    5  A    between atoms: S_10  and  C_13
REMARK    6  A    between atoms: C_20  and  C_21
REMARK                            x       y       z     vdW  Elec       q    Type
REMARK                         _______ _______ _______ _____ _____    ______ ____
ROOT
ATOM      1  C   UNL     1      -0.377  11.861  18.785  0.00  0.00    +0.000 C 
ATOM      2  C   UNL     1      -0.040  13.125  17.994  0.00  0.00    +0.000 C 
ATOM      3  C   UNL     1       1.412  13.456  18.351  0.00  0.00    +0.000 C 
ATOM      4  C   UNL     1       2.043  12.136  18.793  0.00  0.00    +0.000 C 
ATOM      5  C   UNL     1       0.938  11.072  18.723  0.00  0.00    +0.000 C 
ENDROOT
BRANCH   5   6
ATOM      6  C   UNL     1       1.042  10.046  19.844  0.00  0.00    +0.000 C 
ATOM      7  O   UNL     1       0.811  10.365  21.011  0.00  0.00    +0.000 OA
ATOM      8  N   UNL     1       1.411   8.759  19.486  0.00  0.00    +0.000 N 
ATOM      9  C   UNL     1       1.443   7.710  20.520  0.00  0.00    +0.000 C 
ATOM     10  C   UNL     1       2.395   6.554  20.141  0.00  0.00    +0.000 C 
ATOM     11  C   UNL     1       1.773   5.547  19.158  0.00  0.00    +0.000 C 
ATOM     12  C   UNL     1       2.396   5.907  17.817  0.00  0.00    +0.000 C 
ATOM     13  C   UNL     1       2.901   7.309  18.078  0.00  0.00    +0.000 C 
ATOM     14  C   UNL     1       1.726   8.318  18.121  0.00  0.00    +0.000 C 
ATOM     15  O   UNL     1       3.484   7.145  19.390  0.00  0.00    +0.000 OA
ENDBRANCH   5   6
BRANCH   1  17
ATOM     16  N   UNL     1      -2.398  11.835  17.401  0.00  0.00    +0.000 N 
ATOM     17  C   UNL     1      -1.481  11.071  18.091  0.00  0.00    +0.000 C 
ATOM     18  O   UNL     1      -1.516   9.843  18.116  0.00  0.00    +0.000 OA
ATOM     19  H   UNL     1      -2.441  12.830  17.597  0.00  0.00    +0.000 HD
BRANCH  16  20
ATOM     20  C   UNL     1      -3.560  11.232  16.780  0.00  0.00    +0.000 C 
ATOM     21  C   UNL     1      -4.931  11.855  16.990  0.00  0.00    +0.000 C 
ATOM     22  C   UNL     1      -4.589  10.581  17.693  0.00  0.00    +0.000 C 
BRANCH  20  24
ATOM     23  N   UNL     1      -3.146  10.096  14.458  0.00  0.00    +0.000 NA
ATOM     24  C   UNL     1      -3.314  10.593  15.497  0.00  0.00    +0.000 C 
ENDBRANCH  20  24
ENDBRANCH  16  20
ENDBRANCH   1  17
BRANCH   3  25
ATOM     25  S   UNL     1       1.537  14.735  19.593  0.00  0.00    +0.000 S 
ATOM     26  O   UNL     1       0.632  14.400  20.677  0.00  0.00    +0.000 OA
ATOM     27  O   UNL     1       2.942  14.978  19.857  0.00  0.00    +0.000 OA
BRANCH  25  28
ATOM     28  C   UNL     1       0.856  16.183  18.805  0.00  0.00    +0.000 A 
ATOM     29  C   UNL     1       1.694  16.989  18.030  0.00  0.00    +0.000 A 
ATOM     30  C   UNL     1       1.169  18.116  17.395  0.00  0.00    +0.000 A 
ATOM     31  C   UNL     1      -0.186  18.422  17.518  0.00  0.00    +0.000 A 
ATOM     32  C   UNL     1      -1.022  17.606  18.285  0.00  0.00    +0.000 A 
ATOM     33  C   UNL     1      -0.504  16.482  18.934  0.00  0.00    +0.000 A 
ENDBRANCH  25  28
ENDBRANCH   3  25
TORSDOF 6
ENDMDL
MODEL 6
REMARK VINA RESULT:      -6.6      3.550      8.190
REMARK  Name = 
REMARK  6 active torsions:
REMARK  status: ('A' for Active; 'I' for Inactive)
REMARK    1  A    between atoms: C_2  and  C_3
REMARK    2  A    between atoms: C_3  and  N_4
REMARK    3  A    between atoms: C_5  and  C_7
REMARK    4  A    between atoms: C_9  and  S_10
REMARK    5  A    between atoms: S_10  and  C_13
REMARK    6  A    between atoms: C_20  and  C_21
REMARK                            x       y       z     vdW  Elec       q    Type
REMARK                         _______ _______ _______ _____ _____    ______ ____
ROOT
ATOM      1  C   UNL     1       0.147  12.412  21.556  0.00  0.00    +0.000 C 
ATOM      2  C   UNL     1       0.994  11.614  20.564  0.00  0.00    +0.000 C 
ATOM      3  C   UNL     1       0.185  10.352  20.257  0.00  0.00    +0.000 C 
ATOM      4  C   UNL     1      -1.273  10.713  20.541  0.00  0.00    +0.000 C 
ATOM      5  C   UNL     1      -1.279  12.164  21.046  0.00  0.00    +0.000 C 
ENDROOT
BRANCH   5   6
ATOM      6  C   UNL     1      -2.323  12.401  22.130  0.00  0.00    +0.000 C 
ATOM      7  O   UNL     1      -2.038  12.255  23.319  0.00  0.00    +0.000 OA
ATOM      8  N   UNL     1      -3.589  12.777  21.711  0.00  0.00    +0.000 N 
ATOM      9  C   UNL     1      -4.610  13.102  22.722  0.00  0.00    +0.000 C 
ATOM     10  C   UNL     1      -6.043  12.918  22.177  0.00  0.00    +0.000 C 
ATOM     11  C   UNL     1      -6.530  14.102  21.325  0.00  0.00    +0.000 C 
ATOM     12  C   UNL     1      -6.399  13.607  19.892  0.00  0.00    +0.000 C 
ATOM     13  C   UNL     1      -5.447  12.442  20.055  0.00  0.00    +0.000 C 
ATOM     14  C   UNL     1      -4.003  12.943  20.312  0.00  0.00    +0.000 C 
ATOM     15  O   UNL     1      -5.989  11.815  21.238  0.00  0.00    +0.000 OA
ENDBRANCH   5   6
BRANCH   1  17
ATOM     16  N   UNL     1       0.163  14.490  20.259  0.00  0.00    +0.000 N 
ATOM     17  C   UNL     1       0.471  13.899  21.465  0.00  0.00    +0.000 C 
ATOM     18  O   UNL     1       0.932  14.523  22.418  0.00  0.00    +0.000 OA
ATOM     19  H   UNL     1      -0.006  13.890  19.457  0.00  0.00    +0.000 HD
BRANCH  16  20
ATOM     20  C   UNL     1       0.510  15.871  19.990  0.00  0.00    +0.000 C 
ATOM     21  C   UNL     1      -0.336  16.987  20.582  0.00  0.00    +0.000 C 
ATOM     22  C   UNL     1      -0.442  16.681  19.122  0.00  0.00    +0.000 C 
BRANCH  20  24
ATOM     23  N   UNL     1       3.075  16.331  19.744  0.00  0.00    +0.000 NA
ATOM     24  C   UNL     1       1.932  16.131  19.835  0.00  0.00    +0.000 C 
ENDBRANCH  20  24
ENDBRANCH  16  20
ENDBRANCH   1  17
BRANCH   3  25
ATOM     25  S   UNL     1       0.744   8.935  21.191  0.00  0.00    +0.000 S 
ATOM     26  O   UNL     1       1.697   9.398  22.183  0.00  0.00    +0.000 OA
ATOM     27  O   UNL     1      -0.418   8.165  21.592  0.00  0.00    +0.000 OA
BRANCH  25  28
ATOM     28  C   UNL     1       1.676   7.972  20.016  0.00  0.00    +0.000 A 
ATOM     29  C   UNL     1       2.014   8.545  18.786  0.00  0.00    +0.000 A 
ATOM     30  C   UNL     1       2.758   7.807  17.864  0.00  0.00    +0.000 A 
ATOM     31  C   UNL     1       3.177   6.514  18.178  0.00  0.00    +0.000 A 
ATOM     32  C   UNL     1       2.846   5.950  19.413  0.00  0.00    +0.000 A 
ATOM     33  C   UNL     1       2.093   6.677  20.338  0.00  0.00    +0.000 A 
ENDBRANCH  25  28
ENDBRANCH   3  25
TORSDOF 6
ENDMDL
MODEL 7
REMARK VINA RESULT:      -6.5      3.443      8.000
REMARK  Name = 
REMARK  6 active torsions:
REMARK  status: ('A' for Active; 'I' for Inactive)
REMARK    1  A    between atoms: C_2  and  C_3
REMARK    2  A    between atoms: C_3  and  N_4
REMARK    3  A    between atoms: C_5  and  C_7
REMARK    4  A    between atoms: C_9  and  S_10
REMARK    5  A    between atoms: S_10  and  C_13
REMARK    6  A    between atoms: C_20  and  C_21
REMARK                            x       y       z     vdW  Elec       q    Type
REMARK                         _______ _______ _______ _____ _____    ______ ____
ROOT
ATOM      1  C   UNL     1      -0.742  13.299  21.087  0.00  0.00    +0.000 C 
ATOM      2  C   UNL     1       0.242  12.576  20.167  0.00  0.00    +0.000 C 
ATOM      3  C   UNL     1      -0.344  11.178  19.959  0.00  0.00    +0.000 C 
ATOM      4  C   UNL     1      -1.846  11.315  20.206  0.00  0.00    +0.000 C 
ATOM      5  C   UNL     1      -2.099  12.780  20.591  0.00  0.00    +0.000 C 
ENDROOT
BRANCH   5   6
ATOM      6  C   UNL     1      -3.187  12.928  21.648  0.00  0.00    +0.000 C 
ATOM      7  O   UNL     1      -2.894  13.085  22.834  0.00  0.00    +0.000 OA
ATOM      8  N   UNL     1      -4.500  12.868  21.209  0.00  0.00    +0.000 N 
ATOM      9  C   UNL     1      -5.588  13.091  22.177  0.00  0.00    +0.000 C 
ATOM     10  C   UNL     1      -6.909  12.434  21.722  0.00  0.00    +0.000 C 
ATOM     11  C   UNL     1      -7.681  13.267  20.685  0.00  0.00    +0.000 C 
ATOM     12  C   UNL     1      -7.397  12.567  19.363  0.00  0.00    +0.000 C 
ATOM     13  C   UNL     1      -6.171  11.749  19.705  0.00  0.00    +0.000 C 
ATOM     14  C   UNL     1      -4.919  12.656  19.818  0.00  0.00    +0.000 C 
ATOM     15  O   UNL     1      -6.546  11.231  21.001  0.00  0.00    +0.000 OA
ENDBRANCH   5   6
BRANCH   1  17
ATOM     16  N   UNL     1      -0.314  15.202  19.604  0.00  0.00    +0.000 N 
ATOM     17  C   UNL     1      -0.664  14.808  20.877  0.00  0.00    +0.000 C 
ATOM     18  O   UNL     1      -0.938  15.603  21.773  0.00  0.00    +0.000 OA
ATOM     19  H   UNL     1       0.104  14.515  18.984  0.00  0.00    +0.000 HD
BRANCH  16  20
ATOM     20  C   UNL     1      -0.098  16.598  19.284  0.00  0.00    +0.000 C 
ATOM     21  C   UNL     1      -1.293  17.525  19.122  0.00  0.00    +0.000 C 
ATOM     22  C   UNL     1      -0.538  17.083  17.910  0.00  0.00    +0.000 C 
BRANCH  20  24
ATOM     23  N   UNL     1       2.073  17.671  20.277  0.00  0.00    +0.000 NA
ATOM     24  C   UNL     1       1.117  17.178  19.834  0.00  0.00    +0.000 C 
ENDBRANCH  20  24
ENDBRANCH  16  20
ENDBRANCH   1  17
BRANCH   3  25
ATOM     25  S   UNL     1       0.422   9.950  21.007  0.00  0.00    +0.000 S 
ATOM     26  O   UNL     1       1.408  10.620  21.836  0.00  0.00    +0.000 OA
ATOM     27  O   UNL     1      -0.625   9.150  21.614  0.00  0.00    +0.000 OA
BRANCH  25  28
ATOM     28  C   UNL     1       1.337   8.916  19.880  0.00  0.00    +0.000 A 
ATOM     29  C   UNL     1       1.863   7.707  20.344  0.00  0.00    +0.000 A 
ATOM     30  C   UNL     1       2.568   6.881  19.467  0.00  0.00    +0.000 A 
ATOM     31  C   UNL     1       2.727   7.253  18.132  0.00  0.00    +0.000 A 
ATOM     32  C   UNL     1       2.190   8.457  17.670  0.00  0.00    +0.000 A 
ATOM     33  C   UNL     1       1.493   9.296  18.543  0.00  0.00    +0.000 A 
ENDBRANCH  25  28
ENDBRANCH   3  25
TORSDOF 6
ENDMDL
MODEL 8
REMARK VINA RESULT:      -6.5      0.894      1.418
REMARK  Name = 
REMARK  6 active torsions:
REMARK  status: ('A' for Active; 'I' for Inactive)
REMARK    1  A    between atoms: C_2  and  C_3
REMARK    2  A    between atoms: C_3  and  N_4
REMARK    3  A    between atoms: C_5  and  C_7
REMARK    4  A    between atoms: C_9  and  S_10
REMARK    5  A    between atoms: S_10  and  C_13
REMARK    6  A    between atoms: C_20  and  C_21
REMARK                            x       y       z     vdW  Elec       q    Type
REMARK                         _______ _______ _______ _____ _____    ______ ____
ROOT
ATOM      1  C   UNL     1      -0.449  11.921  18.869  0.00  0.00    +0.000 C 
ATOM      2  C   UNL     1      -0.116  13.231  18.155  0.00  0.00    +0.000 C 
ATOM      3  C   UNL     1       1.316  13.574  18.576  0.00  0.00    +0.000 C 
ATOM      4  C   UNL     1       1.962  12.246  18.970  0.00  0.00    +0.000 C 
ATOM      5  C   UNL     1       0.885  11.164  18.809  0.00  0.00    +0.000 C 
ENDROOT
BRANCH   5   6
ATOM      6  C   UNL     1       0.977  10.084  19.879  0.00  0.00    +0.000 C 
ATOM      7  O   UNL     1       0.704  10.337  21.053  0.00  0.00    +0.000 OA
ATOM      8  N   UNL     1       1.385   8.825  19.467  0.00  0.00    +0.000 N 
ATOM      9  C   UNL     1       1.408   7.725  20.447  0.00  0.00    +0.000 C 
ATOM     10  C   UNL     1       2.396   6.610  20.040  0.00  0.00    +0.000 C 
ATOM     11  C   UNL     1       1.827   5.642  18.987  0.00  0.00    +0.000 C 
ATOM     12  C   UNL     1       2.483   6.084  17.687  0.00  0.00    +0.000 C 
ATOM     13  C   UNL     1       2.949   7.481  18.035  0.00  0.00    +0.000 C 
ATOM     14  C   UNL     1       1.751   8.462  18.093  0.00  0.00    +0.000 C 
ATOM     15  O   UNL     1       3.494   7.261  19.355  0.00  0.00    +0.000 OA
ENDBRANCH   5   6
BRANCH   1  17
ATOM     16  N   UNL     1      -2.527  11.914  17.571  0.00  0.00    +0.000 N 
ATOM     17  C   UNL     1      -1.512  11.145  18.099  0.00  0.00    +0.000 C 
ATOM     18  O   UNL     1      -1.436   9.930  17.931  0.00  0.00    +0.000 OA
ATOM     19  H   UNL     1      -2.648  12.859  17.923  0.00  0.00    +0.000 HD
BRANCH  16  20
ATOM     20  C   UNL     1      -3.661  11.306  16.906  0.00  0.00    +0.000 C 
ATOM     21  C   UNL     1      -5.043  11.920  17.065  0.00  0.00    +0.000 C 
ATOM     22  C   UNL     1      -4.719  10.646  17.778  0.00  0.00    +0.000 C 
BRANCH  20  24
ATOM     23  N   UNL     1      -3.115  10.195  14.599  0.00  0.00    +0.000 NA
ATOM     24  C   UNL     1      -3.363  10.672  15.632  0.00  0.00    +0.000 C 
ENDBRANCH  20  24
ENDBRANCH  16  20
ENDBRANCH   1  17
BRANCH   3  25
ATOM     25  S   UNL     1       1.372  14.790  19.885  0.00  0.00    +0.000 S 
ATOM     26  O   UNL     1       0.944  14.147  21.114  0.00  0.00    +0.000 OA
ATOM     27  O   UNL     1       2.651  15.471  19.820  0.00  0.00    +0.000 OA
BRANCH  25  28
ATOM     28  C   UNL     1       0.093  15.956  19.460  0.00  0.00    +0.000 A 
ATOM     29  C   UNL     1      -1.034  16.054  20.281  0.00  0.00    +0.000 A 
ATOM     30  C   UNL     1      -2.035  16.975  19.968  0.00  0.00    +0.000 A 
ATOM     31  C   UNL     1      -1.901  17.803  18.853  0.00  0.00    +0.000 A 
ATOM     32  C   UNL     1      -0.767  17.709  18.042  0.00  0.00    +0.000 A 
ATOM     33  C   UNL     1       0.236  16.783  18.341  0.00  0.00    +0.000 A 
ENDBRANCH  25  28
ENDBRANCH   3  25
TORSDOF 6
ENDMDL
MODEL 9
REMARK VINA RESULT:      -6.5      1.563      2.207
REMARK  Name = 
REMARK  6 active torsions:
REMARK  status: ('A' for Active; 'I' for Inactive)
REMARK    1  A    between atoms: C_2  and  C_3
REMARK    2  A    between atoms: C_3  and  N_4
REMARK    3  A    between atoms: C_5  and  C_7
REMARK    4  A    between atoms: C_9  and  S_10
REMARK    5  A    between atoms: S_10  and  C_13
REMARK    6  A    between atoms: C_20  and  C_21
REMARK                            x       y       z     vdW  Elec       q    Type
REMARK                         _______ _______ _______ _____ _____    ______ ____
ROOT
ATOM      1  C   UNL     1      -0.354  11.813  18.891  0.00  0.00    +0.000 C 
ATOM      2  C   UNL     1      -0.032  13.074  18.089  0.00  0.00    +0.000 C 
ATOM      3  C   UNL     1       1.444  13.368  18.362  0.00  0.00    +0.000 C 
ATOM      4  C   UNL     1       2.068  12.030  18.761  0.00  0.00    +0.000 C 
ATOM      5  C   UNL     1       0.935  10.993  18.749  0.00  0.00    +0.000 C 
ENDROOT
BRANCH   5   6
ATOM      6  C   UNL     1       1.079   9.958  19.857  0.00  0.00    +0.000 C 
ATOM      7  O   UNL     1       0.871  10.263  21.033  0.00  0.00    +0.000 OA
ATOM      8  N   UNL     1       1.457   8.680  19.477  0.00  0.00    +0.000 N 
ATOM      9  C   UNL     1       1.526   7.622  20.500  0.00  0.00    +0.000 C 
ATOM     10  C   UNL     1       2.485   6.483  20.088  0.00  0.00    +0.000 C 
ATOM     11  C   UNL     1       1.855   5.477  19.110  0.00  0.00    +0.000 C 
ATOM     12  C   UNL     1       2.442   5.858  17.758  0.00  0.00    +0.000 C 
ATOM     13  C   UNL     1       2.934   7.264  18.021  0.00  0.00    +0.000 C 
ATOM     14  C   UNL     1       1.746   8.257  18.102  0.00  0.00    +0.000 C 
ATOM     15  O   UNL     1       3.548   7.096  19.319  0.00  0.00    +0.000 OA
ENDBRANCH   5   6
BRANCH   1  17
ATOM     16  N   UNL     1      -1.924  11.532  17.031  0.00  0.00    +0.000 N 
ATOM     17  C   UNL     1      -1.516  11.055  18.258  0.00  0.00    +0.000 C 
ATOM     18  O   UNL     1      -2.014  10.066  18.791  0.00  0.00    +0.000 OA
ATOM     19  H   UNL     1      -1.626  12.463  16.753  0.00  0.00    +0.000 HD
BRANCH  16  20
ATOM     20  C   UNL     1      -3.081  10.979  16.358  0.00  0.00    +0.000 C 
ATOM     21  C   UNL     1      -3.060   9.531  15.897  0.00  0.00    +0.000 C 
ATOM     22  C   UNL     1      -2.938  10.625  14.885  0.00  0.00    +0.000 C 
BRANCH  20  24
ATOM     23  N   UNL     1      -5.402  11.926  17.112  0.00  0.00    +0.000 NA
ATOM     24  C   UNL     1      -4.362  11.517  16.789  0.00  0.00    +0.000 C 
ENDBRANCH  20  24
ENDBRANCH  16  20
ENDBRANCH   1  17
BRANCH   3  25
ATOM     25  S   UNL     1       1.672  14.636  19.601  0.00  0.00    +0.000 S 
ATOM     26  O   UNL     1       2.819  14.270  20.413  0.00  0.00    +0.000 OA
ATOM     27  O   UNL     1       1.619  15.929  18.946  0.00  0.00    +0.000 OA
BRANCH  25  28
ATOM     28  C   UNL     1       0.244  14.483  20.657  0.00  0.00    +0.000 A 
ATOM     29  C   UNL     1      -0.908  15.212  20.349  0.00  0.00    +0.000 A 
ATOM     30  C   UNL     1      -2.038  15.088  21.158  0.00  0.00    +0.000 A 
ATOM     31  C   UNL     1      -2.021  14.227  22.256  0.00  0.00    +0.000 A 
ATOM     32  C   UNL     1      -0.871  13.492  22.554  0.00  0.00    +0.000 A 
ATOM     33  C   UNL     1       0.269  13.618  21.755  0.00  0.00    +0.000 A 
ENDBRANCH  25  28
ENDBRANCH   3  25
TORSDOF 6
ENDMDL
