MODEL 1
REMARK VINA RESULT:      -6.0      0.000      0.000
REMARK  Name = 
REMARK  5 active torsions:
REMARK  status: ('A' for Active; 'I' for Inactive)
REMARK    1  A    between atoms: C_8  and  O_10
REMARK    2  A    between atoms: O_10  and  C_11
REMARK    3  A    between atoms: C_16  and  C_17
REMARK    4  A    between atoms: C_19  and  C_20
REMARK    5  A    between atoms: N_23  and  C_24
REMARK                            x       y       z     vdW  Elec       q    Type
REMARK                         _______ _______ _______ _____ _____    ______ ____
ROOT
ATOM      1  C   UNL     1      -0.905  12.797  22.848  0.00  0.00    +0.000 C 
ATOM      2  C   UNL     1      -1.889  12.142  22.138  0.00  0.00    +0.000 C 
ATOM      3  C   UNL     1      -3.140  12.712  22.860  0.00  0.00    +0.000 C 
ATOM      4  C   UNL     1      -3.641  13.997  22.221  0.00  0.00    +0.000 C 
ATOM      5  C   UNL     1      -3.337  14.078  20.759  0.00  0.00    +0.000 C 
ATOM      6  C   UNL     1      -2.529  12.930  20.126  0.00  0.00    +0.000 C 
ATOM      7  N   UNL     1      -3.725  12.401  19.080  0.00  0.00    +0.000 N 
ATOM      8  C   UNL     1      -5.060  12.049  19.476  0.00  0.00    +0.000 C 
ATOM      9  O   UNL     1      -5.553  12.179  20.566  0.00  0.00    +0.000 OA
ATOM     10  C   UNL     1      -3.322  11.318  18.300  0.00  0.00    +0.000 C 
ATOM     11  C   UNL     1      -1.958  11.545  18.602  0.00  0.00    +0.000 C 
ATOM     12  C   UNL     1      -2.016  11.504  20.412  0.00  0.00    +0.000 C 
ATOM     13  C   UNL     1      -0.527  11.217  19.822  0.00  0.00    +0.000 A 
ATOM     14  C   UNL     1       0.076  10.024  19.329  0.00  0.00    +0.000 A 
ATOM     15  C   UNL     1       0.595   9.856  17.910  0.00  0.00    +0.000 C 
ATOM     16  C   UNL     1       0.670   9.296  20.278  0.00  0.00    +0.000 A 
ATOM     17  C   UNL     1       0.948  10.034  21.401  0.00  0.00    +0.000 A 
ATOM     18  C   UNL     1       0.941   9.161  22.627  0.00  0.00    +0.000 C 
ATOM     19  C   UNL     1       0.896  11.549  21.309  0.00  0.00    +0.000 A 
ATOM     20  C   UNL     1       0.178  12.240  20.252  0.00  0.00    +0.000 A 
ATOM     21  N   UNL     1      -0.865  13.439  20.138  0.00  0.00    +0.000 N 
ATOM     22  C   UNL     1      -0.427  14.422  19.167  0.00  0.00    +0.000 C 
ENDROOT
BRANCH   8  23
ATOM     23  O   UNL     1      -5.700  11.386  18.439  0.00  0.00    +0.000 OA
ATOM     24  C   UNL     1      -6.890  10.608  18.659  0.00  0.00    +0.000 C 
ENDBRANCH   8  23
TORSDOF 1
ENDMDL
MODEL 2
REMARK VINA RESULT:      -5.9      9.252     11.057
REMARK  Name = 
REMARK  5 active torsions:
REMARK  status: ('A' for Active; 'I' for Inactive)
REMARK    1  A    between atoms: C_8  and  O_10
REMARK    2  A    between atoms: O_10  and  C_11
REMARK    3  A    between atoms: C_16  and  C_17
REMARK    4  A    between atoms: C_19  and  C_20
REMARK    5  A    between atoms: N_23  and  C_24
REMARK                            x       y       z     vdW  Elec       q    Type
REMARK                         _______ _______ _______ _____ _____    ______ ____
ROOT
ATOM      1  C   UNL     1       9.133  12.698  22.310  0.00  0.00    +0.000 C 
ATOM      2  C   UNL     1       8.226  13.258  21.435  0.00  0.00    +0.000 C 
ATOM      3  C   UNL     1       7.119  13.661  22.447  0.00  0.00    +0.000 C 
ATOM      4  C   UNL     1       7.327  15.058  23.006  0.00  0.00    +0.000 C 
ATOM      5  C   UNL     1       8.045  15.965  22.058  0.00  0.00    +0.000 C 
ATOM      6  C   UNL     1       8.523  15.374  20.718  0.00  0.00    +0.000 C 
ATOM      7  N   UNL     1       7.570  16.332  19.729  0.00  0.00    +0.000 N 
ATOM      8  C   UNL     1       6.146  16.469  19.851  0.00  0.00    +0.000 C 
ATOM      9  O   UNL     1       5.444  16.024  20.721  0.00  0.00    +0.000 OA
ATOM     10  C   UNL     1       7.756  16.063  18.374  0.00  0.00    +0.000 C 
ATOM     11  C   UNL     1       8.961  15.364  18.627  0.00  0.00    +0.000 C 
ATOM     12  C   UNL     1       8.375  14.131  19.817  0.00  0.00    +0.000 C 
ATOM     13  C   UNL     1       9.759  13.692  19.082  0.00  0.00    +0.000 A 
ATOM     14  C   UNL     1       9.999  13.073  17.821  0.00  0.00    +0.000 A 
ATOM     15  C   UNL     1      10.804  13.709  16.700  0.00  0.00    +0.000 C 
ATOM     16  C   UNL     1       9.987  11.739  17.872  0.00  0.00    +0.000 A 
ATOM     17  C   UNL     1      10.181  11.266  19.146  0.00  0.00    +0.000 A 
ATOM     18  C   UNL     1       9.505   9.933  19.327  0.00  0.00    +0.000 C 
ATOM     19  C   UNL     1      10.715  12.216  20.203  0.00  0.00    +0.000 A 
ATOM     20  C   UNL     1      10.634  13.660  20.063  0.00  0.00    +0.000 A 
ATOM     21  N   UNL     1      10.180  14.897  20.958  0.00  0.00    +0.000 N 
ATOM     22  C   UNL     1      11.204  15.921  20.992  0.00  0.00    +0.000 C 
ENDROOT
BRANCH   8  23
ATOM     23  O   UNL     1       5.634  17.091  18.721  0.00  0.00    +0.000 OA
ATOM     24  C   UNL     1       4.336  16.757  18.196  0.00  0.00    +0.000 C 
ENDBRANCH   8  23
TORSDOF 1
ENDMDL
MODEL 3
REMARK VINA RESULT:      -5.6      1.141      1.219
REMARK  Name = 
REMARK  5 active torsions:
REMARK  status: ('A' for Active; 'I' for Inactive)
REMARK    1  A    between atoms: C_8  and  O_10
REMARK    2  A    between atoms: O_10  and  C_11
REMARK    3  A    between atoms: C_16  and  C_17
REMARK    4  A    between atoms: C_19  and  C_20
REMARK    5  A    between atoms: N_23  and  C_24
REMARK                            x       y       z     vdW  Elec       q    Type
REMARK                         _______ _______ _______ _____ _____    ______ ____
ROOT
ATOM      1  C   UNL     1      -1.601  13.165  23.477  0.00  0.00    +0.000 C 
ATOM      2  C   UNL     1      -2.630  12.571  22.779  0.00  0.00    +0.000 C 
ATOM      3  C   UNL     1      -3.836  13.155  23.564  0.00  0.00    +0.000 C 
ATOM      4  C   UNL     1      -4.314  14.478  22.991  0.00  0.00    +0.000 C 
ATOM      5  C   UNL     1      -4.056  14.605  21.523  0.00  0.00    +0.000 C 
ATOM      6  C   UNL     1      -3.311  13.455  20.820  0.00  0.00    +0.000 C 
ATOM      7  N   UNL     1      -4.559  13.006  19.798  0.00  0.00    +0.000 N 
ATOM      8  C   UNL     1      -5.890  12.684  20.228  0.00  0.00    +0.000 C 
ATOM      9  O   UNL     1      -6.342  12.789  21.338  0.00  0.00    +0.000 OA
ATOM     10  C   UNL     1      -4.219  11.940  18.966  0.00  0.00    +0.000 C 
ATOM     11  C   UNL     1      -2.839  12.111  19.228  0.00  0.00    +0.000 C 
ATOM     12  C   UNL     1      -2.838  12.003  21.036  0.00  0.00    +0.000 C 
ATOM     13  C   UNL     1      -1.380  11.689  20.384  0.00  0.00    +0.000 A 
ATOM     14  C   UNL     1      -0.835  10.496  19.827  0.00  0.00    +0.000 A 
ATOM     15  C   UNL     1      -0.371  10.364  18.386  0.00  0.00    +0.000 C 
ATOM     16  C   UNL     1      -0.236   9.713  20.727  0.00  0.00    +0.000 A 
ATOM     17  C   UNL     1       0.105  10.399  21.866  0.00  0.00    +0.000 A 
ATOM     18  C   UNL     1       0.109   9.481  23.059  0.00  0.00    +0.000 C 
ATOM     19  C   UNL     1       0.103  11.918  21.832  0.00  0.00    +0.000 A 
ATOM     20  C   UNL     1      -0.626  12.671  20.826  0.00  0.00    +0.000 A 
ATOM     21  N   UNL     1      -1.630  13.907  20.793  0.00  0.00    +0.000 N 
ATOM     22  C   UNL     1      -1.192  14.911  19.844  0.00  0.00    +0.000 C 
ENDROOT
BRANCH   8  23
ATOM     23  O   UNL     1      -6.588  12.082  19.190  0.00  0.00    +0.000 OA
ATOM     24  C   UNL     1      -7.603  12.786  18.452  0.00  0.00    +0.000 C 
ENDBRANCH   8  23
TORSDOF 1
ENDMDL
MODEL 4
REMARK VINA RESULT:      -5.5      9.800     11.652
REMARK  Name = 
REMARK  5 active torsions:
REMARK  status: ('A' for Active; 'I' for Inactive)
REMARK    1  A    between atoms: C_8  and  O_10
REMARK    2  A    between atoms: O_10  and  C_11
REMARK    3  A    between atoms: C_16  and  C_17
REMARK    4  A    between atoms: C_19  and  C_20
REMARK    5  A    between atoms: N_23  and  C_24
REMARK                            x       y       z     vdW  Elec       q    Type
REMARK                         _______ _______ _______ _____ _____    ______ ____
ROOT
ATOM      1  C   UNL     1      10.074  12.736  21.522  0.00  0.00    +0.000 C 
ATOM      2  C   UNL     1       9.019  13.289  20.828  0.00  0.00    +0.000 C 
ATOM      3  C   UNL     1       7.877  13.004  21.840  0.00  0.00    +0.000 C 
ATOM      4  C   UNL     1       7.703  14.128  22.848  0.00  0.00    +0.000 C 
ATOM      5  C   UNL     1       8.108  15.463  22.308  0.00  0.00    +0.000 C 
ATOM      6  C   UNL     1       8.688  15.517  20.883  0.00  0.00    +0.000 C 
ATOM      7  N   UNL     1       7.474  16.455  20.212  0.00  0.00    +0.000 N 
ATOM      8  C   UNL     1       6.073  16.147  20.278  0.00  0.00    +0.000 C 
ATOM      9  O   UNL     1       5.552  15.258  20.899  0.00  0.00    +0.000 OA
ATOM     10  C   UNL     1       7.684  16.724  18.860  0.00  0.00    +0.000 C 
ATOM     11  C   UNL     1       9.044  16.340  18.943  0.00  0.00    +0.000 C 
ATOM     12  C   UNL     1       8.866  14.665  19.610  0.00  0.00    +0.000 C 
ATOM     13  C   UNL     1      10.292  14.899  18.864  0.00  0.00    +0.000 A 
ATOM     14  C   UNL     1      10.656  14.836  17.487  0.00  0.00    +0.000 A 
ATOM     15  C   UNL     1      11.214  16.011  16.700  0.00  0.00    +0.000 C 
ATOM     16  C   UNL     1      11.019  13.616  17.086  0.00  0.00    +0.000 A 
ATOM     17  C   UNL     1      11.379  12.811  18.138  0.00  0.00    +0.000 A 
ATOM     18  C   UNL     1      11.109  11.365  17.818  0.00  0.00    +0.000 C 
ATOM     19  C   UNL     1      11.659  13.452  19.486  0.00  0.00    +0.000 A 
ATOM     20  C   UNL     1      11.172  14.776  19.833  0.00  0.00    +0.000 A 
ATOM     21  N   UNL     1      10.419  15.461  21.058  0.00  0.00    +0.000 N 
ATOM     22  C   UNL     1      11.117  16.651  21.501  0.00  0.00    +0.000 C 
ENDROOT
BRANCH   8  23
ATOM     23  O   UNL     1       5.372  16.950  19.390  0.00  0.00    +0.000 OA
ATOM     24  C   UNL     1       3.968  16.754  19.139  0.00  0.00    +0.000 C 
ENDBRANCH   8  23
TORSDOF 1
ENDMDL
MODEL 5
REMARK VINA RESULT:      -5.4      8.901     10.781
REMARK  Name = 
REMARK  5 active torsions:
REMARK  status: ('A' for Active; 'I' for Inactive)
REMARK    1  A    between atoms: C_8  and  O_10
REMARK    2  A    between atoms: O_10  and  C_11
REMARK    3  A    between atoms: C_16  and  C_17
REMARK    4  A    between atoms: C_19  and  C_20
REMARK    5  A    between atoms: N_23  and  C_24
REMARK                            x       y       z     vdW  Elec       q    Type
REMARK                         _______ _______ _______ _____ _____    ______ ____
ROOT
ATOM      1  C   UNL     1       8.893  12.115  22.745  0.00  0.00    +0.000 C 
ATOM      2  C   UNL     1       7.948  12.794  22.005  0.00  0.00    +0.000 C 
ATOM      3  C   UNL     1       6.841  12.938  23.084  0.00  0.00    +0.000 C 
ATOM      4  C   UNL     1       6.995  14.205  23.908  0.00  0.00    +0.000 C 
ATOM      5  C   UNL     1       7.658  15.313  23.153  0.00  0.00    +0.000 C 
ATOM      6  C   UNL     1       8.140  15.022  21.719  0.00  0.00    +0.000 C 
ATOM      7  N   UNL     1       7.130  16.111  20.947  0.00  0.00    +0.000 N 
ATOM      8  C   UNL     1       5.703  16.155  21.103  0.00  0.00    +0.000 C 
ATOM      9  O   UNL     1       5.035  15.514  21.872  0.00  0.00    +0.000 OA
ATOM     10  C   UNL     1       7.306  16.124  19.563  0.00  0.00    +0.000 C 
ATOM     11  C   UNL     1       8.544  15.446  19.665  0.00  0.00    +0.000 C 
ATOM     12  C   UNL     1       8.032  13.976  20.591  0.00  0.00    +0.000 C 
ATOM     13  C   UNL     1       9.422  13.755  19.774  0.00  0.00    +0.000 A 
ATOM     14  C   UNL     1       9.669  13.409  18.414  0.00  0.00    +0.000 A 
ATOM     15  C   UNL     1      10.427  14.291  17.435  0.00  0.00    +0.000 C 
ATOM     16  C   UNL     1       9.717  12.092  18.199  0.00  0.00    +0.000 A 
ATOM     17  C   UNL     1       9.952  11.387  19.353  0.00  0.00    +0.000 A 
ATOM     18  C   UNL     1       9.338  10.014  19.272  0.00  0.00    +0.000 C 
ATOM     19  C   UNL     1      10.460  12.133  20.574  0.00  0.00    +0.000 A 
ATOM     20  C   UNL     1      10.313  13.570  20.723  0.00  0.00    +0.000 A 
ATOM     21  N   UNL     1       9.819  14.584  21.848  0.00  0.00    +0.000 N 
ATOM     22  C   UNL     1      10.798  15.628  22.077  0.00  0.00    +0.000 C 
ENDROOT
BRANCH   8  23
ATOM     23  O   UNL     1       5.146  16.964  20.122  0.00  0.00    +0.000 OA
ATOM     24  C   UNL     1       3.960  17.741  20.366  0.00  0.00    +0.000 C 
ENDBRANCH   8  23
TORSDOF 1
ENDMDL
MODEL 6
REMARK VINA RESULT:      -5.4      8.185     10.135
REMARK  Name = 
REMARK  5 active torsions:
REMARK  status: ('A' for Active; 'I' for Inactive)
REMARK    1  A    between atoms: C_8  and  O_10
REMARK    2  A    between atoms: O_10  and  C_11
REMARK    3  A    between atoms: C_16  and  C_17
REMARK    4  A    between atoms: C_19  and  C_20
REMARK    5  A    between atoms: N_23  and  C_24
REMARK                            x       y       z     vdW  Elec       q    Type
REMARK                         _______ _______ _______ _____ _____    ______ ____
ROOT
ATOM      1  C   UNL     1       8.585  11.768  23.327  0.00  0.00    +0.000 C 
ATOM      2  C   UNL     1       7.515  12.370  22.700  0.00  0.00    +0.000 C 
ATOM      3  C   UNL     1       6.423  12.128  23.777  0.00  0.00    +0.000 C 
ATOM      4  C   UNL     1       6.359  13.250  24.799  0.00  0.00    +0.000 C 
ATOM      5  C   UNL     1       6.788  14.571  24.243  0.00  0.00    +0.000 C 
ATOM      6  C   UNL     1       7.285  14.611  22.785  0.00  0.00    +0.000 C 
ATOM      7  N   UNL     1       6.074  15.605  22.193  0.00  0.00    +0.000 N 
ATOM      8  C   UNL     1       4.668  15.357  22.341  0.00  0.00    +0.000 C 
ATOM      9  O   UNL     1       4.147  14.486  22.988  0.00  0.00    +0.000 OA
ATOM     10  C   UNL     1       6.215  15.875  20.832  0.00  0.00    +0.000 C 
ATOM     11  C   UNL     1       7.559  15.432  20.832  0.00  0.00    +0.000 C 
ATOM     12  C   UNL     1       7.349  13.762  21.500  0.00  0.00    +0.000 C 
ATOM     13  C   UNL     1       8.737  13.940  20.671  0.00  0.00    +0.000 A 
ATOM     14  C   UNL     1       9.015  13.872  19.274  0.00  0.00    +0.000 A 
ATOM     15  C   UNL     1       9.575  15.027  18.461  0.00  0.00    +0.000 C 
ATOM     16  C   UNL     1       9.301  12.640  18.847  0.00  0.00    +0.000 A 
ATOM     17  C   UNL     1       9.687  11.812  19.872  0.00  0.00    +0.000 A 
ATOM     18  C   UNL     1       9.336  10.381  19.560  0.00  0.00    +0.000 C 
ATOM     19  C   UNL     1      10.074  12.431  21.203  0.00  0.00    +0.000 A 
ATOM     20  C   UNL     1       9.667  13.772  21.585  0.00  0.00    +0.000 A 
ATOM     21  N   UNL     1       9.019  14.479  22.857  0.00  0.00    +0.000 N 
ATOM     22  C   UNL     1       9.793  15.635  23.263  0.00  0.00    +0.000 C 
ENDROOT
BRANCH   8  23
ATOM     23  O   UNL     1       3.950  16.197  21.501  0.00  0.00    +0.000 OA
ATOM     24  C   UNL     1       2.535  16.033  21.296  0.00  0.00    +0.000 C 
ENDBRANCH   8  23
TORSDOF 1
ENDMDL
MODEL 7
REMARK VINA RESULT:      -5.4     10.076     12.088
REMARK  Name = 
REMARK  5 active torsions:
REMARK  status: ('A' for Active; 'I' for Inactive)
REMARK    1  A    between atoms: C_8  and  O_10
REMARK    2  A    between atoms: O_10  and  C_11
REMARK    3  A    between atoms: C_16  and  C_17
REMARK    4  A    between atoms: C_19  and  C_20
REMARK    5  A    between atoms: N_23  and  C_24
REMARK                            x       y       z     vdW  Elec       q    Type
REMARK                         _______ _______ _______ _____ _____    ______ ____
ROOT
ATOM      1  C   UNL     1       8.524  17.849  19.191  0.00  0.00    +0.000 C 
ATOM      2  C   UNL     1       8.949  16.888  20.084  0.00  0.00    +0.000 C 
ATOM      3  C   UNL     1       8.309  17.452  21.381  0.00  0.00    +0.000 C 
ATOM      4  C   UNL     1       6.900  16.928  21.607  0.00  0.00    +0.000 C 
ATOM      5  C   UNL     1       6.682  15.571  21.018  0.00  0.00    +0.000 C 
ATOM      6  C   UNL     1       7.842  14.930  20.233  0.00  0.00    +0.000 C 
ATOM      7  N   UNL     1       8.073  13.624  21.254  0.00  0.00    +0.000 N 
ATOM      8  C   UNL     1       8.289  13.722  22.670  0.00  0.00    +0.000 C 
ATOM      9  O   UNL     1       8.229  14.715  23.348  0.00  0.00    +0.000 OA
ATOM     10  C   UNL     1       9.097  12.779  20.828  0.00  0.00    +0.000 C 
ATOM     11  C   UNL     1       9.093  13.347  19.531  0.00  0.00    +0.000 C 
ATOM     12  C   UNL     1       9.348  15.093  19.943  0.00  0.00    +0.000 C 
ATOM     13  C   UNL     1       9.757  14.740  18.408  0.00  0.00    +0.000 A 
ATOM     14  C   UNL     1      10.951  14.194  17.854  0.00  0.00    +0.000 A 
ATOM     15  C   UNL     1      11.012  12.880  17.092  0.00  0.00    +0.000 C 
ATOM     16  C   UNL     1      11.863  15.116  17.539  0.00  0.00    +0.000 A 
ATOM     17  C   UNL     1      11.311  16.366  17.405  0.00  0.00    +0.000 A 
ATOM     18  C   UNL     1      12.320  17.432  17.744  0.00  0.00    +0.000 C 
ATOM     19  C   UNL     1       9.804  16.488  17.272  0.00  0.00    +0.000 A 
ATOM     20  C   UNL     1       8.899  15.432  17.692  0.00  0.00    +0.000 A 
ATOM     21  N   UNL     1       7.566  15.311  18.557  0.00  0.00    +0.000 N 
ATOM     22  C   UNL     1       6.539  14.587  17.835  0.00  0.00    +0.000 C 
ENDROOT
BRANCH   8  23
ATOM     23  O   UNL     1       8.729  12.503  23.166  0.00  0.00    +0.000 OA
ATOM     24  C   UNL     1       8.468  12.099  24.523  0.00  0.00    +0.000 C 
ENDBRANCH   8  23
TORSDOF 1
ENDMDL
MODEL 8
REMARK VINA RESULT:      -5.4      1.999      4.666
REMARK  Name = 
REMARK  5 active torsions:
REMARK  status: ('A' for Active; 'I' for Inactive)
REMARK    1  A    between atoms: C_8  and  O_10
REMARK    2  A    between atoms: O_10  and  C_11
REMARK    3  A    between atoms: C_16  and  C_17
REMARK    4  A    between atoms: C_19  and  C_20
REMARK    5  A    between atoms: N_23  and  C_24
REMARK                            x       y       z     vdW  Elec       q    Type
REMARK                         _______ _______ _______ _____ _____    ______ ____
ROOT
ATOM      1  C   UNL     1       1.887  12.633  20.354  0.00  0.00    +0.000 C 
ATOM      2  C   UNL     1       0.867  12.494  19.438  0.00  0.00    +0.000 C 
ATOM      3  C   UNL     1       1.443  11.322  18.597  0.00  0.00    +0.000 C 
ATOM      4  C   UNL     1       1.036   9.964  19.142  0.00  0.00    +0.000 C 
ATOM      5  C   UNL     1      -0.279   9.992  19.855  0.00  0.00    +0.000 C 
ATOM      6  C   UNL     1      -0.992  11.349  19.998  0.00  0.00    +0.000 C 
ATOM      7  N   UNL     1      -2.345  10.958  19.092  0.00  0.00    +0.000 N 
ATOM      8  C   UNL     1      -2.309  10.437  17.754  0.00  0.00    +0.000 C 
ATOM      9  O   UNL     1      -1.336  10.102  17.129  0.00  0.00    +0.000 OA
ATOM     10  C   UNL     1      -3.261  12.006  19.008  0.00  0.00    +0.000 C 
ATOM     11  C   UNL     1      -2.655  12.688  20.089  0.00  0.00    +0.000 C 
ATOM     12  C   UNL     1      -0.951  12.803  19.485  0.00  0.00    +0.000 C 
ATOM     13  C   UNL     1      -1.290  13.907  20.631  0.00  0.00    +0.000 A 
ATOM     14  C   UNL     1      -1.920  15.183  20.551  0.00  0.00    +0.000 A 
ATOM     15  C   UNL     1      -3.210  15.542  21.270  0.00  0.00    +0.000 C 
ATOM     16  C   UNL     1      -1.070  16.183  20.304  0.00  0.00    +0.000 A 
ATOM     17  C   UNL     1       0.226  15.848  20.608  0.00  0.00    +0.000 A 
ATOM     18  C   UNL     1       1.191  16.609  19.738  0.00  0.00    +0.000 C 
ATOM     19  C   UNL     1       0.481  14.622  21.467  0.00  0.00    +0.000 A 
ATOM     20  C   UNL     1      -0.505  13.568  21.630  0.00  0.00    +0.000 A 
ATOM     21  N   UNL     1      -0.538  11.977  21.557  0.00  0.00    +0.000 N 
ATOM     22  C   UNL     1      -1.149  11.412  22.743  0.00  0.00    +0.000 C 
ENDROOT
BRANCH   8  23
ATOM     23  O   UNL     1      -3.576  10.495  17.192  0.00  0.00    +0.000 OA
ATOM     24  C   UNL     1      -3.768  10.663  15.775  0.00  0.00    +0.000 C 
ENDBRANCH   8  23
TORSDOF 1
ENDMDL
MODEL 9
REMARK VINA RESULT:      -5.3      9.356     10.987
REMARK  Name = 
REMARK  5 active torsions:
REMARK  status: ('A' for Active; 'I' for Inactive)
REMARK    1  A    between atoms: C_8  and  O_10
REMARK    2  A    between atoms: O_10  and  C_11
REMARK    3  A    between atoms: C_16  and  C_17
REMARK    4  A    between atoms: C_19  and  C_20
REMARK    5  A    between atoms: N_23  and  C_24
REMARK                            x       y       z     vdW  Elec       q    Type
REMARK                         _______ _______ _______ _____ _____    ______ ____
ROOT
ATOM      1  C   UNL     1       9.415  14.335  22.323  0.00  0.00    +0.000 C 
ATOM      2  C   UNL     1       8.520  14.116  21.298  0.00  0.00    +0.000 C 
ATOM      3  C   UNL     1       7.220  13.948  22.131  0.00  0.00    +0.000 C 
ATOM      4  C   UNL     1       6.509  15.269  22.367  0.00  0.00    +0.000 C 
ATOM      5  C   UNL     1       6.750  16.264  21.276  0.00  0.00    +0.000 C 
ATOM      6  C   UNL     1       7.701  15.864  20.133  0.00  0.00    +0.000 C 
ATOM      7  N   UNL     1       6.566  15.917  18.903  0.00  0.00    +0.000 N 
ATOM      8  C   UNL     1       5.315  15.214  18.916  0.00  0.00    +0.000 C 
ATOM      9  O   UNL     1       4.843  14.584  19.827  0.00  0.00    +0.000 OA
ATOM     10  C   UNL     1       7.104  15.600  17.657  0.00  0.00    +0.000 C 
ATOM     11  C   UNL     1       8.427  15.787  18.125  0.00  0.00    +0.000 C 
ATOM     12  C   UNL     1       8.435  14.647  19.533  0.00  0.00    +0.000 C 
ATOM     13  C   UNL     1       9.930  14.991  18.991  0.00  0.00    +0.000 A 
ATOM     14  C   UNL     1      10.692  14.442  17.919  0.00  0.00    +0.000 A 
ATOM     15  C   UNL     1      11.183  15.245  16.725  0.00  0.00    +0.000 C 
ATOM     16  C   UNL     1      11.419  13.380  18.271  0.00  0.00    +0.000 A 
ATOM     17  C   UNL     1      11.618  13.314  19.628  0.00  0.00    +0.000 A 
ATOM     18  C   UNL     1      11.784  11.886  20.073  0.00  0.00    +0.000 C 
ATOM     19  C   UNL     1      11.334  14.547  20.467  0.00  0.00    +0.000 A 
ATOM     20  C   UNL     1      10.485  15.628  19.997  0.00  0.00    +0.000 A 
ATOM     21  N   UNL     1       9.268  16.488  20.562  0.00  0.00    +0.000 N 
ATOM     22  C   UNL     1       9.520  17.908  20.415  0.00  0.00    +0.000 C 
ENDROOT
BRANCH   8  23
ATOM     23  O   UNL     1       4.749  15.235  17.649  0.00  0.00    +0.000 OA
ATOM     24  C   UNL     1       3.423  15.745  17.420  0.00  0.00    +0.000 C 
ENDBRANCH   8  23
TORSDOF 1
ENDMDL
