MODEL 1
REMARK VINA RESULT:      -8.8      0.000      0.000
REMARK  Name = 
REMARK  8 active torsions:
REMARK  status: ('A' for Active; 'I' for Inactive)
REMARK    1  A    between atoms: C_1  and  C_2
REMARK    2  A    between atoms: C_2  and  C_3
REMARK    3  A    between atoms: C_3  and  S_4
REMARK    4  A    between atoms: C_3  and  C_13
REMARK    5  A    between atoms: S_4  and  C_5
REMARK    6  A    between atoms: C_8  and  C_9
REMARK    7  A    between atoms: C_10  and  O_11
REMARK    8  A    between atoms: N_15  and  C_16
REMARK                            x       y       z     vdW  Elec       q    Type
REMARK                         _______ _______ _______ _____ _____    ______ ____
ROOT
ATOM      1  C   UNL     1       2.231   5.444  19.528  0.00  0.00    +0.000 C 
ATOM      2  O   UNL     1       1.539   5.345  18.508  0.00  0.00    +0.000 OA
ATOM      3  N   UNL     1       2.530   6.661  20.117  0.00  0.00    +0.000 N 
ATOM      4  H   UNL     1       3.372   6.687  20.679  0.00  0.00    +0.000 HD
ENDROOT
BRANCH   3   5
ATOM      5  C   UNL     1       2.029   7.897  19.622  0.00  0.00    +0.000 A 
ATOM      6  C   UNL     1       2.298   8.267  18.296  0.00  0.00    +0.000 A 
ATOM      7  C   UNL     1       1.777   9.441  17.761  0.00  0.00    +0.000 A 
ATOM      8  C   UNL     1       0.952  10.248  18.542  0.00  0.00    +0.000 A 
ATOM      9  C   UNL     1       0.656   9.900  19.868  0.00  0.00    +0.000 A 
ATOM     10  C   UNL     1      -0.185  10.725  20.633  0.00  0.00    +0.000 A 
ATOM     11  C   UNL     1      -0.442  10.438  21.974  0.00  0.00    +0.000 A 
ATOM     12  C   UNL     1       0.162   9.343  22.571  0.00  0.00    +0.000 A 
ATOM     13  C   UNL     1       0.977   8.497  21.816  0.00  0.00    +0.000 A 
ATOM     14  C   UNL     1       1.218   8.728  20.441  0.00  0.00    +0.000 A 
ENDBRANCH   3   5
BRANCH   1  15
ATOM     15  C   UNL     1       2.728   4.187  20.253  0.00  0.00    +0.000 C 
BRANCH  15  17
ATOM     16  C   UNL     1       1.693   2.441  21.895  0.00  0.00    +0.000 C 
ATOM     17  C   UNL     1       1.511   3.341  20.685  0.00  0.00    +0.000 C 
ENDBRANCH  15  17
BRANCH  15  18
ATOM     18  S   UNL     1       4.028   3.290  19.335  0.00  0.00    +0.000 S 
BRANCH  18  19
ATOM     19  C   UNL     1       5.134   4.614  18.939  0.00  0.00    +0.000 A 
ATOM     20  N   UNL     1       4.835   5.404  17.888  0.00  0.00    +0.000 NA
ATOM     21  N   UNL     1       5.726   6.356  17.492  0.00  0.00    +0.000 NA
ATOM     22  C   UNL     1       6.894   6.469  18.155  0.00  0.00    +0.000 A 
ATOM     23  C   UNL     1       7.849   7.513  17.682  0.00  0.00    +0.000 C 
ATOM     24  C   UNL     1       7.147   5.611  19.212  0.00  0.00    +0.000 A 
ATOM     25  N   UNL     1       6.280   4.673  19.627  0.00  0.00    +0.000 NA
BRANCH  24  26
ATOM     26  O   UNL     1       8.317   5.614  19.916  0.00  0.00    +0.000 OA
ATOM     27  H   UNL     1       8.132   5.669  20.864  0.00  0.00    +0.000 HD
ENDBRANCH  24  26
ENDBRANCH  18  19
ENDBRANCH  15  18
ENDBRANCH   1  15
TORSDOF 6
ENDMDL
MODEL 2
REMARK VINA RESULT:      -8.7      1.258      1.479
REMARK  Name = 
REMARK  8 active torsions:
REMARK  status: ('A' for Active; 'I' for Inactive)
REMARK    1  A    between atoms: C_1  and  C_2
REMARK    2  A    between atoms: C_2  and  C_3
REMARK    3  A    between atoms: C_3  and  S_4
REMARK    4  A    between atoms: C_3  and  C_13
REMARK    5  A    between atoms: S_4  and  C_5
REMARK    6  A    between atoms: C_8  and  C_9
REMARK    7  A    between atoms: C_10  and  O_11
REMARK    8  A    between atoms: N_15  and  C_16
REMARK                            x       y       z     vdW  Elec       q    Type
REMARK                         _______ _______ _______ _____ _____    ______ ____
ROOT
ATOM      1  C   UNL     1       2.402   5.111  19.119  0.00  0.00    +0.000 C 
ATOM      2  O   UNL     1       1.664   5.081  18.127  0.00  0.00    +0.000 OA
ATOM      3  N   UNL     1       2.793   6.290  19.730  0.00  0.00    +0.000 N 
ATOM      4  H   UNL     1       3.658   6.252  20.255  0.00  0.00    +0.000 HD
ENDROOT
BRANCH   3   5
ATOM      5  C   UNL     1       2.343   7.566  19.293  0.00  0.00    +0.000 A 
ATOM      6  C   UNL     1       2.726   8.035  18.027  0.00  0.00    +0.000 A 
ATOM      7  C   UNL     1       2.259   9.253  17.543  0.00  0.00    +0.000 A 
ATOM      8  C   UNL     1       1.375  10.007  18.312  0.00  0.00    +0.000 A 
ATOM      9  C   UNL     1       0.965   9.562  19.578  0.00  0.00    +0.000 A 
ATOM     10  C   UNL     1       0.067  10.334  20.331  0.00  0.00    +0.000 A 
ATOM     11  C   UNL     1      -0.305   9.948  21.619  0.00  0.00    +0.000 A 
ATOM     12  C   UNL     1       0.241   8.803  22.177  0.00  0.00    +0.000 A 
ATOM     13  C   UNL     1       1.113   8.008  21.430  0.00  0.00    +0.000 A 
ATOM     14  C   UNL     1       1.471   8.342  20.102  0.00  0.00    +0.000 A 
ENDBRANCH   3   5
BRANCH   1  15
ATOM     15  C   UNL     1       2.857   3.806  19.786  0.00  0.00    +0.000 C 
BRANCH  15  17
ATOM     16  C   UNL     1       1.428   2.749  21.699  0.00  0.00    +0.000 C 
ATOM     17  C   UNL     1       1.612   2.998  20.211  0.00  0.00    +0.000 C 
ENDBRANCH  15  17
BRANCH  15  18
ATOM     18  S   UNL     1       4.097   2.888  18.808  0.00  0.00    +0.000 S 
BRANCH  18  19
ATOM     19  C   UNL     1       5.208   4.194  18.366  0.00  0.00    +0.000 A 
ATOM     20  N   UNL     1       5.993   4.719  19.328  0.00  0.00    +0.000 NA
ATOM     21  N   UNL     1       6.771   5.800  19.041  0.00  0.00    +0.000 NA
ATOM     22  C   UNL     1       6.720   6.327  17.803  0.00  0.00    +0.000 A 
ATOM     23  C   UNL     1       7.575   7.519  17.532  0.00  0.00    +0.000 C 
ATOM     24  C   UNL     1       5.875   5.754  16.867  0.00  0.00    +0.000 A 
ATOM     25  N   UNL     1       5.108   4.681  17.124  0.00  0.00    +0.000 NA
BRANCH  24  26
ATOM     26  O   UNL     1       5.717   6.240  15.602  0.00  0.00    +0.000 OA
ATOM     27  H   UNL     1       6.539   6.650  15.299  0.00  0.00    +0.000 HD
ENDBRANCH  24  26
ENDBRANCH  18  19
ENDBRANCH  15  18
ENDBRANCH   1  15
TORSDOF 6
ENDMDL
MODEL 3
REMARK VINA RESULT:      -8.6      1.275      1.342
REMARK  Name = 
REMARK  8 active torsions:
REMARK  status: ('A' for Active; 'I' for Inactive)
REMARK    1  A    between atoms: C_1  and  C_2
REMARK    2  A    between atoms: C_2  and  C_3
REMARK    3  A    between atoms: C_3  and  S_4
REMARK    4  A    between atoms: C_3  and  C_13
REMARK    5  A    between atoms: S_4  and  C_5
REMARK    6  A    between atoms: C_8  and  C_9
REMARK    7  A    between atoms: C_10  and  O_11
REMARK    8  A    between atoms: N_15  and  C_16
REMARK                            x       y       z     vdW  Elec       q    Type
REMARK                         _______ _______ _______ _____ _____    ______ ____
ROOT
ATOM      1  C   UNL     1       2.404   5.381  19.663  0.00  0.00    +0.000 C 
ATOM      2  O   UNL     1       1.640   5.176  18.713  0.00  0.00    +0.000 OA
ATOM      3  N   UNL     1       2.682   6.649  20.144  0.00  0.00    +0.000 N 
ATOM      4  H   UNL     1       3.563   6.756  20.630  0.00  0.00    +0.000 HD
ENDROOT
BRANCH   3   5
ATOM      5  C   UNL     1       2.076   7.821  19.613  0.00  0.00    +0.000 A 
ATOM      6  C   UNL     1       2.258   8.137  18.258  0.00  0.00    +0.000 A 
ATOM      7  C   UNL     1       1.634   9.244  17.691  0.00  0.00    +0.000 A 
ATOM      8  C   UNL     1       0.793  10.035  18.470  0.00  0.00    +0.000 A 
ATOM      9  C   UNL     1       0.581   9.740  19.825  0.00  0.00    +0.000 A 
ATOM     10  C   UNL     1      -0.278  10.547  20.588  0.00  0.00    +0.000 A 
ATOM     11  C   UNL     1      -0.454  10.316  21.952  0.00  0.00    +0.000 A 
ATOM     12  C   UNL     1       0.251   9.296  22.573  0.00  0.00    +0.000 A 
ATOM     13  C   UNL     1       1.087   8.466  21.823  0.00  0.00    +0.000 A 
ATOM     14  C   UNL     1       1.248   8.639  20.427  0.00  0.00    +0.000 A 
ENDBRANCH   3   5
BRANCH   1  15
ATOM     15  C   UNL     1       3.026   4.204  20.424  0.00  0.00    +0.000 C 
BRANCH  15  17
ATOM     16  C   UNL     1       1.384   2.544  21.593  0.00  0.00    +0.000 C 
ATOM     17  C   UNL     1       2.136   3.863  21.639  0.00  0.00    +0.000 C 
ENDBRANCH  15  17
BRANCH  15  18
ATOM     18  S   UNL     1       3.463   2.795  19.346  0.00  0.00    +0.000 S 
BRANCH  18  19
ATOM     19  C   UNL     1       4.570   3.576  18.206  0.00  0.00    +0.000 A 
ATOM     20  N   UNL     1       4.216   3.628  16.906  0.00  0.00    +0.000 NA
ATOM     21  N   UNL     1       5.099   4.119  15.992  0.00  0.00    +0.000 NA
ATOM     22  C   UNL     1       6.313   4.523  16.413  0.00  0.00    +0.000 A 
ATOM     23  C   UNL     1       7.257   5.041  15.380  0.00  0.00    +0.000 C 
ATOM     24  C   UNL     1       6.621   4.421  17.760  0.00  0.00    +0.000 A 
ATOM     25  N   UNL     1       5.763   3.952  18.680  0.00  0.00    +0.000 NA
BRANCH  24  26
ATOM     26  O   UNL     1       7.837   4.761  18.279  0.00  0.00    +0.000 OA
ATOM     27  H   UNL     1       8.537   4.256  17.841  0.00  0.00    +0.000 HD
ENDBRANCH  24  26
ENDBRANCH  18  19
ENDBRANCH  15  18
ENDBRANCH   1  15
TORSDOF 6
ENDMDL
MODEL 4
REMARK VINA RESULT:      -8.1      1.658      1.862
REMARK  Name = 
REMARK  8 active torsions:
REMARK  status: ('A' for Active; 'I' for Inactive)
REMARK    1  A    between atoms: C_1  and  C_2
REMARK    2  A    between atoms: C_2  and  C_3
REMARK    3  A    between atoms: C_3  and  S_4
REMARK    4  A    between atoms: C_3  and  C_13
REMARK    5  A    between atoms: S_4  and  C_5
REMARK    6  A    between atoms: C_8  and  C_9
REMARK    7  A    between atoms: C_10  and  O_11
REMARK    8  A    between atoms: N_15  and  C_16
REMARK                            x       y       z     vdW  Elec       q    Type
REMARK                         _______ _______ _______ _____ _____    ______ ____
ROOT
ATOM      1  C   UNL     1       2.368   5.463  19.564  0.00  0.00    +0.000 C 
ATOM      2  O   UNL     1       1.882   5.385  18.429  0.00  0.00    +0.000 OA
ATOM      3  N   UNL     1       2.481   6.659  20.252  0.00  0.00    +0.000 N 
ATOM      4  H   UNL     1       3.202   6.696  20.961  0.00  0.00    +0.000 HD
ENDROOT
BRANCH   3   5
ATOM      5  C   UNL     1       2.007   7.893  19.728  0.00  0.00    +0.000 A 
ATOM      6  C   UNL     1       2.315   8.244  18.405  0.00  0.00    +0.000 A 
ATOM      7  C   UNL     1       1.822   9.416  17.842  0.00  0.00    +0.000 A 
ATOM      8  C   UNL     1       0.985  10.242  18.590  0.00  0.00    +0.000 A 
ATOM      9  C   UNL     1       0.650   9.915  19.912  0.00  0.00    +0.000 A 
ATOM     10  C   UNL     1      -0.202  10.757  20.644  0.00  0.00    +0.000 A 
ATOM     11  C   UNL     1      -0.498  10.491  21.980  0.00  0.00    +0.000 A 
ATOM     12  C   UNL     1       0.078   9.397  22.607  0.00  0.00    +0.000 A 
ATOM     13  C   UNL     1       0.904   8.533  21.885  0.00  0.00    +0.000 A 
ATOM     14  C   UNL     1       1.184   8.744  20.514  0.00  0.00    +0.000 A 
ENDBRANCH   3   5
BRANCH   1  15
ATOM     15  C   UNL     1       2.797   4.194  20.311  0.00  0.00    +0.000 C 
BRANCH  15  17
ATOM     16  C   UNL     1       1.568   2.444  21.809  0.00  0.00    +0.000 C 
ATOM     17  C   UNL     1       1.775   3.900  21.432  0.00  0.00    +0.000 C 
ENDBRANCH  15  17
BRANCH  15  18
ATOM     18  S   UNL     1       3.176   2.794  19.201  0.00  0.00    +0.000 S 
BRANCH  18  19
ATOM     19  C   UNL     1       4.527   3.460  18.271  0.00  0.00    +0.000 A 
ATOM     20  N   UNL     1       5.576   3.973  18.945  0.00  0.00    +0.000 NA
ATOM     21  N   UNL     1       6.573   4.595  18.256  0.00  0.00    +0.000 NA
ATOM     22  C   UNL     1       6.473   4.696  16.916  0.00  0.00    +0.000 A 
ATOM     23  C   UNL     1       7.579   5.397  16.200  0.00  0.00    +0.000 C 
ATOM     24  C   UNL     1       5.358   4.167  16.288  0.00  0.00    +0.000 A 
ATOM     25  N   UNL     1       4.368   3.540  16.944  0.00  0.00    +0.000 NA
BRANCH  24  26
ATOM     26  O   UNL     1       5.141   4.258  14.943  0.00  0.00    +0.000 OA
ATOM     27  H   UNL     1       5.908   3.922  14.460  0.00  0.00    +0.000 HD
ENDBRANCH  24  26
ENDBRANCH  18  19
ENDBRANCH  15  18
ENDBRANCH   1  15
TORSDOF 6
ENDMDL
MODEL 5
REMARK VINA RESULT:      -7.9      3.443      6.034
REMARK  Name = 
REMARK  8 active torsions:
REMARK  status: ('A' for Active; 'I' for Inactive)
REMARK    1  A    between atoms: C_1  and  C_2
REMARK    2  A    between atoms: C_2  and  C_3
REMARK    3  A    between atoms: C_3  and  S_4
REMARK    4  A    between atoms: C_3  and  C_13
REMARK    5  A    between atoms: S_4  and  C_5
REMARK    6  A    between atoms: C_8  and  C_9
REMARK    7  A    between atoms: C_10  and  O_11
REMARK    8  A    between atoms: N_15  and  C_16
REMARK                            x       y       z     vdW  Elec       q    Type
REMARK                         _______ _______ _______ _____ _____    ______ ____
ROOT
ATOM      1  C   UNL     1       5.841   5.706  18.574  0.00  0.00    +0.000 C 
ATOM      2  O   UNL     1       6.108   5.460  19.756  0.00  0.00    +0.000 OA
ATOM      3  N   UNL     1       4.546   5.736  18.087  0.00  0.00    +0.000 N 
ATOM      4  H   UNL     1       4.441   5.563  17.095  0.00  0.00    +0.000 HD
ENDROOT
BRANCH   3   5
ATOM      5  C   UNL     1       3.409   5.530  18.916  0.00  0.00    +0.000 A 
ATOM      6  C   UNL     1       2.913   6.595  19.683  0.00  0.00    +0.000 A 
ATOM      7  C   UNL     1       1.770   6.445  20.462  0.00  0.00    +0.000 A 
ATOM      8  C   UNL     1       1.089   5.229  20.460  0.00  0.00    +0.000 A 
ATOM      9  C   UNL     1       1.553   4.148  19.696  0.00  0.00    +0.000 A 
ATOM     10  C   UNL     1       0.846   2.936  19.704  0.00  0.00    +0.000 A 
ATOM     11  C   UNL     1       1.321   1.825  19.007  0.00  0.00    +0.000 A 
ATOM     12  C   UNL     1       2.523   1.906  18.322  0.00  0.00    +0.000 A 
ATOM     13  C   UNL     1       3.224   3.113  18.281  0.00  0.00    +0.000 A 
ATOM     14  C   UNL     1       2.745   4.274  18.933  0.00  0.00    +0.000 A 
ENDBRANCH   3   5
BRANCH   1  15
ATOM     15  C   UNL     1       6.956   6.083  17.591  0.00  0.00    +0.000 C 
BRANCH  15  17
ATOM     16  C   UNL     1       7.806   8.549  17.718  0.00  0.00    +0.000 C 
ATOM     17  C   UNL     1       7.879   7.129  18.253  0.00  0.00    +0.000 C 
ENDBRANCH  15  17
BRANCH  15  18
ATOM     18  S   UNL     1       7.799   4.635  16.863  0.00  0.00    +0.000 S 
BRANCH  18  19
ATOM     19  C   UNL     1       6.872   4.423  15.369  0.00  0.00    +0.000 A 
ATOM     20  N   UNL     1       5.625   3.916  15.457  0.00  0.00    +0.000 NA
ATOM     21  N   UNL     1       4.935   3.636  14.316  0.00  0.00    +0.000 NA
ATOM     22  C   UNL     1       5.528   3.857  13.127  0.00  0.00    +0.000 A 
ATOM     23  C   UNL     1       4.746   3.523  11.901  0.00  0.00    +0.000 C 
ATOM     24  C   UNL     1       6.819   4.358  13.108  0.00  0.00    +0.000 A 
ATOM     25  N   UNL     1       7.514   4.653  14.219  0.00  0.00    +0.000 NA
BRANCH  24  26
ATOM     26  O   UNL     1       7.523   4.574  11.958  0.00  0.00    +0.000 OA
ATOM     27  H   UNL     1       7.939   3.751  11.665  0.00  0.00    +0.000 HD
ENDBRANCH  24  26
ENDBRANCH  18  19
ENDBRANCH  15  18
ENDBRANCH   1  15
TORSDOF 6
ENDMDL
MODEL 6
REMARK VINA RESULT:      -7.8      0.780      2.246
REMARK  Name = 
REMARK  8 active torsions:
REMARK  status: ('A' for Active; 'I' for Inactive)
REMARK    1  A    between atoms: C_1  and  C_2
REMARK    2  A    between atoms: C_2  and  C_3
REMARK    3  A    between atoms: C_3  and  S_4
REMARK    4  A    between atoms: C_3  and  C_13
REMARK    5  A    between atoms: S_4  and  C_5
REMARK    6  A    between atoms: C_8  and  C_9
REMARK    7  A    between atoms: C_10  and  O_11
REMARK    8  A    between atoms: N_15  and  C_16
REMARK                            x       y       z     vdW  Elec       q    Type
REMARK                         _______ _______ _______ _____ _____    ______ ____
ROOT
ATOM      1  C   UNL     1       2.120   4.904  19.642  0.00  0.00    +0.000 C 
ATOM      2  O   UNL     1       1.193   4.933  18.824  0.00  0.00    +0.000 OA
ATOM      3  N   UNL     1       2.387   5.948  20.512  0.00  0.00    +0.000 N 
ATOM      4  H   UNL     1       3.338   6.011  20.851  0.00  0.00    +0.000 HD
ENDROOT
BRANCH   3   5
ATOM      5  C   UNL     1       1.589   7.123  20.568  0.00  0.00    +0.000 A 
ATOM      6  C   UNL     1       0.690   7.296  21.632  0.00  0.00    +0.000 A 
ATOM      7  C   UNL     1      -0.065   8.459  21.748  0.00  0.00    +0.000 A 
ATOM      8  C   UNL     1       0.091   9.480  20.814  0.00  0.00    +0.000 A 
ATOM      9  C   UNL     1       0.988   9.342  19.744  0.00  0.00    +0.000 A 
ATOM     10  C   UNL     1       1.135  10.388  18.819  0.00  0.00    +0.000 A 
ATOM     11  C   UNL     1       1.970  10.251  17.710  0.00  0.00    +0.000 A 
ATOM     12  C   UNL     1       2.641   9.057  17.498  0.00  0.00    +0.000 A 
ATOM     13  C   UNL     1       2.529   8.018  18.424  0.00  0.00    +0.000 A 
ATOM     14  C   UNL     1       1.732   8.142  19.588  0.00  0.00    +0.000 A 
ENDBRANCH   3   5
BRANCH   1  15
ATOM     15  C   UNL     1       2.983   3.645  19.792  0.00  0.00    +0.000 C 
BRANCH  15  17
ATOM     16  C   UNL     1       1.569   2.644  21.746  0.00  0.00    +0.000 C 
ATOM     17  C   UNL     1       2.105   2.495  20.333  0.00  0.00    +0.000 C 
ENDBRANCH  15  17
BRANCH  15  18
ATOM     18  S   UNL     1       3.961   3.256  18.299  0.00  0.00    +0.000 S 
BRANCH  18  19
ATOM     19  C   UNL     1       5.098   4.613  18.280  0.00  0.00    +0.000 A 
ATOM     20  N   UNL     1       5.042   5.480  17.249  0.00  0.00    +0.000 NA
ATOM     21  N   UNL     1       5.980   6.464  17.151  0.00  0.00    +0.000 NA
ATOM     22  C   UNL     1       6.950   6.532  18.083  0.00  0.00    +0.000 A 
ATOM     23  C   UNL     1       7.966   7.614  17.933  0.00  0.00    +0.000 C 
ATOM     24  C   UNL     1       6.962   5.596  19.104  0.00  0.00    +0.000 A 
ATOM     25  N   UNL     1       6.043   4.625  19.227  0.00  0.00    +0.000 NA
BRANCH  24  26
ATOM     26  O   UNL     1       7.927   5.552  20.069  0.00  0.00    +0.000 OA
ATOM     27  H   UNL     1       8.324   4.670  20.101  0.00  0.00    +0.000 HD
ENDBRANCH  24  26
ENDBRANCH  18  19
ENDBRANCH  15  18
ENDBRANCH   1  15
TORSDOF 6
ENDMDL
MODEL 7
REMARK VINA RESULT:      -7.7      3.633      6.088
REMARK  Name = 
REMARK  8 active torsions:
REMARK  status: ('A' for Active; 'I' for Inactive)
REMARK    1  A    between atoms: C_1  and  C_2
REMARK    2  A    between atoms: C_2  and  C_3
REMARK    3  A    between atoms: C_3  and  S_4
REMARK    4  A    between atoms: C_3  and  C_13
REMARK    5  A    between atoms: S_4  and  C_5
REMARK    6  A    between atoms: C_8  and  C_9
REMARK    7  A    between atoms: C_10  and  O_11
REMARK    8  A    between atoms: N_15  and  C_16
REMARK                            x       y       z     vdW  Elec       q    Type
REMARK                         _______ _______ _______ _____ _____    ______ ____
ROOT
ATOM      1  C   UNL     1       4.900   6.447  17.578  0.00  0.00    +0.000 C 
ATOM      2  O   UNL     1       3.979   7.163  17.169  0.00  0.00    +0.000 OA
ATOM      3  N   UNL     1       4.742   5.532  18.606  0.00  0.00    +0.000 N 
ATOM      4  H   UNL     1       5.581   5.287  19.115  0.00  0.00    +0.000 HD
ENDROOT
BRANCH   3   5
ATOM      5  C   UNL     1       3.493   5.309  19.247  0.00  0.00    +0.000 A 
ATOM      6  C   UNL     1       2.942   6.318  20.052  0.00  0.00    +0.000 A 
ATOM      7  C   UNL     1       1.696   6.155  20.650  0.00  0.00    +0.000 A 
ATOM      8  C   UNL     1       0.969   4.988  20.424  0.00  0.00    +0.000 A 
ATOM      9  C   UNL     1       1.487   3.965  19.617  0.00  0.00    +0.000 A 
ATOM     10  C   UNL     1       0.734   2.802  19.397  0.00  0.00    +0.000 A 
ATOM     11  C   UNL     1       1.253   1.742  18.653  0.00  0.00    +0.000 A 
ATOM     12  C   UNL     1       2.541   1.822  18.149  0.00  0.00    +0.000 A 
ATOM     13  C   UNL     1       3.293   2.984  18.333  0.00  0.00    +0.000 A 
ATOM     14  C   UNL     1       2.778   4.099  19.038  0.00  0.00    +0.000 A 
ENDBRANCH   3   5
BRANCH   1  15
ATOM     15  C   UNL     1       6.271   6.480  16.890  0.00  0.00    +0.000 C 
BRANCH  15  17
ATOM     16  C   UNL     1       8.141   7.130  18.592  0.00  0.00    +0.000 C 
ATOM     17  C   UNL     1       7.137   7.578  17.545  0.00  0.00    +0.000 C 
ENDBRANCH  15  17
BRANCH  15  18
ATOM     18  S   UNL     1       7.052   4.833  16.757  0.00  0.00    +0.000 S 
BRANCH  18  19
ATOM     19  C   UNL     1       7.177   4.664  14.999  0.00  0.00    +0.000 A 
ATOM     20  N   UNL     1       7.951   5.539  14.326  0.00  0.00    +0.000 NA
ATOM     21  N   UNL     1       7.973   5.502  12.964  0.00  0.00    +0.000 NA
ATOM     22  C   UNL     1       7.202   4.600  12.326  0.00  0.00    +0.000 A 
ATOM     23  C   UNL     1       7.243   4.601  10.834  0.00  0.00    +0.000 C 
ATOM     24  C   UNL     1       6.413   3.745  13.077  0.00  0.00    +0.000 A 
ATOM     25  N   UNL     1       6.384   3.755  14.420  0.00  0.00    +0.000 NA
BRANCH  24  26
ATOM     26  O   UNL     1       5.565   2.828  12.526  0.00  0.00    +0.000 OA
ATOM     27  H   UNL     1       5.391   3.052  11.601  0.00  0.00    +0.000 HD
ENDBRANCH  24  26
ENDBRANCH  18  19
ENDBRANCH  15  18
ENDBRANCH   1  15
TORSDOF 6
ENDMDL
MODEL 8
REMARK VINA RESULT:      -7.7      1.642      1.820
REMARK  Name = 
REMARK  8 active torsions:
REMARK  status: ('A' for Active; 'I' for Inactive)
REMARK    1  A    between atoms: C_1  and  C_2
REMARK    2  A    between atoms: C_2  and  C_3
REMARK    3  A    between atoms: C_3  and  S_4
REMARK    4  A    between atoms: C_3  and  C_13
REMARK    5  A    between atoms: S_4  and  C_5
REMARK    6  A    between atoms: C_8  and  C_9
REMARK    7  A    between atoms: C_10  and  O_11
REMARK    8  A    between atoms: N_15  and  C_16
REMARK                            x       y       z     vdW  Elec       q    Type
REMARK                         _______ _______ _______ _____ _____    ______ ____
ROOT
ATOM      1  C   UNL     1       2.470   5.622  18.932  0.00  0.00    +0.000 C 
ATOM      2  O   UNL     1       2.112   5.738  17.754  0.00  0.00    +0.000 OA
ATOM      3  N   UNL     1       2.477   6.682  19.823  0.00  0.00    +0.000 N 
ATOM      4  H   UNL     1       3.117   6.601  20.604  0.00  0.00    +0.000 HD
ENDROOT
BRANCH   3   5
ATOM      5  C   UNL     1       2.031   7.984  19.469  0.00  0.00    +0.000 A 
ATOM      6  C   UNL     1       2.322   8.489  18.192  0.00  0.00    +0.000 A 
ATOM      7  C   UNL     1       1.853   9.736  17.792  0.00  0.00    +0.000 A 
ATOM      8  C   UNL     1       1.059  10.485  18.657  0.00  0.00    +0.000 A 
ATOM      9  C   UNL     1       0.741  10.004  19.936  0.00  0.00    +0.000 A 
ATOM     10  C   UNL     1      -0.068  10.773  20.788  0.00  0.00    +0.000 A 
ATOM     11  C   UNL     1      -0.344  10.350  22.088  0.00  0.00    +0.000 A 
ATOM     12  C   UNL     1       0.212   9.171  22.560  0.00  0.00    +0.000 A 
ATOM     13  C   UNL     1       0.994   8.380  21.716  0.00  0.00    +0.000 A 
ATOM     14  C   UNL     1       1.252   8.753  20.375  0.00  0.00    +0.000 A 
ENDBRANCH   3   5
BRANCH   1  15
ATOM     15  C   UNL     1       2.849   4.246  19.495  0.00  0.00    +0.000 C 
BRANCH  15  17
ATOM     16  C   UNL     1       0.823   2.617  19.251  0.00  0.00    +0.000 C 
ATOM     17  C   UNL     1       2.125   3.152  18.680  0.00  0.00    +0.000 C 
ENDBRANCH  15  17
BRANCH  15  18
ATOM     18  S   UNL     1       4.651   4.018  19.696  0.00  0.00    +0.000 S 
BRANCH  18  19
ATOM     19  C   UNL     1       5.219   4.376  18.058  0.00  0.00    +0.000 A 
ATOM     20  N   UNL     1       4.852   3.548  17.059  0.00  0.00    +0.000 NA
ATOM     21  N   UNL     1       5.369   3.735  15.812  0.00  0.00    +0.000 NA
ATOM     22  C   UNL     1       6.250   4.735  15.617  0.00  0.00    +0.000 A 
ATOM     23  C   UNL     1       6.804   4.897  14.241  0.00  0.00    +0.000 C 
ATOM     24  C   UNL     1       6.601   5.535  16.691  0.00  0.00    +0.000 A 
ATOM     25  N   UNL     1       6.096   5.377  17.926  0.00  0.00    +0.000 NA
BRANCH  24  26
ATOM     26  O   UNL     1       7.518   6.543  16.608  0.00  0.00    +0.000 OA
ATOM     27  H   UNL     1       7.578   6.862  15.696  0.00  0.00    +0.000 HD
ENDBRANCH  24  26
ENDBRANCH  18  19
ENDBRANCH  15  18
ENDBRANCH   1  15
TORSDOF 6
ENDMDL
MODEL 9
REMARK VINA RESULT:      -7.6      3.720      7.805
REMARK  Name = 
REMARK  8 active torsions:
REMARK  status: ('A' for Active; 'I' for Inactive)
REMARK    1  A    between atoms: C_1  and  C_2
REMARK    2  A    between atoms: C_2  and  C_3
REMARK    3  A    between atoms: C_3  and  S_4
REMARK    4  A    between atoms: C_3  and  C_13
REMARK    5  A    between atoms: S_4  and  C_5
REMARK    6  A    between atoms: C_8  and  C_9
REMARK    7  A    between atoms: C_10  and  O_11
REMARK    8  A    between atoms: N_15  and  C_16
REMARK                            x       y       z     vdW  Elec       q    Type
REMARK                         _______ _______ _______ _____ _____    ______ ____
ROOT
ATOM      1  C   UNL     1       1.829   7.822  19.384  0.00  0.00    +0.000 C 
ATOM      2  O   UNL     1       2.109   7.958  18.188  0.00  0.00    +0.000 OA
ATOM      3  N   UNL     1       2.267   6.748  20.141  0.00  0.00    +0.000 N 
ATOM      4  H   UNL     1       1.705   6.517  20.950  0.00  0.00    +0.000 HD
ENDROOT
BRANCH   3   5
ATOM      5  C   UNL     1       3.115   5.735  19.616  0.00  0.00    +0.000 A 
ATOM      6  C   UNL     1       4.468   6.022  19.380  0.00  0.00    +0.000 A 
ATOM      7  C   UNL     1       5.338   5.039  18.920  0.00  0.00    +0.000 A 
ATOM      8  C   UNL     1       4.870   3.743  18.717  0.00  0.00    +0.000 A 
ATOM      9  C   UNL     1       3.525   3.421  18.953  0.00  0.00    +0.000 A 
ATOM     10  C   UNL     1       3.078   2.106  18.750  0.00  0.00    +0.000 A 
ATOM     11  C   UNL     1       1.733   1.773  18.913  0.00  0.00    +0.000 A 
ATOM     12  C   UNL     1       0.818   2.758  19.250  0.00  0.00    +0.000 A 
ATOM     13  C   UNL     1       1.251   4.065  19.484  0.00  0.00    +0.000 A 
ATOM     14  C   UNL     1       2.616   4.426  19.379  0.00  0.00    +0.000 A 
ENDBRANCH   3   5
BRANCH   1  15
ATOM     15  C   UNL     1       1.035   8.907  20.123  0.00  0.00    +0.000 C 
BRANCH  15  17
ATOM     16  C   UNL     1       0.368   9.283  22.619  0.00  0.00    +0.000 C 
ATOM     17  C   UNL     1       1.440   8.900  21.613  0.00  0.00    +0.000 C 
ENDBRANCH  15  17
BRANCH  15  18
ATOM     18  S   UNL     1       1.094  10.535  19.296  0.00  0.00    +0.000 S 
BRANCH  18  19
ATOM     19  C   UNL     1      -0.567  10.669  18.700  0.00  0.00    +0.000 A 
ATOM     20  N   UNL     1      -0.917   9.948  17.615  0.00  0.00    +0.000 NA
ATOM     21  N   UNL     1      -2.153  10.120  17.068  0.00  0.00    +0.000 NA
ATOM     22  C   UNL     1      -2.987  11.024  17.618  0.00  0.00    +0.000 A 
ATOM     23  C   UNL     1      -4.326  11.194  16.981  0.00  0.00    +0.000 C 
ATOM     24  C   UNL     1      -2.557  11.747  18.717  0.00  0.00    +0.000 A 
ATOM     25  N   UNL     1      -1.348  11.587  19.281  0.00  0.00    +0.000 NA
BRANCH  24  26
ATOM     26  O   UNL     1      -3.308  12.716  19.318  0.00  0.00    +0.000 OA
ATOM     27  H   UNL     1      -2.819  13.550  19.339  0.00  0.00    +0.000 HD
ENDBRANCH  24  26
ENDBRANCH  18  19
ENDBRANCH  15  18
ENDBRANCH   1  15
TORSDOF 6
ENDMDL
