MODEL 1
REMARK VINA RESULT:      -8.2      0.000      0.000
REMARK  Name = 
REMARK  8 active torsions:
REMARK  status: ('A' for Active; 'I' for Inactive)
REMARK    1  A    between atoms: C_1  and  C_2
REMARK    2  A    between atoms: C_4  and  C_5
REMARK    3  A    between atoms: C_8  and  C_9
REMARK    4  A    between atoms: C_10  and  O_11
REMARK    5  A    between atoms: O_11  and  C_12
REMARK    6  A    between atoms: N_17  and  C_18
REMARK    7  A    between atoms: N_21  and  C_22
REMARK    8  A    between atoms: C_26  and  C_27
REMARK                            x       y       z     vdW  Elec       q    Type
REMARK                         _______ _______ _______ _____ _____    ______ ____
ROOT
ATOM      1  C   UNL     1       6.977   6.626  17.111  0.00  0.00    +0.000 A 
ATOM      2  C   UNL     1       7.408   5.726  18.053  0.00  0.00    +0.000 A 
ATOM      3  C   UNL     1       8.214   6.256  19.030  0.00  0.00    +0.000 A 
ATOM      4  N   UNL     1       8.596   7.550  19.069  0.00  0.00    +0.000 NA
ATOM      5  C   UNL     1       8.189   8.324  18.061  0.00  0.00    +0.000 A 
ATOM      6  N   UNL     1       8.356   9.679  18.082  0.00  0.00    +0.000 N 
ATOM      7  N   UNL     1       7.436   7.887  17.039  0.00  0.00    +0.000 NA
ATOM      8  H   UNL     1       8.000  10.051  17.208  0.00  0.00    +0.000 HD
ENDROOT
BRANCH   6   9
ATOM      9  C   UNL     1       9.410  10.450  18.726  0.00  0.00    +0.000 C 
ATOM     10  C   UNL     1       9.065  10.913  20.146  0.00  0.00    +0.000 C 
ATOM     11  C   UNL     1       8.726  12.397  20.279  0.00  0.00    +0.000 C 
ATOM     12  N   UNL     1       9.704  13.173  19.518  0.00  0.00    +0.000 N 
ATOM     13  C   UNL     1       9.654  12.917  18.076  0.00  0.00    +0.000 C 
ATOM     14  C   UNL     1      10.087  11.482  17.818  0.00  0.00    +0.000 C 
BRANCH  12  15
ATOM     15  C   UNL     1      10.458  14.200  20.049  0.00  0.00    +0.000 A 
ATOM     16  C   UNL     1      11.573  14.737  19.390  0.00  0.00    +0.000 A 
ATOM     17  C   UNL     1      12.333  15.782  19.935  0.00  0.00    +0.000 A 
ATOM     18  C   UNL     1      11.995  16.320  21.170  0.00  0.00    +0.000 A 
ATOM     19  C   UNL     1      10.887  15.823  21.852  0.00  0.00    +0.000 A 
ATOM     20  C   UNL     1      10.132  14.779  21.289  0.00  0.00    +0.000 A 
BRANCH  19  21
ATOM     21  C   UNL     1      10.522  16.366  23.121  0.00  0.00    +0.000 C 
ATOM     22  N   UNL     1      10.217  16.816  24.154  0.00  0.00    +0.000 NA
ENDBRANCH  19  21
ENDBRANCH  12  15
ENDBRANCH   6   9
BRANCH   1  23
ATOM     23  O   UNL     1       5.986   6.193  16.234  0.00  0.00    +0.000 OA
BRANCH  23  31
ATOM     24  C   UNL     1       3.712   7.591  17.920  0.00  0.00    +0.000 C 
ATOM     25  C   UNL     1       3.803   6.158  17.464  0.00  0.00    +0.000 A 
ATOM     26  C   UNL     1       2.750   5.339  17.934  0.00  0.00    +0.000 A 
ATOM     27  C   UNL     1       2.713   3.968  17.696  0.00  0.00    +0.000 A 
ATOM     28  C   UNL     1       3.751   3.378  16.988  0.00  0.00    +0.000 A 
ATOM     29  C   UNL     1       4.819   4.151  16.493  0.00  0.00    +0.000 A 
ATOM     30  C   UNL     1       5.914   3.418  15.760  0.00  0.00    +0.000 C 
ATOM     31  C   UNL     1       4.842   5.560  16.705  0.00  0.00    +0.000 A 
BRANCH  27  32
ATOM     32  C   UNL     1       1.620   3.184  18.190  0.00  0.00    +0.000 C 
ATOM     33  N   UNL     1       0.735   2.547  18.589  0.00  0.00    +0.000 NA
ENDBRANCH  27  32
ENDBRANCH  23  31
ENDBRANCH   1  23
TORSDOF 6
ENDMDL
MODEL 2
REMARK VINA RESULT:      -8.2      6.534      8.752
REMARK  Name = 
REMARK  8 active torsions:
REMARK  status: ('A' for Active; 'I' for Inactive)
REMARK    1  A    between atoms: C_1  and  C_2
REMARK    2  A    between atoms: C_4  and  C_5
REMARK    3  A    between atoms: C_8  and  C_9
REMARK    4  A    between atoms: C_10  and  O_11
REMARK    5  A    between atoms: O_11  and  C_12
REMARK    6  A    between atoms: N_17  and  C_18
REMARK    7  A    between atoms: N_21  and  C_22
REMARK    8  A    between atoms: C_26  and  C_27
REMARK                            x       y       z     vdW  Elec       q    Type
REMARK                         _______ _______ _______ _____ _____    ______ ____
ROOT
ATOM      1  C   UNL     1       3.854   4.786  19.881  0.00  0.00    +0.000 A 
ATOM      2  C   UNL     1       3.009   3.840  20.407  0.00  0.00    +0.000 A 
ATOM      3  C   UNL     1       1.726   4.277  20.635  0.00  0.00    +0.000 A 
ATOM      4  N   UNL     1       1.309   5.539  20.400  0.00  0.00    +0.000 NA
ATOM      5  C   UNL     1       2.230   6.401  19.965  0.00  0.00    +0.000 A 
ATOM      6  N   UNL     1       1.895   7.649  19.522  0.00  0.00    +0.000 N 
ATOM      7  N   UNL     1       3.517   6.080  19.755  0.00  0.00    +0.000 NA
ATOM      8  H   UNL     1       2.751   8.131  19.271  0.00  0.00    +0.000 HD
ENDROOT
BRANCH   6   9
ATOM      9  C   UNL     1       0.783   8.489  19.943  0.00  0.00    +0.000 C 
ATOM     10  C   UNL     1       0.675   9.811  19.176  0.00  0.00    +0.000 C 
ATOM     11  C   UNL     1       1.121  11.049  19.952  0.00  0.00    +0.000 C 
ATOM     12  N   UNL     1       0.560  10.986  21.300  0.00  0.00    +0.000 N 
ATOM     13  C   UNL     1       1.068   9.861  22.089  0.00  0.00    +0.000 C 
ATOM     14  C   UNL     1       0.583   8.564  21.461  0.00  0.00    +0.000 C 
BRANCH  12  15
ATOM     15  C   UNL     1      -0.204  11.987  21.867  0.00  0.00    +0.000 A 
ATOM     16  C   UNL     1       0.152  13.341  21.796  0.00  0.00    +0.000 A 
ATOM     17  C   UNL     1      -0.630  14.352  22.372  0.00  0.00    +0.000 A 
ATOM     18  C   UNL     1      -1.801  14.029  23.046  0.00  0.00    +0.000 A 
ATOM     19  C   UNL     1      -2.197  12.697  23.129  0.00  0.00    +0.000 A 
ATOM     20  C   UNL     1      -1.405  11.695  22.540  0.00  0.00    +0.000 A 
BRANCH  19  21
ATOM     21  C   UNL     1      -3.399  12.346  23.815  0.00  0.00    +0.000 C 
ATOM     22  N   UNL     1      -4.382  12.050  24.371  0.00  0.00    +0.000 NA
ENDBRANCH  19  21
ENDBRANCH  12  15
ENDBRANCH   6   9
BRANCH   1  23
ATOM     23  O   UNL     1       5.091   4.338  19.427  0.00  0.00    +0.000 OA
BRANCH  23  31
ATOM     24  C   UNL     1       3.553   3.207  16.913  0.00  0.00    +0.000 C 
ATOM     25  C   UNL     1       4.812   4.033  16.955  0.00  0.00    +0.000 A 
ATOM     26  C   UNL     1       5.399   4.250  15.687  0.00  0.00    +0.000 A 
ATOM     27  C   UNL     1       6.616   4.908  15.534  0.00  0.00    +0.000 A 
ATOM     28  C   UNL     1       7.287   5.355  16.664  0.00  0.00    +0.000 A 
ATOM     29  C   UNL     1       6.742   5.170  17.949  0.00  0.00    +0.000 A 
ATOM     30  C   UNL     1       7.556   5.665  19.118  0.00  0.00    +0.000 C 
ATOM     31  C   UNL     1       5.479   4.527  18.106  0.00  0.00    +0.000 A 
BRANCH  27  32
ATOM     32  C   UNL     1       7.164   5.107  14.226  0.00  0.00    +0.000 C 
ATOM     33  N   UNL     1       7.610   5.266  13.165  0.00  0.00    +0.000 NA
ENDBRANCH  27  32
ENDBRANCH  23  31
ENDBRANCH   1  23
TORSDOF 6
ENDMDL
MODEL 3
REMARK VINA RESULT:      -8.1      0.459      1.617
REMARK  Name = 
REMARK  8 active torsions:
REMARK  status: ('A' for Active; 'I' for Inactive)
REMARK    1  A    between atoms: C_1  and  C_2
REMARK    2  A    between atoms: C_4  and  C_5
REMARK    3  A    between atoms: C_8  and  C_9
REMARK    4  A    between atoms: C_10  and  O_11
REMARK    5  A    between atoms: O_11  and  C_12
REMARK    6  A    between atoms: N_17  and  C_18
REMARK    7  A    between atoms: N_21  and  C_22
REMARK    8  A    between atoms: C_26  and  C_27
REMARK                            x       y       z     vdW  Elec       q    Type
REMARK                         _______ _______ _______ _____ _____    ______ ____
ROOT
ATOM      1  C   UNL     1       6.747   7.189  17.086  0.00  0.00    +0.000 A 
ATOM      2  C   UNL     1       7.285   6.270  17.953  0.00  0.00    +0.000 A 
ATOM      3  C   UNL     1       8.201   6.781  18.839  0.00  0.00    +0.000 A 
ATOM      4  N   UNL     1       8.587   8.074  18.859  0.00  0.00    +0.000 NA
ATOM      5  C   UNL     1       8.065   8.868  17.922  0.00  0.00    +0.000 A 
ATOM      6  N   UNL     1       8.235  10.223  17.951  0.00  0.00    +0.000 N 
ATOM      7  N   UNL     1       7.196   8.452  16.987  0.00  0.00    +0.000 NA
ATOM      8  H   UNL     1       7.779  10.612  17.133  0.00  0.00    +0.000 HD
ENDROOT
BRANCH   6   9
ATOM      9  C   UNL     1       9.358  10.982  18.482  0.00  0.00    +0.000 C 
ATOM     10  C   UNL     1       9.320  11.172  20.002  0.00  0.00    +0.000 C 
ATOM     11  C   UNL     1       8.928  12.573  20.469  0.00  0.00    +0.000 C 
ATOM     12  N   UNL     1       9.656  13.556  19.669  0.00  0.00    +0.000 N 
ATOM     13  C   UNL     1       9.294  13.532  18.249  0.00  0.00    +0.000 C 
ATOM     14  C   UNL     1       9.745  12.209  17.651  0.00  0.00    +0.000 C 
BRANCH  12  15
ATOM     15  C   UNL     1      10.448  14.554  20.202  0.00  0.00    +0.000 A 
ATOM     16  C   UNL     1      11.535  15.106  19.511  0.00  0.00    +0.000 A 
ATOM     17  C   UNL     1      12.333  16.121  20.057  0.00  0.00    +0.000 A 
ATOM     18  C   UNL     1      12.061  16.614  21.327  0.00  0.00    +0.000 A 
ATOM     19  C   UNL     1      10.981  16.102  22.043  0.00  0.00    +0.000 A 
ATOM     20  C   UNL     1      10.188  15.088  21.477  0.00  0.00    +0.000 A 
BRANCH  19  21
ATOM     21  C   UNL     1      10.684  16.599  23.347  0.00  0.00    +0.000 C 
ATOM     22  N   UNL     1      10.450  17.002  24.418  0.00  0.00    +0.000 NA
ENDBRANCH  19  21
ENDBRANCH  12  15
ENDBRANCH   6   9
BRANCH   1  23
ATOM     23  O   UNL     1       5.659   6.772  16.324  0.00  0.00    +0.000 OA
BRANCH  23  31
ATOM     24  C   UNL     1       6.024   3.714  15.629  0.00  0.00    +0.000 C 
ATOM     25  C   UNL     1       4.961   4.370  16.472  0.00  0.00    +0.000 A 
ATOM     26  C   UNL     1       3.967   3.478  16.936  0.00  0.00    +0.000 A 
ATOM     27  C   UNL     1       2.854   3.914  17.649  0.00  0.00    +0.000 A 
ATOM     28  C   UNL     1       2.702   5.271  17.901  0.00  0.00    +0.000 A 
ATOM     29  C   UNL     1       3.668   6.199  17.465  0.00  0.00    +0.000 A 
ATOM     30  C   UNL     1       3.404   7.653  17.761  0.00  0.00    +0.000 C 
ATOM     31  C   UNL     1       4.826   5.751  16.765  0.00  0.00    +0.000 A 
BRANCH  27  32
ATOM     32  C   UNL     1       1.878   2.968  18.103  0.00  0.00    +0.000 C 
ATOM     33  N   UNL     1       1.087   2.202  18.472  0.00  0.00    +0.000 NA
ENDBRANCH  27  32
ENDBRANCH  23  31
ENDBRANCH   1  23
TORSDOF 6
ENDMDL
MODEL 4
REMARK VINA RESULT:      -8.0      6.670      9.548
REMARK  Name = 
REMARK  8 active torsions:
REMARK  status: ('A' for Active; 'I' for Inactive)
REMARK    1  A    between atoms: C_1  and  C_2
REMARK    2  A    between atoms: C_4  and  C_5
REMARK    3  A    between atoms: C_8  and  C_9
REMARK    4  A    between atoms: C_10  and  O_11
REMARK    5  A    between atoms: O_11  and  C_12
REMARK    6  A    between atoms: N_17  and  C_18
REMARK    7  A    between atoms: N_21  and  C_22
REMARK    8  A    between atoms: C_26  and  C_27
REMARK                            x       y       z     vdW  Elec       q    Type
REMARK                         _______ _______ _______ _____ _____    ______ ____
ROOT
ATOM      1  C   UNL     1       3.283   6.820  18.691  0.00  0.00    +0.000 A 
ATOM      2  C   UNL     1       3.267   7.662  17.607  0.00  0.00    +0.000 A 
ATOM      3  C   UNL     1       2.408   8.728  17.718  0.00  0.00    +0.000 A 
ATOM      4  N   UNL     1       1.606   8.939  18.783  0.00  0.00    +0.000 NA
ATOM      5  C   UNL     1       1.638   8.017  19.748  0.00  0.00    +0.000 A 
ATOM      6  N   UNL     1       1.015   8.210  20.947  0.00  0.00    +0.000 N 
ATOM      7  N   UNL     1       2.411   6.920  19.710  0.00  0.00    +0.000 NA
ATOM      8  H   UNL     1       1.149   7.374  21.506  0.00  0.00    +0.000 HD
ENDROOT
BRANCH   6   9
ATOM      9  C   UNL     1      -0.185   8.984  21.228  0.00  0.00    +0.000 C 
ATOM     10  C   UNL     1      -0.240  10.335  20.507  0.00  0.00    +0.000 C 
ATOM     11  C   UNL     1       0.027  11.553  21.390  0.00  0.00    +0.000 C 
ATOM     12  N   UNL     1      -0.726  11.404  22.634  0.00  0.00    +0.000 N 
ATOM     13  C   UNL     1      -0.290  10.265  23.445  0.00  0.00    +0.000 C 
ATOM     14  C   UNL     1      -0.614   8.980  22.700  0.00  0.00    +0.000 C 
BRANCH  12  15
ATOM     15  C   UNL     1      -1.613  12.346  23.119  0.00  0.00    +0.000 A 
ATOM     16  C   UNL     1      -1.233  13.665  23.401  0.00  0.00    +0.000 A 
ATOM     17  C   UNL     1      -2.139  14.617  23.890  0.00  0.00    +0.000 A 
ATOM     18  C   UNL     1      -3.464  14.267  24.115  0.00  0.00    +0.000 A 
ATOM     19  C   UNL     1      -3.886  12.969  23.836  0.00  0.00    +0.000 A 
ATOM     20  C   UNL     1      -2.965  12.029  23.340  0.00  0.00    +0.000 A 
BRANCH  19  21
ATOM     21  C   UNL     1      -5.244  12.592  24.058  0.00  0.00    +0.000 C 
ATOM     22  N   UNL     1      -6.354  12.275  24.233  0.00  0.00    +0.000 NA
ENDBRANCH  19  21
ENDBRANCH  12  15
ENDBRANCH   6   9
BRANCH   1  23
ATOM     23  O   UNL     1       4.289   5.858  18.725  0.00  0.00    +0.000 OA
BRANCH  23  31
ATOM     24  C   UNL     1       6.876   7.120  17.427  0.00  0.00    +0.000 C 
ATOM     25  C   UNL     1       6.051   5.954  16.946  0.00  0.00    +0.000 A 
ATOM     26  C   UNL     1       6.475   5.425  15.705  0.00  0.00    +0.000 A 
ATOM     27  C   UNL     1       5.781   4.409  15.054  0.00  0.00    +0.000 A 
ATOM     28  C   UNL     1       4.623   3.906  15.633  0.00  0.00    +0.000 A 
ATOM     29  C   UNL     1       4.162   4.395  16.870  0.00  0.00    +0.000 A 
ATOM     30  C   UNL     1       2.882   3.807  17.406  0.00  0.00    +0.000 C 
ATOM     31  C   UNL     1       4.891   5.411  17.555  0.00  0.00    +0.000 A 
BRANCH  27  32
ATOM     32  C   UNL     1       6.257   3.904  13.801  0.00  0.00    +0.000 C 
ATOM     33  N   UNL     1       6.642   3.495  12.784  0.00  0.00    +0.000 NA
ENDBRANCH  27  32
ENDBRANCH  23  31
ENDBRANCH   1  23
TORSDOF 6
ENDMDL
MODEL 5
REMARK VINA RESULT:      -7.7      6.551      9.124
REMARK  Name = 
REMARK  8 active torsions:
REMARK  status: ('A' for Active; 'I' for Inactive)
REMARK    1  A    between atoms: C_1  and  C_2
REMARK    2  A    between atoms: C_4  and  C_5
REMARK    3  A    between atoms: C_8  and  C_9
REMARK    4  A    between atoms: C_10  and  O_11
REMARK    5  A    between atoms: O_11  and  C_12
REMARK    6  A    between atoms: N_17  and  C_18
REMARK    7  A    between atoms: N_21  and  C_22
REMARK    8  A    between atoms: C_26  and  C_27
REMARK                            x       y       z     vdW  Elec       q    Type
REMARK                         _______ _______ _______ _____ _____    ______ ____
ROOT
ATOM      1  C   UNL     1       3.329   6.831  18.662  0.00  0.00    +0.000 A 
ATOM      2  C   UNL     1       3.298   7.660  17.568  0.00  0.00    +0.000 A 
ATOM      3  C   UNL     1       2.425   8.716  17.670  0.00  0.00    +0.000 A 
ATOM      4  N   UNL     1       1.624   8.928  18.735  0.00  0.00    +0.000 NA
ATOM      5  C   UNL     1       1.672   8.019  19.710  0.00  0.00    +0.000 A 
ATOM      6  N   UNL     1       1.051   8.217  20.910  0.00  0.00    +0.000 N 
ATOM      7  N   UNL     1       2.460   6.932  19.682  0.00  0.00    +0.000 NA
ATOM      8  H   UNL     1       1.198   7.390  21.478  0.00  0.00    +0.000 HD
ENDROOT
BRANCH   6   9
ATOM      9  C   UNL     1      -0.159   8.978  21.186  0.00  0.00    +0.000 C 
ATOM     10  C   UNL     1      -0.198  10.354  20.513  0.00  0.00    +0.000 C 
ATOM     11  C   UNL     1       0.041  11.539  21.447  0.00  0.00    +0.000 C 
ATOM     12  N   UNL     1      -0.745  11.344  22.664  0.00  0.00    +0.000 N 
ATOM     13  C   UNL     1      -0.327  10.177  23.445  0.00  0.00    +0.000 C 
ATOM     14  C   UNL     1      -0.627   8.919  22.644  0.00  0.00    +0.000 C 
BRANCH  12  15
ATOM     15  C   UNL     1      -1.647  12.266  23.158  0.00  0.00    +0.000 A 
ATOM     16  C   UNL     1      -2.960  11.924  23.508  0.00  0.00    +0.000 A 
ATOM     17  C   UNL     1      -3.871  12.864  24.011  0.00  0.00    +0.000 A 
ATOM     18  C   UNL     1      -3.484  14.188  24.177  0.00  0.00    +0.000 A 
ATOM     19  C   UNL     1      -2.184  14.567  23.854  0.00  0.00    +0.000 A 
ATOM     20  C   UNL     1      -1.282  13.610  23.356  0.00  0.00    +0.000 A 
BRANCH  19  21
ATOM     21  C   UNL     1      -1.768  15.922  24.021  0.00  0.00    +0.000 C 
ATOM     22  N   UNL     1      -1.422  17.028  24.166  0.00  0.00    +0.000 NA
ENDBRANCH  19  21
ENDBRANCH  12  15
ENDBRANCH   6   9
BRANCH   1  23
ATOM     23  O   UNL     1       4.348   5.884  18.703  0.00  0.00    +0.000 OA
BRANCH  23  31
ATOM     24  C   UNL     1       6.928   7.150  17.397  0.00  0.00    +0.000 C 
ATOM     25  C   UNL     1       6.110   5.977  16.923  0.00  0.00    +0.000 A 
ATOM     26  C   UNL     1       6.538   5.442  15.686  0.00  0.00    +0.000 A 
ATOM     27  C   UNL     1       5.849   4.418  15.042  0.00  0.00    +0.000 A 
ATOM     28  C   UNL     1       4.693   3.913  15.623  0.00  0.00    +0.000 A 
ATOM     29  C   UNL     1       4.230   4.408  16.858  0.00  0.00    +0.000 A 
ATOM     30  C   UNL     1       2.952   3.816  17.397  0.00  0.00    +0.000 C 
ATOM     31  C   UNL     1       4.952   5.432  17.536  0.00  0.00    +0.000 A 
BRANCH  27  32
ATOM     32  C   UNL     1       6.328   3.907  13.793  0.00  0.00    +0.000 C 
ATOM     33  N   UNL     1       6.716   3.492  12.780  0.00  0.00    +0.000 NA
ENDBRANCH  27  32
ENDBRANCH  23  31
ENDBRANCH   1  23
TORSDOF 6
ENDMDL
MODEL 6
REMARK VINA RESULT:      -7.7      6.447      8.603
REMARK  Name = 
REMARK  8 active torsions:
REMARK  status: ('A' for Active; 'I' for Inactive)
REMARK    1  A    between atoms: C_1  and  C_2
REMARK    2  A    between atoms: C_4  and  C_5
REMARK    3  A    between atoms: C_8  and  C_9
REMARK    4  A    between atoms: C_10  and  O_11
REMARK    5  A    between atoms: O_11  and  C_12
REMARK    6  A    between atoms: N_17  and  C_18
REMARK    7  A    between atoms: N_21  and  C_22
REMARK    8  A    between atoms: C_26  and  C_27
REMARK                            x       y       z     vdW  Elec       q    Type
REMARK                         _______ _______ _______ _____ _____    ______ ____
ROOT
ATOM      1  C   UNL     1       3.861   4.434  19.943  0.00  0.00    +0.000 A 
ATOM      2  C   UNL     1       2.915   3.530  20.360  0.00  0.00    +0.000 A 
ATOM      3  C   UNL     1       1.642   4.035  20.462  0.00  0.00    +0.000 A 
ATOM      4  N   UNL     1       1.321   5.321  20.211  0.00  0.00    +0.000 NA
ATOM      5  C   UNL     1       2.328   6.137  19.891  0.00  0.00    +0.000 A 
ATOM      6  N   UNL     1       2.109   7.407  19.441  0.00  0.00    +0.000 N 
ATOM      7  N   UNL     1       3.610   5.747  19.809  0.00  0.00    +0.000 NA
ATOM      8  H   UNL     1       3.012   7.844  19.290  0.00  0.00    +0.000 HD
ENDROOT
BRANCH   6   9
ATOM      9  C   UNL     1       1.007   8.303  19.763  0.00  0.00    +0.000 C 
ATOM     10  C   UNL     1       1.055   9.643  19.021  0.00  0.00    +0.000 C 
ATOM     11  C   UNL     1       1.484  10.839  19.869  0.00  0.00    +0.000 C 
ATOM     12  N   UNL     1       0.779  10.783  21.149  0.00  0.00    +0.000 N 
ATOM     13  C   UNL     1       1.136   9.617  21.959  0.00  0.00    +0.000 C 
ATOM     14  C   UNL     1       0.650   8.361  21.252  0.00  0.00    +0.000 C 
BRANCH  12  15
ATOM     15  C   UNL     1       0.015  11.816  21.656  0.00  0.00    +0.000 A 
ATOM     16  C   UNL     1       0.359  13.164  21.483  0.00  0.00    +0.000 A 
ATOM     17  C   UNL     1      -0.423  14.208  21.999  0.00  0.00    +0.000 A 
ATOM     18  C   UNL     1      -1.581  13.925  22.712  0.00  0.00    +0.000 A 
ATOM     19  C   UNL     1      -1.965  12.599  22.895  0.00  0.00    +0.000 A 
ATOM     20  C   UNL     1      -1.173  11.565  22.366  0.00  0.00    +0.000 A 
BRANCH  19  21
ATOM     21  C   UNL     1      -3.154  12.289  23.622  0.00  0.00    +0.000 C 
ATOM     22  N   UNL     1      -4.120  12.033  24.224  0.00  0.00    +0.000 NA
ENDBRANCH  19  21
ENDBRANCH  12  15
ENDBRANCH   6   9
BRANCH   1  23
ATOM     23  O   UNL     1       5.113   3.924  19.610  0.00  0.00    +0.000 OA
BRANCH  23  31
ATOM     24  C   UNL     1       7.595   5.844  19.261  0.00  0.00    +0.000 C 
ATOM     25  C   UNL     1       6.826   5.093  18.204  0.00  0.00    +0.000 A 
ATOM     26  C   UNL     1       7.252   5.366  16.883  0.00  0.00    +0.000 A 
ATOM     27  C   UNL     1       6.601   4.841  15.770  0.00  0.00    +0.000 A 
ATOM     28  C   UNL     1       5.486   4.035  15.958  0.00  0.00    +0.000 A 
ATOM     29  C   UNL     1       5.027   3.728  17.254  0.00  0.00    +0.000 A 
ATOM     30  C   UNL     1       3.794   2.868  17.358  0.00  0.00    +0.000 C 
ATOM     31  C   UNL     1       5.712   4.236  18.396  0.00  0.00    +0.000 A 
BRANCH  27  32
ATOM     32  C   UNL     1       7.076   5.144  14.453  0.00  0.00    +0.000 C 
ATOM     33  N   UNL     1       7.462   5.388  13.385  0.00  0.00    +0.000 NA
ENDBRANCH  27  32
ENDBRANCH  23  31
ENDBRANCH   1  23
TORSDOF 6
ENDMDL
MODEL 7
REMARK VINA RESULT:      -7.6      6.480      8.399
REMARK  Name = 
REMARK  8 active torsions:
REMARK  status: ('A' for Active; 'I' for Inactive)
REMARK    1  A    between atoms: C_1  and  C_2
REMARK    2  A    between atoms: C_4  and  C_5
REMARK    3  A    between atoms: C_8  and  C_9
REMARK    4  A    between atoms: C_10  and  O_11
REMARK    5  A    between atoms: O_11  and  C_12
REMARK    6  A    between atoms: N_17  and  C_18
REMARK    7  A    between atoms: N_21  and  C_22
REMARK    8  A    between atoms: C_26  and  C_27
REMARK                            x       y       z     vdW  Elec       q    Type
REMARK                         _______ _______ _______ _____ _____    ______ ____
ROOT
ATOM      1  C   UNL     1       3.992   4.705  19.743  0.00  0.00    +0.000 A 
ATOM      2  C   UNL     1       3.156   3.709  20.183  0.00  0.00    +0.000 A 
ATOM      3  C   UNL     1       1.862   4.107  20.420  0.00  0.00    +0.000 A 
ATOM      4  N   UNL     1       1.427   5.375  20.272  0.00  0.00    +0.000 NA
ATOM      5  C   UNL     1       2.339   6.283  19.918  0.00  0.00    +0.000 A 
ATOM      6  N   UNL     1       1.989   7.554  19.563  0.00  0.00    +0.000 N 
ATOM      7  N   UNL     1       3.634   6.000  19.707  0.00  0.00    +0.000 NA
ATOM      8  H   UNL     1       2.840   8.068  19.363  0.00  0.00    +0.000 HD
ENDROOT
BRANCH   6   9
ATOM      9  C   UNL     1       0.856   8.343  20.026  0.00  0.00    +0.000 C 
ATOM     10  C   UNL     1       0.631   9.636  19.236  0.00  0.00    +0.000 C 
ATOM     11  C   UNL     1       1.048  10.917  19.957  0.00  0.00    +0.000 C 
ATOM     12  N   UNL     1       0.565  10.857  21.336  0.00  0.00    +0.000 N 
ATOM     13  C   UNL     1       1.178   9.783  22.120  0.00  0.00    +0.000 C 
ATOM     14  C   UNL     1       0.734   8.445  21.550  0.00  0.00    +0.000 C 
BRANCH  12  15
ATOM     15  C   UNL     1      -0.223  11.828  21.921  0.00  0.00    +0.000 A 
ATOM     16  C   UNL     1      -1.351  11.521  22.695  0.00  0.00    +0.000 A 
ATOM     17  C   UNL     1      -2.145  12.512  23.289  0.00  0.00    +0.000 A 
ATOM     18  C   UNL     1      -1.828  13.854  23.119  0.00  0.00    +0.000 A 
ATOM     19  C   UNL     1      -0.708  14.202  22.368  0.00  0.00    +0.000 A 
ATOM     20  C   UNL     1       0.081  13.195  21.784  0.00  0.00    +0.000 A 
BRANCH  19  21
ATOM     21  C   UNL     1      -0.365  15.575  22.185  0.00  0.00    +0.000 C 
ATOM     22  N   UNL     1      -0.091  16.699  22.028  0.00  0.00    +0.000 NA
ENDBRANCH  19  21
ENDBRANCH  12  15
ENDBRANCH   6   9
BRANCH   1  23
ATOM     23  O   UNL     1       5.245   4.313  19.279  0.00  0.00    +0.000 OA
BRANCH  23  31
ATOM     24  C   UNL     1       3.645   3.234  16.780  0.00  0.00    +0.000 C 
ATOM     25  C   UNL     1       4.916   4.043  16.809  0.00  0.00    +0.000 A 
ATOM     26  C   UNL     1       5.482   4.267  15.533  0.00  0.00    +0.000 A 
ATOM     27  C   UNL     1       6.705   4.912  15.366  0.00  0.00    +0.000 A 
ATOM     28  C   UNL     1       7.403   5.336  16.489  0.00  0.00    +0.000 A 
ATOM     29  C   UNL     1       6.878   5.141  17.782  0.00  0.00    +0.000 A 
ATOM     30  C   UNL     1       7.720   5.611  18.941  0.00  0.00    +0.000 C 
ATOM     31  C   UNL     1       5.610   4.513  17.953  0.00  0.00    +0.000 A 
BRANCH  27  32
ATOM     32  C   UNL     1       7.232   5.120  14.050  0.00  0.00    +0.000 C 
ATOM     33  N   UNL     1       7.661   5.288  12.984  0.00  0.00    +0.000 NA
ENDBRANCH  27  32
ENDBRANCH  23  31
ENDBRANCH   1  23
TORSDOF 6
ENDMDL
MODEL 8
REMARK VINA RESULT:      -7.5      6.722      9.629
REMARK  Name = 
REMARK  8 active torsions:
REMARK  status: ('A' for Active; 'I' for Inactive)
REMARK    1  A    between atoms: C_1  and  C_2
REMARK    2  A    between atoms: C_4  and  C_5
REMARK    3  A    between atoms: C_8  and  C_9
REMARK    4  A    between atoms: C_10  and  O_11
REMARK    5  A    between atoms: O_11  and  C_12
REMARK    6  A    between atoms: N_17  and  C_18
REMARK    7  A    between atoms: N_21  and  C_22
REMARK    8  A    between atoms: C_26  and  C_27
REMARK                            x       y       z     vdW  Elec       q    Type
REMARK                         _______ _______ _______ _____ _____    ______ ____
ROOT
ATOM      1  C   UNL     1       3.193   7.032  18.574  0.00  0.00    +0.000 A 
ATOM      2  C   UNL     1       3.134   7.931  17.538  0.00  0.00    +0.000 A 
ATOM      3  C   UNL     1       2.257   8.971  17.729  0.00  0.00    +0.000 A 
ATOM      4  N   UNL     1       1.479   9.108  18.823  0.00  0.00    +0.000 NA
ATOM      5  C   UNL     1       1.554   8.136  19.735  0.00  0.00    +0.000 A 
ATOM      6  N   UNL     1       0.958   8.250  20.958  0.00  0.00    +0.000 N 
ATOM      7  N   UNL     1       2.346   7.059  19.617  0.00  0.00    +0.000 NA
ATOM      8  H   UNL     1       1.122   7.388  21.466  0.00  0.00    +0.000 HD
ENDROOT
BRANCH   6   9
ATOM      9  C   UNL     1      -0.250   8.983  21.310  0.00  0.00    +0.000 C 
ATOM     10  C   UNL     1      -0.435  10.290  20.533  0.00  0.00    +0.000 C 
ATOM     11  C   UNL     1      -0.152  11.563  21.329  0.00  0.00    +0.000 C 
ATOM     12  N   UNL     1      -0.783  11.446  22.643  0.00  0.00    +0.000 N 
ATOM     13  C   UNL     1      -0.220  10.371  23.464  0.00  0.00    +0.000 C 
ATOM     14  C   UNL     1      -0.545   9.036  22.813  0.00  0.00    +0.000 C 
BRANCH  12  15
ATOM     15  C   UNL     1      -1.668  12.370  23.161  0.00  0.00    +0.000 A 
ATOM     16  C   UNL     1      -1.277  13.663  23.534  0.00  0.00    +0.000 A 
ATOM     17  C   UNL     1      -2.182  14.599  24.057  0.00  0.00    +0.000 A 
ATOM     18  C   UNL     1      -3.518  14.257  24.225  0.00  0.00    +0.000 A 
ATOM     19  C   UNL     1      -3.950  12.986  23.854  0.00  0.00    +0.000 A 
ATOM     20  C   UNL     1      -3.031  12.063  23.325  0.00  0.00    +0.000 A 
BRANCH  19  21
ATOM     21  C   UNL     1      -5.320  12.619  24.016  0.00  0.00    +0.000 C 
ATOM     22  N   UNL     1      -6.438  12.308  24.145  0.00  0.00    +0.000 NA
ENDBRANCH  19  21
ENDBRANCH  12  15
ENDBRANCH   6   9
BRANCH   1  23
ATOM     23  O   UNL     1       4.218   6.091  18.531  0.00  0.00    +0.000 OA
BRANCH  23  31
ATOM     24  C   UNL     1       2.812   3.575  17.240  0.00  0.00    +0.000 C 
ATOM     25  C   UNL     1       3.985   4.369  16.725  0.00  0.00    +0.000 A 
ATOM     26  C   UNL     1       4.556   3.845  15.542  0.00  0.00    +0.000 A 
ATOM     27  C   UNL     1       5.704   4.385  14.969  0.00  0.00    +0.000 A 
ATOM     28  C   UNL     1       6.322   5.465  15.586  0.00  0.00    +0.000 A 
ATOM     29  C   UNL     1       5.789   6.026  16.762  0.00  0.00    +0.000 A 
ATOM     30  C   UNL     1       6.544   7.179  17.375  0.00  0.00    +0.000 C 
ATOM     31  C   UNL     1       4.594   5.497  17.332  0.00  0.00    +0.000 A 
BRANCH  27  32
ATOM     32  C   UNL     1       6.238   3.820  13.766  0.00  0.00    +0.000 C 
ATOM     33  N   UNL     1       6.672   3.364  12.790  0.00  0.00    +0.000 NA
ENDBRANCH  27  32
ENDBRANCH  23  31
ENDBRANCH   1  23
TORSDOF 6
ENDMDL
MODEL 9
REMARK VINA RESULT:      -7.4      6.491      8.188
REMARK  Name = 
REMARK  8 active torsions:
REMARK  status: ('A' for Active; 'I' for Inactive)
REMARK    1  A    between atoms: C_1  and  C_2
REMARK    2  A    between atoms: C_4  and  C_5
REMARK    3  A    between atoms: C_8  and  C_9
REMARK    4  A    between atoms: C_10  and  O_11
REMARK    5  A    between atoms: O_11  and  C_12
REMARK    6  A    between atoms: N_17  and  C_18
REMARK    7  A    between atoms: N_21  and  C_22
REMARK    8  A    between atoms: C_26  and  C_27
REMARK                            x       y       z     vdW  Elec       q    Type
REMARK                         _______ _______ _______ _____ _____    ______ ____
ROOT
ATOM      1  C   UNL     1       3.614   5.048  19.880  0.00  0.00    +0.000 A 
ATOM      2  C   UNL     1       2.705   4.196  20.457  0.00  0.00    +0.000 A 
ATOM      3  C   UNL     1       1.454   4.731  20.647  0.00  0.00    +0.000 A 
ATOM      4  N   UNL     1       1.124   6.001  20.333  0.00  0.00    +0.000 NA
ATOM      5  C   UNL     1       2.103   6.772  19.853  0.00  0.00    +0.000 A 
ATOM      6  N   UNL     1       1.854   8.009  19.332  0.00  0.00    +0.000 N 
ATOM      7  N   UNL     1       3.366   6.352  19.672  0.00  0.00    +0.000 NA
ATOM      8  H   UNL     1       2.742   8.416  19.058  0.00  0.00    +0.000 HD
ENDROOT
BRANCH   6   9
ATOM      9  C   UNL     1       0.800   8.947  19.693  0.00  0.00    +0.000 C 
ATOM     10  C   UNL     1       0.451   9.949  18.587  0.00  0.00    +0.000 C 
ATOM     11  C   UNL     1       0.966  11.369  18.814  0.00  0.00    +0.000 C 
ATOM     12  N   UNL     1       0.698  11.749  20.200  0.00  0.00    +0.000 N 
ATOM     13  C   UNL     1       1.430  10.939  21.176  0.00  0.00    +0.000 C 
ATOM     14  C   UNL     1       0.911   9.510  21.113  0.00  0.00    +0.000 C 
BRANCH  12  15
ATOM     15  C   UNL     1       0.004  12.884  20.570  0.00  0.00    +0.000 A 
ATOM     16  C   UNL     1      -0.606  13.734  19.637  0.00  0.00    +0.000 A 
ATOM     17  C   UNL     1      -1.312  14.884  20.019  0.00  0.00    +0.000 A 
ATOM     18  C   UNL     1      -1.425  15.217  21.363  0.00  0.00    +0.000 A 
ATOM     19  C   UNL     1      -0.845  14.392  22.324  0.00  0.00    +0.000 A 
ATOM     20  C   UNL     1      -0.145  13.240  21.923  0.00  0.00    +0.000 A 
BRANCH  19  21
ATOM     21  C   UNL     1      -0.953  14.717  23.709  0.00  0.00    +0.000 C 
ATOM     22  N   UNL     1      -1.034  14.988  24.842  0.00  0.00    +0.000 NA
ENDBRANCH  19  21
ENDBRANCH  12  15
ENDBRANCH   6   9
BRANCH   1  23
ATOM     23  O   UNL     1       4.820   4.492  19.463  0.00  0.00    +0.000 OA
BRANCH  23  31
ATOM     24  C   UNL     1       3.300   3.365  16.936  0.00  0.00    +0.000 C 
ATOM     25  C   UNL     1       4.597   4.132  16.993  0.00  0.00    +0.000 A 
ATOM     26  C   UNL     1       5.228   4.285  15.737  0.00  0.00    +0.000 A 
ATOM     27  C   UNL     1       6.479   4.882  15.603  0.00  0.00    +0.000 A 
ATOM     28  C   UNL     1       7.139   5.328  16.741  0.00  0.00    +0.000 A 
ATOM     29  C   UNL     1       6.549   5.204  18.014  0.00  0.00    +0.000 A 
ATOM     30  C   UNL     1       7.352   5.692  19.192  0.00  0.00    +0.000 C 
ATOM     31  C   UNL     1       5.253   4.625  18.150  0.00  0.00    +0.000 A 
BRANCH  27  32
ATOM     32  C   UNL     1       7.073   5.018  14.307  0.00  0.00    +0.000 C 
ATOM     33  N   UNL     1       7.555   5.128  13.256  0.00  0.00    +0.000 NA
ENDBRANCH  27  32
ENDBRANCH  23  31
ENDBRANCH   1  23
TORSDOF 6
ENDMDL
