MODEL 1
REMARK VINA RESULT:      -6.9      0.000      0.000
REMARK  Name = 
REMARK  4 active torsions:
REMARK  status: ('A' for Active; 'I' for Inactive)
REMARK    1  A    between atoms: C_1  and  C_2
REMARK    2  A    between atoms: C_6  and  C_7
REMARK    3  A    between atoms: C_11  and  C_12
REMARK    4  A    between atoms: C_17  and  C_18
REMARK                            x       y       z     vdW  Elec       q    Type
REMARK                         _______ _______ _______ _____ _____    ______ ____
ROOT
ATOM      1  C   UNL     1       1.636   8.942  19.049  0.00  0.00    +0.000 C 
ATOM      2  C   UNL     1       0.756   9.819  19.937  0.00  0.00    +0.000 C 
ATOM      3  C   UNL     1      -0.394  10.449  19.662  0.00  0.00    +0.000 C 
ATOM      4  C   UNL     1      -0.890  10.206  18.257  0.00  0.00    +0.000 C 
ATOM      5  C   UNL     1      -2.349  10.125  18.401  0.00  0.00    +0.000 C 
ATOM      6  C   UNL     1      -3.153  10.156  17.157  0.00  0.00    +0.000 C 
ATOM      7  C   UNL     1      -2.559  10.774  15.927  0.00  0.00    +0.000 C 
ATOM      8  C   UNL     1      -4.400  10.455  17.513  0.00  0.00    +0.000 C 
ATOM      9  C   UNL     1      -4.678  11.944  17.523  0.00  0.00    +0.000 C 
ATOM     10  C   UNL     1      -5.080  12.422  18.895  0.00  0.00    +0.000 C 
ATOM     11  C   UNL     1      -6.454  13.030  19.019  0.00  0.00    +0.000 C 
ATOM     12  C   UNL     1      -7.473  12.547  17.993  0.00  0.00    +0.000 C 
ATOM     13  C   UNL     1      -6.836  12.709  20.459  0.00  0.00    +0.000 C 
ATOM     14  O   UNL     1      -7.668  11.844  20.735  0.00  0.00    +0.000 OA
ATOM     15  C   UNL     1      -6.080  13.467  21.550  0.00  0.00    +0.000 C 
ATOM     16  C   UNL     1      -4.670  12.862  22.086  0.00  0.00    +0.000 C 
ATOM     17  C   UNL     1      -3.204  13.078  21.360  0.00  0.00    +0.000 C 
ATOM     18  C   UNL     1      -3.208  14.601  21.059  0.00  0.00    +0.000 C 
ATOM     19  C   UNL     1      -2.018  12.389  20.990  0.00  0.00    +0.000 C 
ATOM     20  C   UNL     1      -1.195  10.929  20.927  0.00  0.00    +0.000 C 
ATOM     21  O   UNL     1      -0.086  10.838  21.870  0.00  0.00    +0.000 OA
ATOM     22  C   UNL     1       0.941  10.048  21.375  0.00  0.00    +0.000 C 
ATOM     23  O   UNL     1       1.878   9.600  22.034  0.00  0.00    +0.000 OA
ENDROOT
TORSDOF 0
ENDMDL
MODEL 2
REMARK VINA RESULT:      -6.8      2.124      3.694
REMARK  Name = 
REMARK  4 active torsions:
REMARK  status: ('A' for Active; 'I' for Inactive)
REMARK    1  A    between atoms: C_1  and  C_2
REMARK    2  A    between atoms: C_6  and  C_7
REMARK    3  A    between atoms: C_11  and  C_12
REMARK    4  A    between atoms: C_17  and  C_18
REMARK                            x       y       z     vdW  Elec       q    Type
REMARK                         _______ _______ _______ _____ _____    ______ ____
ROOT
ATOM      1  C   UNL     1      -2.675   9.940  15.494  0.00  0.00    +0.000 C 
ATOM      2  C   UNL     1      -2.280  10.404  16.895  0.00  0.00    +0.000 C 
ATOM      3  C   UNL     1      -2.978  11.098  17.804  0.00  0.00    +0.000 C 
ATOM      4  C   UNL     1      -4.383  11.429  17.359  0.00  0.00    +0.000 C 
ATOM      5  C   UNL     1      -5.185  11.306  18.582  0.00  0.00    +0.000 C 
ATOM      6  C   UNL     1      -6.571  11.827  18.536  0.00  0.00    +0.000 C 
ATOM      7  C   UNL     1      -6.917  12.874  17.520  0.00  0.00    +0.000 C 
ATOM      8  C   UNL     1      -6.970  11.970  19.798  0.00  0.00    +0.000 C 
ATOM      9  C   UNL     1      -6.661  13.337  20.370  0.00  0.00    +0.000 C 
ATOM     10  C   UNL     1      -5.750  13.241  21.568  0.00  0.00    +0.000 C 
ATOM     11  C   UNL     1      -6.298  13.760  22.873  0.00  0.00    +0.000 C 
ATOM     12  C   UNL     1      -7.817  13.724  23.000  0.00  0.00    +0.000 C 
ATOM     13  C   UNL     1      -5.578  12.903  23.906  0.00  0.00    +0.000 C 
ATOM     14  O   UNL     1      -6.151  12.004  24.521  0.00  0.00    +0.000 OA
ATOM     15  C   UNL     1      -4.083  13.168  24.089  0.00  0.00    +0.000 C 
ATOM     16  C   UNL     1      -3.029  12.393  23.124  0.00  0.00    +0.000 C 
ATOM     17  C   UNL     1      -2.606  12.868  21.601  0.00  0.00    +0.000 C 
ATOM     18  C   UNL     1      -2.348  14.386  21.792  0.00  0.00    +0.000 C 
ATOM     19  C   UNL     1      -2.377  12.372  20.290  0.00  0.00    +0.000 C 
ATOM     20  C   UNL     1      -2.386  11.049  19.259  0.00  0.00    +0.000 C 
ATOM     21  O   UNL     1      -1.054  10.589  18.881  0.00  0.00    +0.000 OA
ATOM     22  C   UNL     1      -1.045  10.051  17.603  0.00  0.00    +0.000 C 
ATOM     23  O   UNL     1      -0.138   9.374  17.120  0.00  0.00    +0.000 OA
ENDROOT
TORSDOF 0
ENDMDL
MODEL 3
REMARK VINA RESULT:      -6.4      2.846      4.999
REMARK  Name = 
REMARK  4 active torsions:
REMARK  status: ('A' for Active; 'I' for Inactive)
REMARK    1  A    between atoms: C_1  and  C_2
REMARK    2  A    between atoms: C_6  and  C_7
REMARK    3  A    between atoms: C_11  and  C_12
REMARK    4  A    between atoms: C_17  and  C_18
REMARK                            x       y       z     vdW  Elec       q    Type
REMARK                         _______ _______ _______ _____ _____    ______ ____
ROOT
ATOM      1  C   UNL     1      -0.392   9.401  17.402  0.00  0.00    +0.000 C 
ATOM      2  C   UNL     1      -1.614  10.277  17.665  0.00  0.00    +0.000 C 
ATOM      3  C   UNL     1      -2.050  10.834  18.803  0.00  0.00    +0.000 C 
ATOM      4  C   UNL     1      -1.152  10.564  19.986  0.00  0.00    +0.000 C 
ATOM      5  C   UNL     1      -1.187  11.814  20.756  0.00  0.00    +0.000 C 
ATOM      6  C   UNL     1      -0.613  11.783  22.121  0.00  0.00    +0.000 C 
ATOM      7  C   UNL     1      -0.523  10.469  22.838  0.00  0.00    +0.000 C 
ATOM      8  C   UNL     1      -1.079  12.855  22.758  0.00  0.00    +0.000 C 
ATOM      9  C   UNL     1      -2.381  12.597  23.487  0.00  0.00    +0.000 C 
ATOM     10  C   UNL     1      -3.488  13.481  22.970  0.00  0.00    +0.000 C 
ATOM     11  C   UNL     1      -4.108  14.432  23.963  0.00  0.00    +0.000 C 
ATOM     12  C   UNL     1      -3.202  14.850  25.116  0.00  0.00    +0.000 C 
ATOM     13  C   UNL     1      -4.555  15.593  23.084  0.00  0.00    +0.000 C 
ATOM     14  O   UNL     1      -3.962  16.672  23.078  0.00  0.00    +0.000 OA
ATOM     15  C   UNL     1      -5.738  15.327  22.153  0.00  0.00    +0.000 C 
ATOM     16  C   UNL     1      -5.448  14.694  20.684  0.00  0.00    +0.000 C 
ATOM     17  C   UNL     1      -5.240  13.089  20.362  0.00  0.00    +0.000 C 
ATOM     18  C   UNL     1      -6.410  12.443  21.150  0.00  0.00    +0.000 C 
ATOM     19  C   UNL     1      -4.431  12.184  19.625  0.00  0.00    +0.000 C 
ATOM     20  C   UNL     1      -3.115  11.974  18.606  0.00  0.00    +0.000 C 
ATOM     21  O   UNL     1      -3.480  11.627  17.238  0.00  0.00    +0.000 OA
ATOM     22  C   UNL     1      -2.525  10.814  16.646  0.00  0.00    +0.000 C 
ATOM     23  O   UNL     1      -2.442  10.568  15.444  0.00  0.00    +0.000 OA
ENDROOT
TORSDOF 0
ENDMDL
MODEL 4
REMARK VINA RESULT:      -6.3      9.650     11.915
REMARK  Name = 
REMARK  4 active torsions:
REMARK  status: ('A' for Active; 'I' for Inactive)
REMARK    1  A    between atoms: C_1  and  C_2
REMARK    2  A    between atoms: C_6  and  C_7
REMARK    3  A    between atoms: C_11  and  C_12
REMARK    4  A    between atoms: C_17  and  C_18
REMARK                            x       y       z     vdW  Elec       q    Type
REMARK                         _______ _______ _______ _____ _____    ______ ____
ROOT
ATOM      1  C   UNL     1      12.253  11.458  19.456  0.00  0.00    +0.000 C 
ATOM      2  C   UNL     1      11.220  12.431  18.892  0.00  0.00    +0.000 C 
ATOM      3  C   UNL     1      10.058  12.852  19.409  0.00  0.00    +0.000 C 
ATOM      4  C   UNL     1       9.770  12.288  20.779  0.00  0.00    +0.000 C 
ATOM      5  C   UNL     1       9.124  13.395  21.496  0.00  0.00    +0.000 C 
ATOM      6  C   UNL     1       8.477  13.076  22.790  0.00  0.00    +0.000 C 
ATOM      7  C   UNL     1       8.045  11.665  23.054  0.00  0.00    +0.000 C 
ATOM      8  C   UNL     1       7.655  14.085  23.066  0.00  0.00    +0.000 C 
ATOM      9  C   UNL     1       6.257  13.884  22.517  0.00  0.00    +0.000 C 
ATOM     10  C   UNL     1       5.886  14.972  21.541  0.00  0.00    +0.000 C 
ATOM     11  C   UNL     1       4.698  15.825  21.907  0.00  0.00    +0.000 C 
ATOM     12  C   UNL     1       4.414  15.938  23.400  0.00  0.00    +0.000 C 
ATOM     13  C   UNL     1       5.023  17.158  21.243  0.00  0.00    +0.000 C 
ATOM     14  O   UNL     1       5.380  18.140  21.894  0.00  0.00    +0.000 OA
ATOM     15  C   UNL     1       4.953  17.194  19.717  0.00  0.00    +0.000 C 
ATOM     16  C   UNL     1       6.270  16.769  18.865  0.00  0.00    +0.000 C 
ATOM     17  C   UNL     1       6.705  15.221  18.493  0.00  0.00    +0.000 C 
ATOM     18  C   UNL     1       5.364  14.614  18.001  0.00  0.00    +0.000 C 
ATOM     19  C   UNL     1       7.824  14.348  18.440  0.00  0.00    +0.000 C 
ATOM     20  C   UNL     1       9.464  14.135  18.721  0.00  0.00    +0.000 C 
ATOM     21  O   UNL     1      10.264  14.057  17.505  0.00  0.00    +0.000 OA
ATOM     22  C   UNL     1      11.366  13.232  17.672  0.00  0.00    +0.000 C 
ATOM     23  O   UNL     1      12.333  13.170  16.913  0.00  0.00    +0.000 OA
ENDROOT
TORSDOF 0
ENDMDL
MODEL 5
REMARK VINA RESULT:      -6.1      2.773      4.775
REMARK  Name = 
REMARK  4 active torsions:
REMARK  status: ('A' for Active; 'I' for Inactive)
REMARK    1  A    between atoms: C_1  and  C_2
REMARK    2  A    between atoms: C_6  and  C_7
REMARK    3  A    between atoms: C_11  and  C_12
REMARK    4  A    between atoms: C_17  and  C_18
REMARK                            x       y       z     vdW  Elec       q    Type
REMARK                         _______ _______ _______ _____ _____    ______ ____
ROOT
ATOM      1  C   UNL     1      -0.511   9.752  17.449  0.00  0.00    +0.000 C 
ATOM      2  C   UNL     1      -1.962  10.226  17.499  0.00  0.00    +0.000 C 
ATOM      3  C   UNL     1      -2.644  10.817  18.490  0.00  0.00    +0.000 C 
ATOM      4  C   UNL     1      -1.812  11.073  19.723  0.00  0.00    +0.000 C 
ATOM      5  C   UNL     1      -2.295  12.367  20.221  0.00  0.00    +0.000 C 
ATOM      6  C   UNL     1      -1.859  12.774  21.576  0.00  0.00    +0.000 C 
ATOM      7  C   UNL     1      -1.431  11.716  22.548  0.00  0.00    +0.000 C 
ATOM      8  C   UNL     1      -2.685  13.742  21.970  0.00  0.00    +0.000 C 
ATOM      9  C   UNL     1      -3.903  13.223  22.707  0.00  0.00    +0.000 C 
ATOM     10  C   UNL     1      -5.178  13.596  21.996  0.00  0.00    +0.000 C 
ATOM     11  C   UNL     1      -6.144  14.467  22.760  0.00  0.00    +0.000 C 
ATOM     12  C   UNL     1      -5.513  15.359  23.823  0.00  0.00    +0.000 C 
ATOM     13  C   UNL     1      -6.849  15.240  21.652  0.00  0.00    +0.000 C 
ATOM     14  O   UNL     1      -6.618  16.431  21.440  0.00  0.00    +0.000 OA
ATOM     15  C   UNL     1      -7.808  14.443  20.768  0.00  0.00    +0.000 C 
ATOM     16  C   UNL     1      -7.212  13.673  19.467  0.00  0.00    +0.000 C 
ATOM     17  C   UNL     1      -6.494  12.188  19.484  0.00  0.00    +0.000 C 
ATOM     18  C   UNL     1      -7.473  11.361  20.361  0.00  0.00    +0.000 C 
ATOM     19  C   UNL     1      -5.386  11.467  18.965  0.00  0.00    +0.000 C 
ATOM     20  C   UNL     1      -3.986  11.501  18.041  0.00  0.00    +0.000 C 
ATOM     21  O   UNL     1      -4.108  10.807  16.764  0.00  0.00    +0.000 OA
ATOM     22  C   UNL     1      -2.902  10.245  16.373  0.00  0.00    +0.000 C 
ATOM     23  O   UNL     1      -2.645   9.818  15.248  0.00  0.00    +0.000 OA
ENDROOT
TORSDOF 0
ENDMDL
MODEL 6
REMARK VINA RESULT:      -6.1      1.900      6.368
REMARK  Name = 
REMARK  4 active torsions:
REMARK  status: ('A' for Active; 'I' for Inactive)
REMARK    1  A    between atoms: C_1  and  C_2
REMARK    2  A    between atoms: C_6  and  C_7
REMARK    3  A    between atoms: C_11  and  C_12
REMARK    4  A    between atoms: C_17  and  C_18
REMARK                            x       y       z     vdW  Elec       q    Type
REMARK                         _______ _______ _______ _____ _____    ______ ____
ROOT
ATOM      1  C   UNL     1      -7.737  12.867  19.050  0.00  0.00    +0.000 C 
ATOM      2  C   UNL     1      -6.487  13.178  19.871  0.00  0.00    +0.000 C 
ATOM      3  C   UNL     1      -5.264  12.634  19.822  0.00  0.00    +0.000 C 
ATOM      4  C   UNL     1      -5.119  11.577  18.754  0.00  0.00    +0.000 C 
ATOM      5  C   UNL     1      -3.757  11.769  18.241  0.00  0.00    +0.000 C 
ATOM      6  C   UNL     1      -3.211  10.711  17.360  0.00  0.00    +0.000 C 
ATOM      7  C   UNL     1      -3.785   9.329  17.448  0.00  0.00    +0.000 C 
ATOM      8  C   UNL     1      -1.891  10.880  17.328  0.00  0.00    +0.000 C 
ATOM      9  C   UNL     1      -1.165  10.110  18.412  0.00  0.00    +0.000 C 
ATOM     10  C   UNL     1      -0.402  11.033  19.328  0.00  0.00    +0.000 C 
ATOM     11  C   UNL     1       1.093  10.845  19.380  0.00  0.00    +0.000 C 
ATOM     12  C   UNL     1       1.716  10.246  18.124  0.00  0.00    +0.000 C 
ATOM     13  C   UNL     1       1.598  12.245  19.706  0.00  0.00    +0.000 C 
ATOM     14  O   UNL     1       2.152  12.951  18.863  0.00  0.00    +0.000 OA
ATOM     15  C   UNL     1       1.317  12.759  21.117  0.00  0.00    +0.000 C 
ATOM     16  C   UNL     1      -0.096  13.506  21.410  0.00  0.00    +0.000 C 
ATOM     17  C   UNL     1      -1.524  12.748  21.743  0.00  0.00    +0.000 C 
ATOM     18  C   UNL     1      -1.095  11.691  22.795  0.00  0.00    +0.000 C 
ATOM     19  C   UNL     1      -2.910  12.773  21.437  0.00  0.00    +0.000 C 
ATOM     20  C   UNL     1      -4.147  13.472  20.545  0.00  0.00    +0.000 C 
ATOM     21  O   UNL     1      -5.048  14.301  21.338  0.00  0.00    +0.000 OA
ATOM     22  C   UNL     1      -6.340  14.276  20.834  0.00  0.00    +0.000 C 
ATOM     23  O   UNL     1      -7.242  15.054  21.141  0.00  0.00    +0.000 OA
ENDROOT
TORSDOF 0
ENDMDL
MODEL 7
REMARK VINA RESULT:      -6.1     10.474     13.129
REMARK  Name = 
REMARK  4 active torsions:
REMARK  status: ('A' for Active; 'I' for Inactive)
REMARK    1  A    between atoms: C_1  and  C_2
REMARK    2  A    between atoms: C_6  and  C_7
REMARK    3  A    between atoms: C_11  and  C_12
REMARK    4  A    between atoms: C_17  and  C_18
REMARK                            x       y       z     vdW  Elec       q    Type
REMARK                         _______ _______ _______ _____ _____    ______ ____
ROOT
ATOM      1  C   UNL     1       5.403  13.743  25.652  0.00  0.00    +0.000 C 
ATOM      2  C   UNL     1       6.499  13.015  24.876  0.00  0.00    +0.000 C 
ATOM      3  C   UNL     1       6.959  13.218  23.634  0.00  0.00    +0.000 C 
ATOM      4  C   UNL     1       6.292  14.375  22.928  0.00  0.00    +0.000 C 
ATOM      5  C   UNL     1       7.374  14.992  22.151  0.00  0.00    +0.000 C 
ATOM      6  C   UNL     1       6.987  16.000  21.137  0.00  0.00    +0.000 C 
ATOM      7  C   UNL     1       5.595  15.969  20.581  0.00  0.00    +0.000 C 
ATOM      8  C   UNL     1       8.026  16.137  20.316  0.00  0.00    +0.000 C 
ATOM      9  C   UNL     1       7.984  15.187  19.136  0.00  0.00    +0.000 C 
ATOM     10  C   UNL     1       9.183  14.273  19.120  0.00  0.00    +0.000 C 
ATOM     11  C   UNL     1      10.086  14.372  17.917  0.00  0.00    +0.000 C 
ATOM     12  C   UNL     1      10.081  15.722  17.209  0.00  0.00    +0.000 C 
ATOM     13  C   UNL     1      11.446  13.984  18.484  0.00  0.00    +0.000 C 
ATOM     14  O   UNL     1      12.333  14.815  18.677  0.00  0.00    +0.000 OA
ATOM     15  C   UNL     1      11.629  12.516  18.870  0.00  0.00    +0.000 C 
ATOM     16  C   UNL     1      11.186  12.039  20.360  0.00  0.00    +0.000 C 
ATOM     17  C   UNL     1       9.651  11.640  20.814  0.00  0.00    +0.000 C 
ATOM     18  C   UNL     1       9.195  10.717  19.652  0.00  0.00    +0.000 C 
ATOM     19  C   UNL     1       8.704  11.816  21.858  0.00  0.00    +0.000 C 
ATOM     20  C   UNL     1       8.341  12.535  23.329  0.00  0.00    +0.000 C 
ATOM     21  O   UNL     1       8.316  11.601  24.449  0.00  0.00    +0.000 OA
ATOM     22  C   UNL     1       7.397  11.987  25.414  0.00  0.00    +0.000 C 
ATOM     23  O   UNL     1       7.332  11.538  26.558  0.00  0.00    +0.000 OA
ENDROOT
TORSDOF 0
ENDMDL
MODEL 8
REMARK VINA RESULT:      -6.0      2.215      4.325
REMARK  Name = 
REMARK  4 active torsions:
REMARK  status: ('A' for Active; 'I' for Inactive)
REMARK    1  A    between atoms: C_1  and  C_2
REMARK    2  A    between atoms: C_6  and  C_7
REMARK    3  A    between atoms: C_11  and  C_12
REMARK    4  A    between atoms: C_17  and  C_18
REMARK                            x       y       z     vdW  Elec       q    Type
REMARK                         _______ _______ _______ _____ _____    ______ ____
ROOT
ATOM      1  C   UNL     1       0.828  10.903  20.652  0.00  0.00    +0.000 C 
ATOM      2  C   UNL     1      -0.378  10.868  19.716  0.00  0.00    +0.000 C 
ATOM      3  C   UNL     1      -1.572  11.467  19.822  0.00  0.00    +0.000 C 
ATOM      4  C   UNL     1      -1.702  12.333  21.052  0.00  0.00    +0.000 C 
ATOM      5  C   UNL     1      -2.496  13.483  20.599  0.00  0.00    +0.000 C 
ATOM      6  C   UNL     1      -3.024  14.392  21.642  0.00  0.00    +0.000 C 
ATOM      7  C   UNL     1      -3.200  13.868  23.036  0.00  0.00    +0.000 C 
ATOM      8  C   UNL     1      -3.994  15.105  21.074  0.00  0.00    +0.000 C 
ATOM      9  C   UNL     1      -5.359  14.458  21.192  0.00  0.00    +0.000 C 
ATOM     10  C   UNL     1      -5.949  14.165  19.836  0.00  0.00    +0.000 C 
ATOM     11  C   UNL     1      -7.249  14.856  19.506  0.00  0.00    +0.000 C 
ATOM     12  C   UNL     1      -7.485  16.176  20.230  0.00  0.00    +0.000 C 
ATOM     13  C   UNL     1      -7.181  14.992  17.990  0.00  0.00    +0.000 C 
ATOM     14  O   UNL     1      -6.969  16.073  17.441  0.00  0.00    +0.000 OA
ATOM     15  C   UNL     1      -7.320  13.701  17.183  0.00  0.00    +0.000 C 
ATOM     16  C   UNL     1      -5.987  12.822  16.881  0.00  0.00    +0.000 C 
ATOM     17  C   UNL     1      -5.313  11.729  17.917  0.00  0.00    +0.000 C 
ATOM     18  C   UNL     1      -6.550  10.925  18.397  0.00  0.00    +0.000 C 
ATOM     19  C   UNL     1      -4.065  11.292  18.437  0.00  0.00    +0.000 C 
ATOM     20  C   UNL     1      -2.403  11.509  18.488  0.00  0.00    +0.000 C 
ATOM     21  O   UNL     1      -1.652  10.469  17.792  0.00  0.00    +0.000 OA
ATOM     22  C   UNL     1      -0.420  10.245  18.388  0.00  0.00    +0.000 C 
ATOM     23  O   UNL     1       0.510   9.614  17.888  0.00  0.00    +0.000 OA
ENDROOT
TORSDOF 0
ENDMDL
MODEL 9
REMARK VINA RESULT:      -5.9      1.768      1.806
REMARK  Name = 
REMARK  4 active torsions:
REMARK  status: ('A' for Active; 'I' for Inactive)
REMARK    1  A    between atoms: C_1  and  C_2
REMARK    2  A    between atoms: C_6  and  C_7
REMARK    3  A    between atoms: C_11  and  C_12
REMARK    4  A    between atoms: C_17  and  C_18
REMARK                            x       y       z     vdW  Elec       q    Type
REMARK                         _______ _______ _______ _____ _____    ______ ____
ROOT
ATOM      1  C   UNL     1       2.264  11.915  18.419  0.00  0.00    +0.000 C 
ATOM      2  C   UNL     1       1.227  12.509  19.370  0.00  0.00    +0.000 C 
ATOM      3  C   UNL     1      -0.109  12.555  19.271  0.00  0.00    +0.000 C 
ATOM      4  C   UNL     1      -0.644  11.875  18.034  0.00  0.00    +0.000 C 
ATOM      5  C   UNL     1      -1.888  11.238  18.484  0.00  0.00    +0.000 C 
ATOM      6  C   UNL     1      -2.792  10.708  17.437  0.00  0.00    +0.000 C 
ATOM      7  C   UNL     1      -2.704  11.272  16.051  0.00  0.00    +0.000 C 
ATOM      8  C   UNL     1      -3.982  10.536  18.009  0.00  0.00    +0.000 C 
ATOM      9  C   UNL     1      -4.872  11.759  17.914  0.00  0.00    +0.000 C 
ATOM     10  C   UNL     1      -5.243  12.279  19.279  0.00  0.00    +0.000 C 
ATOM     11  C   UNL     1      -6.713  12.289  19.617  0.00  0.00    +0.000 C 
ATOM     12  C   UNL     1      -7.556  11.252  18.883  0.00  0.00    +0.000 C 
ATOM     13  C   UNL     1      -6.711  12.115  21.131  0.00  0.00    +0.000 C 
ATOM     14  O   UNL     1      -7.039  11.055  21.666  0.00  0.00    +0.000 OA
ATOM     15  C   UNL     1      -6.212  13.303  21.953  0.00  0.00    +0.000 C 
ATOM     16  C   UNL     1      -4.619  13.433  22.249  0.00  0.00    +0.000 C 
ATOM     17  C   UNL     1      -3.510  14.086  21.216  0.00  0.00    +0.000 C 
ATOM     18  C   UNL     1      -4.215  15.390  20.759  0.00  0.00    +0.000 C 
ATOM     19  C   UNL     1      -2.207  13.881  20.687  0.00  0.00    +0.000 C 
ATOM     20  C   UNL     1      -0.852  12.896  20.614  0.00  0.00    +0.000 C 
ATOM     21  O   UNL     1       0.308  13.440  21.312  0.00  0.00    +0.000 OA
ATOM     22  C   UNL     1       1.494  13.057  20.704  0.00  0.00    +0.000 C 
ATOM     23  O   UNL     1       2.616  13.159  21.200  0.00  0.00    +0.000 OA
ENDROOT
TORSDOF 0
ENDMDL
