MODEL 1
REMARK VINA RESULT:      -6.4      0.000      0.000
REMARK  Name = 
REMARK  26 active torsions:
REMARK  status: ('A' for Active; 'I' for Inactive)
REMARK    1  A    between atoms: C_1  and  C_2
REMARK    2  A    between atoms: C_3  and  C_4
REMARK    3  A    between atoms: C_5  and  C_6
REMARK    4  A    between atoms: C_7  and  C_8
REMARK    5  A    between atoms: C_8  and  N_9
REMARK    6  A    between atoms: N_9  and  C_10
REMARK    7  A    between atoms: N_9  and  C_11
REMARK    8  A    between atoms: N_9  and  C_29
REMARK    9  A    between atoms: C_11  and  C_12
REMARK   10  A    between atoms: C_12  and  C_13
REMARK   11  A    between atoms: C_13  and  C_14
REMARK   12  A    between atoms: C_14  and  C_15
REMARK   13  A    between atoms: C_15  and  C_16
REMARK   14  A    between atoms: C_16  and  C_17
REMARK   15  A    between atoms: C_17  and  C_18
REMARK   16  A    between atoms: C_18  and  C_19
REMARK   17  A    between atoms: C_19  and  C_20
REMARK   18  A    between atoms: C_20  and  C_21
REMARK   19  A    between atoms: C_21  and  C_22
REMARK   20  A    between atoms: C_22  and  C_23
REMARK   21  A    between atoms: C_23  and  C_24
REMARK   22  A    between atoms: C_24  and  C_25
REMARK   23  A    between atoms: C_25  and  C_26
REMARK   24  A    between atoms: C_26  and  C_27
REMARK   25  A    between atoms: C_27  and  C_28
REMARK   26  A    between atoms: C_29  and  C_30
REMARK                            x       y       z     vdW  Elec       q    Type
REMARK                         _______ _______ _______ _____ _____    ______ ____
ROOT
ATOM      1  C   UNL     1       4.266   5.514  17.783  0.00  0.00    +0.000 C 
ENDROOT
BRANCH   1   2
ATOM      2  N   UNL     1       5.401   4.670  18.377  0.00  0.00    +0.000 N 
ATOM      3  C   UNL     1       6.227   5.533  19.321  0.00  0.00    +0.000 C 
BRANCH   2   4
ATOM      4  C   UNL     1       4.734   3.535  19.237  0.00  0.00    +0.000 C 
BRANCH   4   5
ATOM      5  C   UNL     1       3.234   3.656  19.318  0.00  0.00    +0.000 A 
ATOM      6  C   UNL     1       2.650   4.293  20.414  0.00  0.00    +0.000 A 
ATOM      7  C   UNL     1       1.311   4.091  20.714  0.00  0.00    +0.000 A 
ATOM      8  C   UNL     1       0.535   3.273  19.900  0.00  0.00    +0.000 A 
ATOM      9  C   UNL     1       1.074   2.723  18.743  0.00  0.00    +0.000 A 
ATOM     10  C   UNL     1       2.411   2.943  18.430  0.00  0.00    +0.000 A 
ENDBRANCH   4   5
ENDBRANCH   2   4
BRANCH   2  11
ATOM     11  C   UNL     1       6.299   4.122  17.263  0.00  0.00    +0.000 C 
BRANCH  11  13
ATOM     12  C   UNL     1       6.074   3.832  14.807  0.00  0.00    +0.000 C 
ATOM     13  C   UNL     1       5.885   4.562  15.909  0.00  0.00    +0.000 C 
BRANCH  12  15
ATOM     14  C   UNL     1       5.109   3.417  12.610  0.00  0.00    +0.000 C 
ATOM     15  C   UNL     1       5.543   4.268  13.544  0.00  0.00    +0.000 C 
BRANCH  14  18
ATOM     16  C   UNL     1       2.905   3.665   9.502  0.00  0.00    +0.000 C 
ATOM     17  C   UNL     1       3.530   3.205  10.777  0.00  0.00    +0.000 C 
ATOM     18  C   UNL     1       4.524   3.872  11.374  0.00  0.00    +0.000 C 
ENDBRANCH  14  18
ENDBRANCH  12  15
ENDBRANCH  11  13
ENDBRANCH   2  11
ENDBRANCH   1   2
BRANCH   1  19
ATOM     19  C   UNL     1       4.317   7.012  18.077  0.00  0.00    +0.000 C 
BRANCH  19  20
ATOM     20  C   UNL     1       3.234   7.742  17.279  0.00  0.00    +0.000 C 
BRANCH  20  21
ATOM     21  C   UNL     1       1.924   7.838  18.052  0.00  0.00    +0.000 C 
BRANCH  21  22
ATOM     22  C   UNL     1       2.171   7.756  19.543  0.00  0.00    +0.000 C 
BRANCH  22  23
ATOM     23  C   UNL     1       1.212   8.683  20.268  0.00  0.00    +0.000 C 
BRANCH  23  24
ATOM     24  C   UNL     1       1.007   8.185  21.684  0.00  0.00    +0.000 C 
BRANCH  24  25
ATOM     25  C   UNL     1       0.839   9.357  22.631  0.00  0.00    +0.000 C 
BRANCH  25  26
ATOM     26  C   UNL     1      -0.639   9.582  22.886  0.00  0.00    +0.000 C 
BRANCH  26  27
ATOM     27  C   UNL     1      -0.925  11.067  22.995  0.00  0.00    +0.000 C 
BRANCH  27  28
ATOM     28  C   UNL     1      -0.963  11.685  21.610  0.00  0.00    +0.000 C 
BRANCH  28  29
ATOM     29  C   UNL     1      -2.251  12.467  21.428  0.00  0.00    +0.000 C 
BRANCH  29  30
ATOM     30  C   UNL     1      -2.987  12.574  22.752  0.00  0.00    +0.000 C 
BRANCH  30  31
ATOM     31  C   UNL     1      -3.529  13.982  22.938  0.00  0.00    +0.000 C 
BRANCH  31  32
ATOM     32  C   UNL     1      -4.999  13.938  23.327  0.00  0.00    +0.000 C 
BRANCH  32  33
ATOM     33  C   UNL     1      -5.807  13.203  22.266  0.00  0.00    +0.000 C 
BRANCH  33  34
ATOM     34  C   UNL     1      -7.300  13.294  22.559  0.00  0.00    +0.000 C 
ATOM     35  C   UNL     1      -7.570  13.138  24.045  0.00  0.00    +0.000 C 
ENDBRANCH  33  34
ENDBRANCH  32  33
ENDBRANCH  31  32
ENDBRANCH  30  31
ENDBRANCH  29  30
ENDBRANCH  28  29
ENDBRANCH  27  28
ENDBRANCH  26  27
ENDBRANCH  25  26
ENDBRANCH  24  25
ENDBRANCH  23  24
ENDBRANCH  22  23
ENDBRANCH  21  22
ENDBRANCH  20  21
ENDBRANCH  19  20
ENDBRANCH   1  19
TORSDOF 23
ENDMDL
MODEL 2
REMARK VINA RESULT:      -6.3      5.925      8.346
REMARK  Name = 
REMARK  26 active torsions:
REMARK  status: ('A' for Active; 'I' for Inactive)
REMARK    1  A    between atoms: C_1  and  C_2
REMARK    2  A    between atoms: C_3  and  C_4
REMARK    3  A    between atoms: C_5  and  C_6
REMARK    4  A    between atoms: C_7  and  C_8
REMARK    5  A    between atoms: C_8  and  N_9
REMARK    6  A    between atoms: N_9  and  C_10
REMARK    7  A    between atoms: N_9  and  C_11
REMARK    8  A    between atoms: N_9  and  C_29
REMARK    9  A    between atoms: C_11  and  C_12
REMARK   10  A    between atoms: C_12  and  C_13
REMARK   11  A    between atoms: C_13  and  C_14
REMARK   12  A    between atoms: C_14  and  C_15
REMARK   13  A    between atoms: C_15  and  C_16
REMARK   14  A    between atoms: C_16  and  C_17
REMARK   15  A    between atoms: C_17  and  C_18
REMARK   16  A    between atoms: C_18  and  C_19
REMARK   17  A    between atoms: C_19  and  C_20
REMARK   18  A    between atoms: C_20  and  C_21
REMARK   19  A    between atoms: C_21  and  C_22
REMARK   20  A    between atoms: C_22  and  C_23
REMARK   21  A    between atoms: C_23  and  C_24
REMARK   22  A    between atoms: C_24  and  C_25
REMARK   23  A    between atoms: C_25  and  C_26
REMARK   24  A    between atoms: C_26  and  C_27
REMARK   25  A    between atoms: C_27  and  C_28
REMARK   26  A    between atoms: C_29  and  C_30
REMARK                            x       y       z     vdW  Elec       q    Type
REMARK                         _______ _______ _______ _____ _____    ______ ____
ROOT
ATOM      1  C   UNL     1       6.360   6.347  18.422  0.00  0.00    +0.000 C 
ENDROOT
BRANCH   1   2
ATOM      2  N   UNL     1       5.810   5.057  17.802  0.00  0.00    +0.000 N 
ATOM      3  C   UNL     1       5.397   4.101  18.913  0.00  0.00    +0.000 C 
BRANCH   2   4
ATOM      4  C   UNL     1       4.511   5.442  17.004  0.00  0.00    +0.000 C 
BRANCH   4   5
ATOM      5  C   UNL     1       3.277   4.732  17.501  0.00  0.00    +0.000 A 
ATOM      6  C   UNL     1       2.515   5.304  18.522  0.00  0.00    +0.000 A 
ATOM      7  C   UNL     1       1.627   4.530  19.254  0.00  0.00    +0.000 A 
ATOM      8  C   UNL     1       1.471   3.182  18.952  0.00  0.00    +0.000 A 
ATOM      9  C   UNL     1       2.140   2.626  17.867  0.00  0.00    +0.000 A 
ATOM     10  C   UNL     1       3.014   3.406  17.118  0.00  0.00    +0.000 A 
ENDBRANCH   4   5
ENDBRANCH   2   4
BRANCH   2  11
ATOM     11  C   UNL     1       6.872   4.391  16.920  0.00  0.00    +0.000 C 
BRANCH  11  13
ATOM     12  C   UNL     1       6.807   4.537  14.442  0.00  0.00    +0.000 C 
ATOM     13  C   UNL     1       6.362   4.004  15.583  0.00  0.00    +0.000 C 
BRANCH  12  15
ATOM     14  C   UNL     1       5.094   3.633  12.964  0.00  0.00    +0.000 C 
ATOM     15  C   UNL     1       6.353   4.031  13.175  0.00  0.00    +0.000 C 
BRANCH  14  18
ATOM     16  C   UNL     1       3.168   3.355   9.680  0.00  0.00    +0.000 C 
ATOM     17  C   UNL     1       3.646   3.799  11.022  0.00  0.00    +0.000 C 
ATOM     18  C   UNL     1       4.641   3.185  11.672  0.00  0.00    +0.000 C 
ENDBRANCH  14  18
ENDBRANCH  12  15
ENDBRANCH  11  13
ENDBRANCH   2  11
ENDBRANCH   1   2
BRANCH   1  19
ATOM     19  C   UNL     1       7.669   6.870  17.836  0.00  0.00    +0.000 C 
BRANCH  19  20
ATOM     20  C   UNL     1       7.646   8.399  17.776  0.00  0.00    +0.000 C 
BRANCH  20  21
ATOM     21  C   UNL     1       8.974   9.006  18.211  0.00  0.00    +0.000 C 
BRANCH  21  22
ATOM     22  C   UNL     1       8.762  10.354  18.866  0.00  0.00    +0.000 C 
BRANCH  22  23
ATOM     23  C   UNL     1       9.099  11.458  17.879  0.00  0.00    +0.000 C 
BRANCH  23  24
ATOM     24  C   UNL     1      10.602  11.534  17.707  0.00  0.00    +0.000 C 
BRANCH  24  25
ATOM     25  C   UNL     1      11.044  12.981  17.608  0.00  0.00    +0.000 C 
BRANCH  25  26
ATOM     26  C   UNL     1      12.021  13.280  18.728  0.00  0.00    +0.000 C 
BRANCH  26  27
ATOM     27  C   UNL     1      11.453  14.352  19.638  0.00  0.00    +0.000 C 
BRANCH  27  28
ATOM     28  C   UNL     1      10.671  13.705  20.765  0.00  0.00    +0.000 C 
BRANCH  28  29
ATOM     29  C   UNL     1       9.191  13.998  20.601  0.00  0.00    +0.000 C 
BRANCH  29  30
ATOM     30  C   UNL     1       8.382  13.153  21.569  0.00  0.00    +0.000 C 
BRANCH  30  31
ATOM     31  C   UNL     1       8.767  13.484  23.002  0.00  0.00    +0.000 C 
BRANCH  31  32
ATOM     32  C   UNL     1       7.684  14.324  23.663  0.00  0.00    +0.000 C 
BRANCH  32  33
ATOM     33  C   UNL     1       8.293  15.558  24.313  0.00  0.00    +0.000 C 
BRANCH  33  34
ATOM     34  C   UNL     1       9.662  15.867  23.718  0.00  0.00    +0.000 C 
ATOM     35  C   UNL     1      10.480  16.731  24.661  0.00  0.00    +0.000 C 
ENDBRANCH  33  34
ENDBRANCH  32  33
ENDBRANCH  31  32
ENDBRANCH  30  31
ENDBRANCH  29  30
ENDBRANCH  28  29
ENDBRANCH  27  28
ENDBRANCH  26  27
ENDBRANCH  25  26
ENDBRANCH  24  25
ENDBRANCH  23  24
ENDBRANCH  22  23
ENDBRANCH  21  22
ENDBRANCH  20  21
ENDBRANCH  19  20
ENDBRANCH   1  19
TORSDOF 23
ENDMDL
MODEL 3
REMARK VINA RESULT:      -6.2      4.771      7.960
REMARK  Name = 
REMARK  26 active torsions:
REMARK  status: ('A' for Active; 'I' for Inactive)
REMARK    1  A    between atoms: C_1  and  C_2
REMARK    2  A    between atoms: C_3  and  C_4
REMARK    3  A    between atoms: C_5  and  C_6
REMARK    4  A    between atoms: C_7  and  C_8
REMARK    5  A    between atoms: C_8  and  N_9
REMARK    6  A    between atoms: N_9  and  C_10
REMARK    7  A    between atoms: N_9  and  C_11
REMARK    8  A    between atoms: N_9  and  C_29
REMARK    9  A    between atoms: C_11  and  C_12
REMARK   10  A    between atoms: C_12  and  C_13
REMARK   11  A    between atoms: C_13  and  C_14
REMARK   12  A    between atoms: C_14  and  C_15
REMARK   13  A    between atoms: C_15  and  C_16
REMARK   14  A    between atoms: C_16  and  C_17
REMARK   15  A    between atoms: C_17  and  C_18
REMARK   16  A    between atoms: C_18  and  C_19
REMARK   17  A    between atoms: C_19  and  C_20
REMARK   18  A    between atoms: C_20  and  C_21
REMARK   19  A    between atoms: C_21  and  C_22
REMARK   20  A    between atoms: C_22  and  C_23
REMARK   21  A    between atoms: C_23  and  C_24
REMARK   22  A    between atoms: C_24  and  C_25
REMARK   23  A    between atoms: C_25  and  C_26
REMARK   24  A    between atoms: C_26  and  C_27
REMARK   25  A    between atoms: C_27  and  C_28
REMARK   26  A    between atoms: C_29  and  C_30
REMARK                            x       y       z     vdW  Elec       q    Type
REMARK                         _______ _______ _______ _____ _____    ______ ____
ROOT
ATOM      1  C   UNL     1       5.848   6.243  17.898  0.00  0.00    +0.000 C 
ENDROOT
BRANCH   1   2
ATOM      2  N   UNL     1       4.870   5.063  17.826  0.00  0.00    +0.000 N 
ATOM      3  C   UNL     1       5.345   4.082  16.763  0.00  0.00    +0.000 C 
BRANCH   2   4
ATOM      4  C   UNL     1       4.932   4.323  19.212  0.00  0.00    +0.000 C 
BRANCH   4   5
ATOM      5  C   UNL     1       3.591   3.809  19.670  0.00  0.00    +0.000 A 
ATOM      6  C   UNL     1       3.099   2.608  19.155  0.00  0.00    +0.000 A 
ATOM      7  C   UNL     1       1.749   2.304  19.248  0.00  0.00    +0.000 A 
ATOM      8  C   UNL     1       0.882   3.187  19.883  0.00  0.00    +0.000 A 
ATOM      9  C   UNL     1       1.376   4.332  20.498  0.00  0.00    +0.000 A 
ATOM     10  C   UNL     1       2.733   4.626  20.425  0.00  0.00    +0.000 A 
ENDBRANCH   4   5
ENDBRANCH   2   4
BRANCH   2  11
ATOM     11  C   UNL     1       3.461   5.555  17.479  0.00  0.00    +0.000 C 
BRANCH  11  13
ATOM     12  C   UNL     1       2.136   7.589  18.003  0.00  0.00    +0.000 C 
ATOM     13  C   UNL     1       3.293   7.017  17.658  0.00  0.00    +0.000 C 
BRANCH  12  15
ATOM     14  C   UNL     1       0.920   9.671  18.348  0.00  0.00    +0.000 C 
ATOM     15  C   UNL     1       2.072   8.999  18.275  0.00  0.00    +0.000 C 
BRANCH  14  18
ATOM     16  C   UNL     1      -0.352  13.202  19.047  0.00  0.00    +0.000 C 
ATOM     17  C   UNL     1      -0.280  11.754  18.696  0.00  0.00    +0.000 C 
ATOM     18  C   UNL     1       0.871  11.072  18.681  0.00  0.00    +0.000 C 
ENDBRANCH  14  18
ENDBRANCH  12  15
ENDBRANCH  11  13
ENDBRANCH   2  11
ENDBRANCH   1   2
BRANCH   1  19
ATOM     19  C   UNL     1       7.302   5.893  18.204  0.00  0.00    +0.000 C 
BRANCH  19  20
ATOM     20  C   UNL     1       8.082   7.158  18.570  0.00  0.00    +0.000 C 
BRANCH  20  21
ATOM     21  C   UNL     1       8.010   8.210  17.469  0.00  0.00    +0.000 C 
BRANCH  21  22
ATOM     22  C   UNL     1       8.003   9.605  18.056  0.00  0.00    +0.000 C 
BRANCH  22  23
ATOM     23  C   UNL     1       9.139   9.741  19.054  0.00  0.00    +0.000 C 
BRANCH  23  24
ATOM     24  C   UNL     1       9.925  11.000  18.751  0.00  0.00    +0.000 C 
BRANCH  24  25
ATOM     25  C   UNL     1      10.500  11.578  20.029  0.00  0.00    +0.000 C 
BRANCH  25  26
ATOM     26  C   UNL     1       9.528  12.593  20.598  0.00  0.00    +0.000 C 
BRANCH  26  27
ATOM     27  C   UNL     1       8.942  13.433  19.480  0.00  0.00    +0.000 C 
BRANCH  27  28
ATOM     28  C   UNL     1       8.369  14.717  20.050  0.00  0.00    +0.000 C 
BRANCH  28  29
ATOM     29  C   UNL     1       6.854  14.690  19.963  0.00  0.00    +0.000 C 
BRANCH  29  30
ATOM     30  C   UNL     1       6.299  16.096  20.105  0.00  0.00    +0.000 C 
BRANCH  30  31
ATOM     31  C   UNL     1       5.755  16.582  18.770  0.00  0.00    +0.000 C 
BRANCH  31  32
ATOM     32  C   UNL     1       5.057  15.446  18.037  0.00  0.00    +0.000 C 
BRANCH  32  33
ATOM     33  C   UNL     1       3.592  15.371  18.448  0.00  0.00    +0.000 C 
BRANCH  33  34
ATOM     34  C   UNL     1       3.229  13.964  18.911  0.00  0.00    +0.000 C 
ATOM     35  C   UNL     1       3.038  13.922  20.416  0.00  0.00    +0.000 C 
ENDBRANCH  33  34
ENDBRANCH  32  33
ENDBRANCH  31  32
ENDBRANCH  30  31
ENDBRANCH  29  30
ENDBRANCH  28  29
ENDBRANCH  27  28
ENDBRANCH  26  27
ENDBRANCH  25  26
ENDBRANCH  24  25
ENDBRANCH  23  24
ENDBRANCH  22  23
ENDBRANCH  21  22
ENDBRANCH  20  21
ENDBRANCH  19  20
ENDBRANCH   1  19
TORSDOF 23
ENDMDL
MODEL 4
REMARK VINA RESULT:      -6.2      2.902      4.463
REMARK  Name = 
REMARK  26 active torsions:
REMARK  status: ('A' for Active; 'I' for Inactive)
REMARK    1  A    between atoms: C_1  and  C_2
REMARK    2  A    between atoms: C_3  and  C_4
REMARK    3  A    between atoms: C_5  and  C_6
REMARK    4  A    between atoms: C_7  and  C_8
REMARK    5  A    between atoms: C_8  and  N_9
REMARK    6  A    between atoms: N_9  and  C_10
REMARK    7  A    between atoms: N_9  and  C_11
REMARK    8  A    between atoms: N_9  and  C_29
REMARK    9  A    between atoms: C_11  and  C_12
REMARK   10  A    between atoms: C_12  and  C_13
REMARK   11  A    between atoms: C_13  and  C_14
REMARK   12  A    between atoms: C_14  and  C_15
REMARK   13  A    between atoms: C_15  and  C_16
REMARK   14  A    between atoms: C_16  and  C_17
REMARK   15  A    between atoms: C_17  and  C_18
REMARK   16  A    between atoms: C_18  and  C_19
REMARK   17  A    between atoms: C_19  and  C_20
REMARK   18  A    between atoms: C_20  and  C_21
REMARK   19  A    between atoms: C_21  and  C_22
REMARK   20  A    between atoms: C_22  and  C_23
REMARK   21  A    between atoms: C_23  and  C_24
REMARK   22  A    between atoms: C_24  and  C_25
REMARK   23  A    between atoms: C_25  and  C_26
REMARK   24  A    between atoms: C_26  and  C_27
REMARK   25  A    between atoms: C_27  and  C_28
REMARK   26  A    between atoms: C_29  and  C_30
REMARK                            x       y       z     vdW  Elec       q    Type
REMARK                         _______ _______ _______ _____ _____    ______ ____
ROOT
ATOM      1  C   UNL     1       4.029   5.466  17.613  0.00  0.00    +0.000 C 
ENDROOT
BRANCH   1   2
ATOM      2  N   UNL     1       5.219   4.615  18.074  0.00  0.00    +0.000 N 
ATOM      3  C   UNL     1       5.966   5.353  19.177  0.00  0.00    +0.000 C 
BRANCH   2   4
ATOM      4  C   UNL     1       4.633   3.298  18.701  0.00  0.00    +0.000 C 
BRANCH   4   5
ATOM      5  C   UNL     1       3.170   3.407  19.050  0.00  0.00    +0.000 A 
ATOM      6  C   UNL     1       2.794   3.889  20.305  0.00  0.00    +0.000 A 
ATOM      7  C   UNL     1       1.520   3.650  20.798  0.00  0.00    +0.000 A 
ATOM      8  C   UNL     1       0.600   2.949  20.025  0.00  0.00    +0.000 A 
ATOM      9  C   UNL     1       0.924   2.561  18.731  0.00  0.00    +0.000 A 
ATOM     10  C   UNL     1       2.194   2.821  18.227  0.00  0.00    +0.000 A 
ENDBRANCH   4   5
ENDBRANCH   2   4
BRANCH   2  11
ATOM     11  C   UNL     1       6.169   4.344  16.903  0.00  0.00    +0.000 C 
BRANCH  11  13
ATOM     12  C   UNL     1       6.007   3.845  14.476  0.00  0.00    +0.000 C 
ATOM     13  C   UNL     1       5.497   4.391  15.583  0.00  0.00    +0.000 C 
BRANCH  12  15
ATOM     14  C   UNL     1       5.519   2.993  12.246  0.00  0.00    +0.000 C 
ATOM     15  C   UNL     1       5.247   3.826  13.255  0.00  0.00    +0.000 C 
BRANCH  14  18
ATOM     16  C   UNL     1       2.891   3.801   9.599  0.00  0.00    +0.000 C 
ATOM     17  C   UNL     1       3.733   3.830  10.830  0.00  0.00    +0.000 C 
ATOM     18  C   UNL     1       4.710   2.945  11.055  0.00  0.00    +0.000 C 
ENDBRANCH  14  18
ENDBRANCH  12  15
ENDBRANCH  11  13
ENDBRANCH   2  11
ENDBRANCH   1   2
BRANCH   1  19
ATOM     19  C   UNL     1       4.362   6.863  17.095  0.00  0.00    +0.000 C 
BRANCH  19  20
ATOM     20  C   UNL     1       3.775   7.924  18.030  0.00  0.00    +0.000 C 
BRANCH  20  21
ATOM     21  C   UNL     1       2.370   8.338  17.610  0.00  0.00    +0.000 C 
BRANCH  21  22
ATOM     22  C   UNL     1       1.561   8.790  18.807  0.00  0.00    +0.000 C 
BRANCH  22  23
ATOM     23  C   UNL     1       1.066  10.208  18.581  0.00  0.00    +0.000 C 
BRANCH  23  24
ATOM     24  C   UNL     1      -0.302  10.164  17.933  0.00  0.00    +0.000 C 
BRANCH  24  25
ATOM     25  C   UNL     1      -1.384  10.213  18.994  0.00  0.00    +0.000 C 
BRANCH  25  26
ATOM     26  C   UNL     1      -1.092  11.353  19.950  0.00  0.00    +0.000 C 
BRANCH  26  27
ATOM     27  C   UNL     1      -1.568  12.664  19.354  0.00  0.00    +0.000 C 
BRANCH  27  28
ATOM     28  C   UNL     1      -0.964  13.825  20.122  0.00  0.00    +0.000 C 
BRANCH  28  29
ATOM     29  C   UNL     1       0.384  13.421  20.692  0.00  0.00    +0.000 C 
BRANCH  29  30
ATOM     30  C   UNL     1       1.472  14.332  20.151  0.00  0.00    +0.000 C 
BRANCH  30  31
ATOM     31  C   UNL     1       2.037  13.763  18.860  0.00  0.00    +0.000 C 
BRANCH  31  32
ATOM     32  C   UNL     1       3.474  14.224  18.660  0.00  0.00    +0.000 C 
BRANCH  32  33
ATOM     33  C   UNL     1       3.564  15.178  17.476  0.00  0.00    +0.000 C 
BRANCH  33  34
ATOM     34  C   UNL     1       3.265  16.610  17.908  0.00  0.00    +0.000 C 
ATOM     35  C   UNL     1       2.494  17.350  16.830  0.00  0.00    +0.000 C 
ENDBRANCH  33  34
ENDBRANCH  32  33
ENDBRANCH  31  32
ENDBRANCH  30  31
ENDBRANCH  29  30
ENDBRANCH  28  29
ENDBRANCH  27  28
ENDBRANCH  26  27
ENDBRANCH  25  26
ENDBRANCH  24  25
ENDBRANCH  23  24
ENDBRANCH  22  23
ENDBRANCH  21  22
ENDBRANCH  20  21
ENDBRANCH  19  20
ENDBRANCH   1  19
TORSDOF 23
ENDMDL
MODEL 5
REMARK VINA RESULT:      -6.2      3.228     11.923
REMARK  Name = 
REMARK  26 active torsions:
REMARK  status: ('A' for Active; 'I' for Inactive)
REMARK    1  A    between atoms: C_1  and  C_2
REMARK    2  A    between atoms: C_3  and  C_4
REMARK    3  A    between atoms: C_5  and  C_6
REMARK    4  A    between atoms: C_7  and  C_8
REMARK    5  A    between atoms: C_8  and  N_9
REMARK    6  A    between atoms: N_9  and  C_10
REMARK    7  A    between atoms: N_9  and  C_11
REMARK    8  A    between atoms: N_9  and  C_29
REMARK    9  A    between atoms: C_11  and  C_12
REMARK   10  A    between atoms: C_12  and  C_13
REMARK   11  A    between atoms: C_13  and  C_14
REMARK   12  A    between atoms: C_14  and  C_15
REMARK   13  A    between atoms: C_15  and  C_16
REMARK   14  A    between atoms: C_16  and  C_17
REMARK   15  A    between atoms: C_17  and  C_18
REMARK   16  A    between atoms: C_18  and  C_19
REMARK   17  A    between atoms: C_19  and  C_20
REMARK   18  A    between atoms: C_20  and  C_21
REMARK   19  A    between atoms: C_21  and  C_22
REMARK   20  A    between atoms: C_22  and  C_23
REMARK   21  A    between atoms: C_23  and  C_24
REMARK   22  A    between atoms: C_24  and  C_25
REMARK   23  A    between atoms: C_25  and  C_26
REMARK   24  A    between atoms: C_26  and  C_27
REMARK   25  A    between atoms: C_27  and  C_28
REMARK   26  A    between atoms: C_29  and  C_30
REMARK                            x       y       z     vdW  Elec       q    Type
REMARK                         _______ _______ _______ _____ _____    ______ ____
ROOT
ATOM      1  C   UNL     1       0.318  10.201  18.253  0.00  0.00    +0.000 C 
ENDROOT
BRANCH   1   2
ATOM      2  N   UNL     1       0.123  11.521  19.009  0.00  0.00    +0.000 N 
ATOM      3  C   UNL     1       1.447  12.272  19.057  0.00  0.00    +0.000 C 
BRANCH   2   4
ATOM      4  C   UNL     1      -0.882  12.392  18.170  0.00  0.00    +0.000 C 
BRANCH   4   5
ATOM      5  C   UNL     1      -2.200  11.702  17.922  0.00  0.00    +0.000 A 
ATOM      6  C   UNL     1      -2.444  11.104  16.685  0.00  0.00    +0.000 A 
ATOM      7  C   UNL     1      -3.740  10.809  16.290  0.00  0.00    +0.000 A 
ATOM      8  C   UNL     1      -4.803  11.084  17.143  0.00  0.00    +0.000 A 
ATOM      9  C   UNL     1      -4.566  11.575  18.421  0.00  0.00    +0.000 A 
ATOM     10  C   UNL     1      -3.265  11.850  18.827  0.00  0.00    +0.000 A 
ENDBRANCH   4   5
ENDBRANCH   2   4
BRANCH   2  11
ATOM     11  C   UNL     1      -0.369  11.255  20.435  0.00  0.00    +0.000 C 
BRANCH  11  13
ATOM     12  C   UNL     1      -1.023  12.503  22.480  0.00  0.00    +0.000 C 
ATOM     13  C   UNL     1      -0.543  12.492  21.234  0.00  0.00    +0.000 C 
BRANCH  12  15
ATOM     14  C   UNL     1      -2.125  14.116  23.936  0.00  0.00    +0.000 C 
ATOM     15  C   UNL     1      -1.055  13.725  23.237  0.00  0.00    +0.000 C 
BRANCH  14  18
ATOM     16  C   UNL     1      -1.139  16.784  26.482  0.00  0.00    +0.000 C 
ATOM     17  C   UNL     1      -1.167  15.547  25.648  0.00  0.00    +0.000 C 
ATOM     18  C   UNL     1      -2.119  15.313  24.738  0.00  0.00    +0.000 C 
ENDBRANCH  14  18
ENDBRANCH  12  15
ENDBRANCH  11  13
ENDBRANCH   2  11
ENDBRANCH   1   2
BRANCH   1  19
ATOM     19  C   UNL     1       1.763   9.771  18.011  0.00  0.00    +0.000 C 
BRANCH  19  20
ATOM     20  C   UNL     1       1.835   8.255  17.813  0.00  0.00    +0.000 C 
BRANCH  20  21
ATOM     21  C   UNL     1       2.634   7.575  18.918  0.00  0.00    +0.000 C 
BRANCH  21  22
ATOM     22  C   UNL     1       1.891   7.635  20.236  0.00  0.00    +0.000 C 
BRANCH  22  23
ATOM     23  C   UNL     1       1.920   6.269  20.898  0.00  0.00    +0.000 C 
BRANCH  23  24
ATOM     24  C   UNL     1       1.753   5.196  19.842  0.00  0.00    +0.000 C 
BRANCH  24  25
ATOM     25  C   UNL     1       0.872   4.079  20.367  0.00  0.00    +0.000 C 
BRANCH  25  26
ATOM     26  C   UNL     1       0.863   2.940  19.367  0.00  0.00    +0.000 C 
BRANCH  26  27
ATOM     27  C   UNL     1       1.568   3.363  18.092  0.00  0.00    +0.000 C 
BRANCH  27  28
ATOM     28  C   UNL     1       2.513   2.266  17.641  0.00  0.00    +0.000 C 
BRANCH  28  29
ATOM     29  C   UNL     1       3.934   2.798  17.590  0.00  0.00    +0.000 C 
BRANCH  29  30
ATOM     30  C   UNL     1       3.921   4.312  17.478  0.00  0.00    +0.000 C 
BRANCH  30  31
ATOM     31  C   UNL     1       4.827   4.761  16.343  0.00  0.00    +0.000 C 
BRANCH  31  32
ATOM     32  C   UNL     1       6.278   4.429  16.659  0.00  0.00    +0.000 C 
BRANCH  32  33
ATOM     33  C   UNL     1       7.166   5.641  16.410  0.00  0.00    +0.000 C 
BRANCH  33  34
ATOM     34  C   UNL     1       6.709   6.831  17.247  0.00  0.00    +0.000 C 
ATOM     35  C   UNL     1       7.882   7.460  17.977  0.00  0.00    +0.000 C 
ENDBRANCH  33  34
ENDBRANCH  32  33
ENDBRANCH  31  32
ENDBRANCH  30  31
ENDBRANCH  29  30
ENDBRANCH  28  29
ENDBRANCH  27  28
ENDBRANCH  26  27
ENDBRANCH  25  26
ENDBRANCH  24  25
ENDBRANCH  23  24
ENDBRANCH  22  23
ENDBRANCH  21  22
ENDBRANCH  20  21
ENDBRANCH  19  20
ENDBRANCH   1  19
TORSDOF 23
ENDMDL
MODEL 6
REMARK VINA RESULT:      -6.1      2.187      3.177
REMARK  Name = 
REMARK  26 active torsions:
REMARK  status: ('A' for Active; 'I' for Inactive)
REMARK    1  A    between atoms: C_1  and  C_2
REMARK    2  A    between atoms: C_3  and  C_4
REMARK    3  A    between atoms: C_5  and  C_6
REMARK    4  A    between atoms: C_7  and  C_8
REMARK    5  A    between atoms: C_8  and  N_9
REMARK    6  A    between atoms: N_9  and  C_10
REMARK    7  A    between atoms: N_9  and  C_11
REMARK    8  A    between atoms: N_9  and  C_29
REMARK    9  A    between atoms: C_11  and  C_12
REMARK   10  A    between atoms: C_12  and  C_13
REMARK   11  A    between atoms: C_13  and  C_14
REMARK   12  A    between atoms: C_14  and  C_15
REMARK   13  A    between atoms: C_15  and  C_16
REMARK   14  A    between atoms: C_16  and  C_17
REMARK   15  A    between atoms: C_17  and  C_18
REMARK   16  A    between atoms: C_18  and  C_19
REMARK   17  A    between atoms: C_19  and  C_20
REMARK   18  A    between atoms: C_20  and  C_21
REMARK   19  A    between atoms: C_21  and  C_22
REMARK   20  A    between atoms: C_22  and  C_23
REMARK   21  A    between atoms: C_23  and  C_24
REMARK   22  A    between atoms: C_24  and  C_25
REMARK   23  A    between atoms: C_25  and  C_26
REMARK   24  A    between atoms: C_26  and  C_27
REMARK   25  A    between atoms: C_27  and  C_28
REMARK   26  A    between atoms: C_29  and  C_30
REMARK                            x       y       z     vdW  Elec       q    Type
REMARK                         _______ _______ _______ _____ _____    ______ ____
ROOT
ATOM      1  C   UNL     1       5.101   6.665  17.133  0.00  0.00    +0.000 C 
ENDROOT
BRANCH   1   2
ATOM      2  N   UNL     1       5.782   5.536  17.917  0.00  0.00    +0.000 N 
ATOM      3  C   UNL     1       7.116   6.035  18.459  0.00  0.00    +0.000 C 
BRANCH   2   4
ATOM      4  C   UNL     1       4.865   5.208  19.151  0.00  0.00    +0.000 C 
BRANCH   4   5
ATOM      5  C   UNL     1       3.877   4.102  18.878  0.00  0.00    +0.000 A 
ATOM      6  C   UNL     1       4.239   2.777  19.125  0.00  0.00    +0.000 A 
ATOM      7  C   UNL     1       3.532   1.735  18.544  0.00  0.00    +0.000 A 
ATOM      8  C   UNL     1       2.437   2.010  17.732  0.00  0.00    +0.000 A 
ATOM      9  C   UNL     1       1.998   3.318  17.568  0.00  0.00    +0.000 A 
ATOM     10  C   UNL     1       2.693   4.362  18.169  0.00  0.00    +0.000 A 
ENDBRANCH   4   5
ENDBRANCH   2   4
BRANCH   2  11
ATOM     11  C   UNL     1       6.017   4.322  17.013  0.00  0.00    +0.000 C 
BRANCH  11  13
ATOM     12  C   UNL     1       6.121   3.882  14.571  0.00  0.00    +0.000 C 
ATOM     13  C   UNL     1       5.611   4.555  15.606  0.00  0.00    +0.000 C 
BRANCH  12  15
ATOM     14  C   UNL     1       5.415   3.070  12.385  0.00  0.00    +0.000 C 
ATOM     15  C   UNL     1       5.596   4.076  13.246  0.00  0.00    +0.000 C 
BRANCH  14  18
ATOM     16  C   UNL     1       2.917   3.790   9.589  0.00  0.00    +0.000 C 
ATOM     17  C   UNL     1       3.537   3.567  10.928  0.00  0.00    +0.000 C 
ATOM     18  C   UNL     1       4.832   3.274  11.083  0.00  0.00    +0.000 C 
ENDBRANCH  14  18
ENDBRANCH  12  15
ENDBRANCH  11  13
ENDBRANCH   2  11
ENDBRANCH   1   2
BRANCH   1  19
ATOM     19  C   UNL     1       4.282   7.656  17.957  0.00  0.00    +0.000 C 
BRANCH  19  20
ATOM     20  C   UNL     1       2.974   7.988  17.234  0.00  0.00    +0.000 C 
BRANCH  20  21
ATOM     21  C   UNL     1       1.754   7.683  18.096  0.00  0.00    +0.000 C 
BRANCH  21  22
ATOM     22  C   UNL     1       1.614   8.698  19.210  0.00  0.00    +0.000 C 
BRANCH  22  23
ATOM     23  C   UNL     1       1.352  10.071  18.617  0.00  0.00    +0.000 C 
BRANCH  23  24
ATOM     24  C   UNL     1       0.083  10.641  19.216  0.00  0.00    +0.000 C 
BRANCH  24  25
ATOM     25  C   UNL     1      -0.953  10.861  18.131  0.00  0.00    +0.000 C 
BRANCH  25  26
ATOM     26  C   UNL     1      -1.327  12.330  18.091  0.00  0.00    +0.000 C 
BRANCH  26  27
ATOM     27  C   UNL     1      -0.110  13.183  18.390  0.00  0.00    +0.000 C 
BRANCH  27  28
ATOM     28  C   UNL     1      -0.549  14.574  18.808  0.00  0.00    +0.000 C 
BRANCH  28  29
ATOM     29  C   UNL     1       0.034  14.912  20.168  0.00  0.00    +0.000 C 
BRANCH  29  30
ATOM     30  C   UNL     1      -0.062  13.710  21.091  0.00  0.00    +0.000 C 
BRANCH  30  31
ATOM     31  C   UNL     1      -1.285  13.832  21.985  0.00  0.00    +0.000 C 
BRANCH  31  32
ATOM     32  C   UNL     1      -1.142  12.935  23.205  0.00  0.00    +0.000 C 
BRANCH  32  33
ATOM     33  C   UNL     1      -1.678  11.541  22.904  0.00  0.00    +0.000 C 
BRANCH  33  34
ATOM     34  C   UNL     1      -0.569  10.635  22.381  0.00  0.00    +0.000 C 
ATOM     35  C   UNL     1      -0.170   9.609  23.426  0.00  0.00    +0.000 C 
ENDBRANCH  33  34
ENDBRANCH  32  33
ENDBRANCH  31  32
ENDBRANCH  30  31
ENDBRANCH  29  30
ENDBRANCH  28  29
ENDBRANCH  27  28
ENDBRANCH  26  27
ENDBRANCH  25  26
ENDBRANCH  24  25
ENDBRANCH  23  24
ENDBRANCH  22  23
ENDBRANCH  21  22
ENDBRANCH  20  21
ENDBRANCH  19  20
ENDBRANCH   1  19
TORSDOF 23
ENDMDL
MODEL 7
REMARK VINA RESULT:      -6.0      3.561     10.465
REMARK  Name = 
REMARK  26 active torsions:
REMARK  status: ('A' for Active; 'I' for Inactive)
REMARK    1  A    between atoms: C_1  and  C_2
REMARK    2  A    between atoms: C_3  and  C_4
REMARK    3  A    between atoms: C_5  and  C_6
REMARK    4  A    between atoms: C_7  and  C_8
REMARK    5  A    between atoms: C_8  and  N_9
REMARK    6  A    between atoms: N_9  and  C_10
REMARK    7  A    between atoms: N_9  and  C_11
REMARK    8  A    between atoms: N_9  and  C_29
REMARK    9  A    between atoms: C_11  and  C_12
REMARK   10  A    between atoms: C_12  and  C_13
REMARK   11  A    between atoms: C_13  and  C_14
REMARK   12  A    between atoms: C_14  and  C_15
REMARK   13  A    between atoms: C_15  and  C_16
REMARK   14  A    between atoms: C_16  and  C_17
REMARK   15  A    between atoms: C_17  and  C_18
REMARK   16  A    between atoms: C_18  and  C_19
REMARK   17  A    between atoms: C_19  and  C_20
REMARK   18  A    between atoms: C_20  and  C_21
REMARK   19  A    between atoms: C_21  and  C_22
REMARK   20  A    between atoms: C_22  and  C_23
REMARK   21  A    between atoms: C_23  and  C_24
REMARK   22  A    between atoms: C_24  and  C_25
REMARK   23  A    between atoms: C_25  and  C_26
REMARK   24  A    between atoms: C_26  and  C_27
REMARK   25  A    between atoms: C_27  and  C_28
REMARK   26  A    between atoms: C_29  and  C_30
REMARK                            x       y       z     vdW  Elec       q    Type
REMARK                         _______ _______ _______ _____ _____    ______ ____
ROOT
ATOM      1  C   UNL     1       0.602  10.111  19.319  0.00  0.00    +0.000 C 
ENDROOT
BRANCH   1   2
ATOM      2  N   UNL     1       0.056  11.114  20.343  0.00  0.00    +0.000 N 
ATOM      3  C   UNL     1      -0.147  10.409  21.678  0.00  0.00    +0.000 C 
BRANCH   2   4
ATOM      4  C   UNL     1       1.162  12.212  20.554  0.00  0.00    +0.000 C 
BRANCH   4   5
ATOM      5  C   UNL     1       0.650  13.616  20.353  0.00  0.00    +0.000 A 
ATOM      6  C   UNL     1      -0.039  14.254  21.385  0.00  0.00    +0.000 A 
ATOM      7  C   UNL     1      -0.839  15.356  21.121  0.00  0.00    +0.000 A 
ATOM      8  C   UNL     1      -0.933  15.847  19.823  0.00  0.00    +0.000 A 
ATOM      9  C   UNL     1      -0.165  15.291  18.807  0.00  0.00    +0.000 A 
ATOM     10  C   UNL     1       0.654  14.201  19.076  0.00  0.00    +0.000 A 
ENDBRANCH   4   5
ENDBRANCH   2   4
BRANCH   2  11
ATOM     11  C   UNL     1      -1.276  11.699  19.863  0.00  0.00    +0.000 C 
BRANCH  11  13
ATOM     12  C   UNL     1      -2.818  11.311  17.955  0.00  0.00    +0.000 C 
ATOM     13  C   UNL     1      -1.578  11.377  18.447  0.00  0.00    +0.000 C 
BRANCH  12  15
ATOM     14  C   UNL     1      -2.539  10.062  15.882  0.00  0.00    +0.000 C 
ATOM     15  C   UNL     1      -3.034  11.110  16.548  0.00  0.00    +0.000 C 
BRANCH  14  18
ATOM     16  C   UNL     1      -4.301   9.937  12.498  0.00  0.00    +0.000 C 
ATOM     17  C   UNL     1      -4.000  10.147  13.944  0.00  0.00    +0.000 C 
ATOM     18  C   UNL     1      -2.815   9.844  14.485  0.00  0.00    +0.000 C 
ENDBRANCH  14  18
ENDBRANCH  12  15
ENDBRANCH  11  13
ENDBRANCH   2  11
ENDBRANCH   1   2
BRANCH   1  19
ATOM     19  C   UNL     1       1.269   8.862  19.891  0.00  0.00    +0.000 C 
BRANCH  19  20
ATOM     20  C   UNL     1       2.148   8.201  18.827  0.00  0.00    +0.000 C 
BRANCH  20  21
ATOM     21  C   UNL     1       2.611   6.813  19.254  0.00  0.00    +0.000 C 
BRANCH  21  22
ATOM     22  C   UNL     1       3.862   6.407  18.503  0.00  0.00    +0.000 C 
BRANCH  22  23
ATOM     23  C   UNL     1       4.787   5.643  19.433  0.00  0.00    +0.000 C 
BRANCH  23  24
ATOM     24  C   UNL     1       6.193   5.664  18.869  0.00  0.00    +0.000 C 
BRANCH  24  25
ATOM     25  C   UNL     1       6.263   6.593  17.674  0.00  0.00    +0.000 C 
BRANCH  25  26
ATOM     26  C   UNL     1       7.065   5.928  16.572  0.00  0.00    +0.000 C 
BRANCH  26  27
ATOM     27  C   UNL     1       6.912   4.422  16.656  0.00  0.00    +0.000 C 
BRANCH  27  28
ATOM     28  C   UNL     1       6.037   3.932  15.518  0.00  0.00    +0.000 C 
BRANCH  28  29
ATOM     29  C   UNL     1       4.573   4.125  15.871  0.00  0.00    +0.000 C 
BRANCH  29  30
ATOM     30  C   UNL     1       4.168   3.152  16.964  0.00  0.00    +0.000 C 
BRANCH  30  31
ATOM     31  C   UNL     1       2.654   3.111  17.094  0.00  0.00    +0.000 C 
BRANCH  31  32
ATOM     32  C   UNL     1       2.248   2.317  18.327  0.00  0.00    +0.000 C 
BRANCH  32  33
ATOM     33  C   UNL     1       2.509   3.127  19.590  0.00  0.00    +0.000 C 
BRANCH  33  34
ATOM     34  C   UNL     1       1.239   3.261  20.422  0.00  0.00    +0.000 C 
ATOM     35  C   UNL     1       1.430   2.653  21.800  0.00  0.00    +0.000 C 
ENDBRANCH  33  34
ENDBRANCH  32  33
ENDBRANCH  31  32
ENDBRANCH  30  31
ENDBRANCH  29  30
ENDBRANCH  28  29
ENDBRANCH  27  28
ENDBRANCH  26  27
ENDBRANCH  25  26
ENDBRANCH  24  25
ENDBRANCH  23  24
ENDBRANCH  22  23
ENDBRANCH  21  22
ENDBRANCH  20  21
ENDBRANCH  19  20
ENDBRANCH   1  19
TORSDOF 23
ENDMDL
MODEL 8
REMARK VINA RESULT:      -6.0      3.394      5.747
REMARK  Name = 
REMARK  26 active torsions:
REMARK  status: ('A' for Active; 'I' for Inactive)
REMARK    1  A    between atoms: C_1  and  C_2
REMARK    2  A    between atoms: C_3  and  C_4
REMARK    3  A    between atoms: C_5  and  C_6
REMARK    4  A    between atoms: C_7  and  C_8
REMARK    5  A    between atoms: C_8  and  N_9
REMARK    6  A    between atoms: N_9  and  C_10
REMARK    7  A    between atoms: N_9  and  C_11
REMARK    8  A    between atoms: N_9  and  C_29
REMARK    9  A    between atoms: C_11  and  C_12
REMARK   10  A    between atoms: C_12  and  C_13
REMARK   11  A    between atoms: C_13  and  C_14
REMARK   12  A    between atoms: C_14  and  C_15
REMARK   13  A    between atoms: C_15  and  C_16
REMARK   14  A    between atoms: C_16  and  C_17
REMARK   15  A    between atoms: C_17  and  C_18
REMARK   16  A    between atoms: C_18  and  C_19
REMARK   17  A    between atoms: C_19  and  C_20
REMARK   18  A    between atoms: C_20  and  C_21
REMARK   19  A    between atoms: C_21  and  C_22
REMARK   20  A    between atoms: C_22  and  C_23
REMARK   21  A    between atoms: C_23  and  C_24
REMARK   22  A    between atoms: C_24  and  C_25
REMARK   23  A    between atoms: C_25  and  C_26
REMARK   24  A    between atoms: C_26  and  C_27
REMARK   25  A    between atoms: C_27  and  C_28
REMARK   26  A    between atoms: C_29  and  C_30
REMARK                            x       y       z     vdW  Elec       q    Type
REMARK                         _______ _______ _______ _____ _____    ______ ____
ROOT
ATOM      1  C   UNL     1       3.647   6.312  17.646  0.00  0.00    +0.000 C 
ENDROOT
BRANCH   1   2
ATOM      2  N   UNL     1       4.593   5.119  17.836  0.00  0.00    +0.000 N 
ATOM      3  C   UNL     1       4.892   4.946  19.319  0.00  0.00    +0.000 C 
BRANCH   2   4
ATOM      4  C   UNL     1       3.822   3.835  17.357  0.00  0.00    +0.000 C 
BRANCH   4   5
ATOM      5  C   UNL     1       2.971   3.217  18.438  0.00  0.00    +0.000 A 
ATOM      6  C   UNL     1       1.581   3.231  18.316  0.00  0.00    +0.000 A 
ATOM      7  C   UNL     1       0.775   3.032  19.426  0.00  0.00    +0.000 A 
ATOM      8  C   UNL     1       1.354   2.787  20.667  0.00  0.00    +0.000 A 
ATOM      9  C   UNL     1       2.733   2.659  20.782  0.00  0.00    +0.000 A 
ATOM     10  C   UNL     1       3.541   2.837  19.664  0.00  0.00    +0.000 A 
ENDBRANCH   4   5
ENDBRANCH   2   4
BRANCH   2  11
ATOM     11  C   UNL     1       5.901   5.346  17.071  0.00  0.00    +0.000 C 
BRANCH  11  13
ATOM     12  C   UNL     1       7.468   7.153  17.738  0.00  0.00    +0.000 C 
ATOM     13  C   UNL     1       6.361   6.755  17.106  0.00  0.00    +0.000 C 
BRANCH  12  15
ATOM     14  C   UNL     1       8.672   9.102  18.566  0.00  0.00    +0.000 C 
ATOM     15  C   UNL     1       7.918   8.515  17.632  0.00  0.00    +0.000 C 
BRANCH  14  18
ATOM     16  C   UNL     1      10.055  12.577  19.332  0.00  0.00    +0.000 C 
ATOM     17  C   UNL     1       9.534  11.186  19.469  0.00  0.00    +0.000 C 
ATOM     18  C   UNL     1       9.165  10.448  18.416  0.00  0.00    +0.000 C 
ENDBRANCH  14  18
ENDBRANCH  12  15
ENDBRANCH  11  13
ENDBRANCH   2  11
ENDBRANCH   1   2
BRANCH   1  19
ATOM     19  C   UNL     1       2.347   6.273  18.446  0.00  0.00    +0.000 C 
BRANCH  19  20
ATOM     20  C   UNL     1       2.646   6.377  19.943  0.00  0.00    +0.000 C 
BRANCH  20  21
ATOM     21  C   UNL     1       1.401   6.726  20.750  0.00  0.00    +0.000 C 
BRANCH  21  22
ATOM     22  C   UNL     1       1.239   8.226  20.868  0.00  0.00    +0.000 C 
BRANCH  22  23
ATOM     23  C   UNL     1       0.134   8.541  21.861  0.00  0.00    +0.000 C 
BRANCH  23  24
ATOM     24  C   UNL     1       0.375   9.910  22.463  0.00  0.00    +0.000 C 
BRANCH  24  25
ATOM     25  C   UNL     1      -0.919  10.472  23.018  0.00  0.00    +0.000 C 
BRANCH  25  26
ATOM     26  C   UNL     1      -1.286  11.727  22.251  0.00  0.00    +0.000 C 
BRANCH  26  27
ATOM     27  C   UNL     1      -0.089  12.223  21.464  0.00  0.00    +0.000 C 
BRANCH  27  28
ATOM     28  C   UNL     1      -0.426  12.260  19.986  0.00  0.00    +0.000 C 
BRANCH  28  29
ATOM     29  C   UNL     1      -1.769  11.593  19.746  0.00  0.00    +0.000 C 
BRANCH  29  30
ATOM     30  C   UNL     1      -1.569  10.245  19.077  0.00  0.00    +0.000 C 
BRANCH  30  31
ATOM     31  C   UNL     1      -1.484  10.416  17.569  0.00  0.00    +0.000 C 
BRANCH  31  32
ATOM     32  C   UNL     1      -2.742   9.879  16.901  0.00  0.00    +0.000 C 
BRANCH  32  33
ATOM     33  C   UNL     1      -3.324  10.919  15.953  0.00  0.00    +0.000 C 
BRANCH  33  34
ATOM     34  C   UNL     1      -3.875  10.259  14.694  0.00  0.00    +0.000 C 
ATOM     35  C   UNL     1      -2.749   9.787  13.793  0.00  0.00    +0.000 C 
ENDBRANCH  33  34
ENDBRANCH  32  33
ENDBRANCH  31  32
ENDBRANCH  30  31
ENDBRANCH  29  30
ENDBRANCH  28  29
ENDBRANCH  27  28
ENDBRANCH  26  27
ENDBRANCH  25  26
ENDBRANCH  24  25
ENDBRANCH  23  24
ENDBRANCH  22  23
ENDBRANCH  21  22
ENDBRANCH  20  21
ENDBRANCH  19  20
ENDBRANCH   1  19
TORSDOF 23
ENDMDL
MODEL 9
REMARK VINA RESULT:      -6.0      4.821      7.633
REMARK  Name = 
REMARK  26 active torsions:
REMARK  status: ('A' for Active; 'I' for Inactive)
REMARK    1  A    between atoms: C_1  and  C_2
REMARK    2  A    between atoms: C_3  and  C_4
REMARK    3  A    between atoms: C_5  and  C_6
REMARK    4  A    between atoms: C_7  and  C_8
REMARK    5  A    between atoms: C_8  and  N_9
REMARK    6  A    between atoms: N_9  and  C_10
REMARK    7  A    between atoms: N_9  and  C_11
REMARK    8  A    between atoms: N_9  and  C_29
REMARK    9  A    between atoms: C_11  and  C_12
REMARK   10  A    between atoms: C_12  and  C_13
REMARK   11  A    between atoms: C_13  and  C_14
REMARK   12  A    between atoms: C_14  and  C_15
REMARK   13  A    between atoms: C_15  and  C_16
REMARK   14  A    between atoms: C_16  and  C_17
REMARK   15  A    between atoms: C_17  and  C_18
REMARK   16  A    between atoms: C_18  and  C_19
REMARK   17  A    between atoms: C_19  and  C_20
REMARK   18  A    between atoms: C_20  and  C_21
REMARK   19  A    between atoms: C_21  and  C_22
REMARK   20  A    between atoms: C_22  and  C_23
REMARK   21  A    between atoms: C_23  and  C_24
REMARK   22  A    between atoms: C_24  and  C_25
REMARK   23  A    between atoms: C_25  and  C_26
REMARK   24  A    between atoms: C_26  and  C_27
REMARK   25  A    between atoms: C_27  and  C_28
REMARK   26  A    between atoms: C_29  and  C_30
REMARK                            x       y       z     vdW  Elec       q    Type
REMARK                         _______ _______ _______ _____ _____    ______ ____
ROOT
ATOM      1  C   UNL     1       3.541   6.194  18.942  0.00  0.00    +0.000 C 
ENDROOT
BRANCH   1   2
ATOM      2  N   UNL     1       4.522   5.256  18.227  0.00  0.00    +0.000 N 
ATOM      3  C   UNL     1       5.617   4.838  19.199  0.00  0.00    +0.000 C 
BRANCH   2   4
ATOM      4  C   UNL     1       3.722   3.961  17.833  0.00  0.00    +0.000 C 
BRANCH   4   5
ATOM      5  C   UNL     1       2.856   3.436  18.950  0.00  0.00    +0.000 A 
ATOM      6  C   UNL     1       1.489   3.720  18.957  0.00  0.00    +0.000 A 
ATOM      7  C   UNL     1       0.751   3.595  20.124  0.00  0.00    +0.000 A 
ATOM      8  C   UNL     1       1.368   3.154  21.290  0.00  0.00    +0.000 A 
ATOM      9  C   UNL     1       2.701   2.761  21.270  0.00  0.00    +0.000 A 
ATOM     10  C   UNL     1       3.437   2.865  20.095  0.00  0.00    +0.000 A 
ENDBRANCH   4   5
ENDBRANCH   2   4
BRANCH   2  11
ATOM     11  C   UNL     1       5.149   5.957  17.018  0.00  0.00    +0.000 C 
BRANCH  11  13
ATOM     12  C   UNL     1       7.321   7.140  17.237  0.00  0.00    +0.000 C 
ATOM     13  C   UNL     1       5.995   7.117  17.389  0.00  0.00    +0.000 C 
BRANCH  12  15
ATOM     14  C   UNL     1       8.475   8.677  18.734  0.00  0.00    +0.000 C 
ATOM     15  C   UNL     1       8.065   8.341  17.507  0.00  0.00    +0.000 C 
BRANCH  14  18
ATOM     16  C   UNL     1      10.100  12.111  18.366  0.00  0.00    +0.000 C 
ATOM     17  C   UNL     1       9.289  10.882  18.125  0.00  0.00    +0.000 C 
ATOM     18  C   UNL     1       9.271   9.853  18.979  0.00  0.00    +0.000 C 
ENDBRANCH  14  18
ENDBRANCH  12  15
ENDBRANCH  11  13
ENDBRANCH   2  11
ENDBRANCH   1   2
BRANCH   1  19
ATOM     19  C   UNL     1       2.661   7.059  18.042  0.00  0.00    +0.000 C 
BRANCH  19  20
ATOM     20  C   UNL     1       2.002   8.171  18.862  0.00  0.00    +0.000 C 
BRANCH  20  21
ATOM     21  C   UNL     1       1.705   9.403  18.015  0.00  0.00    +0.000 C 
BRANCH  21  22
ATOM     22  C   UNL     1       0.239   9.773  18.098  0.00  0.00    +0.000 C 
BRANCH  22  23
ATOM     23  C   UNL     1       0.099  11.157  18.706  0.00  0.00    +0.000 C 
BRANCH  23  24
ATOM     24  C   UNL     1       1.454  11.833  18.732  0.00  0.00    +0.000 C 
BRANCH  24  25
ATOM     25  C   UNL     1       1.636  12.589  20.034  0.00  0.00    +0.000 C 
BRANCH  25  26
ATOM     26  C   UNL     1       1.216  14.032  19.834  0.00  0.00    +0.000 C 
BRANCH  26  27
ATOM     27  C   UNL     1       2.073  14.678  18.763  0.00  0.00    +0.000 C 
BRANCH  27  28
ATOM     28  C   UNL     1       3.502  14.802  19.257  0.00  0.00    +0.000 C 
BRANCH  28  29
ATOM     29  C   UNL     1       4.468  14.531  18.117  0.00  0.00    +0.000 C 
BRANCH  29  30
ATOM     30  C   UNL     1       5.698  15.412  18.256  0.00  0.00    +0.000 C 
BRANCH  30  31
ATOM     31  C   UNL     1       6.925  14.684  17.731  0.00  0.00    +0.000 C 
BRANCH  31  32
ATOM     32  C   UNL     1       8.189  15.259  18.351  0.00  0.00    +0.000 C 
BRANCH  32  33
ATOM     33  C   UNL     1       7.986  15.504  19.840  0.00  0.00    +0.000 C 
BRANCH  33  34
ATOM     34  C   UNL     1       8.228  14.229  20.639  0.00  0.00    +0.000 C 
ATOM     35  C   UNL     1       8.816  14.548  22.002  0.00  0.00    +0.000 C 
ENDBRANCH  33  34
ENDBRANCH  32  33
ENDBRANCH  31  32
ENDBRANCH  30  31
ENDBRANCH  29  30
ENDBRANCH  28  29
ENDBRANCH  27  28
ENDBRANCH  26  27
ENDBRANCH  25  26
ENDBRANCH  24  25
ENDBRANCH  23  24
ENDBRANCH  22  23
ENDBRANCH  21  22
ENDBRANCH  20  21
ENDBRANCH  19  20
ENDBRANCH   1  19
TORSDOF 23
ENDMDL
