MODEL 1
REMARK VINA RESULT:      -7.3      0.000      0.000
REMARK  Name = 
REMARK  5 active torsions:
REMARK  status: ('A' for Active; 'I' for Inactive)
REMARK    1  A    between atoms: C_1  and  O_2
REMARK    2  A    between atoms: O_2  and  C_3
REMARK    3  A    between atoms: C_8  and  C_9
REMARK    4  A    between atoms: C_14  and  N_15
REMARK    5  A    between atoms: C_20  and  O_21
REMARK                            x       y       z     vdW  Elec       q    Type
REMARK                         _______ _______ _______ _____ _____    ______ ____
ROOT
ATOM      1  C   UNL     1       4.814   4.965  17.633  0.00  0.00    +0.000 A 
ATOM      2  O   UNL     1       4.843   3.741  18.305  0.00  0.00    +0.000 OA
ATOM      3  C   UNL     1       4.008   3.556  19.386  0.00  0.00    +0.000 A 
ATOM      4  C   UNL     1       4.129   2.381  20.123  0.00  0.00    +0.000 A 
ATOM      5  C   UNL     1       3.239   2.121  21.173  0.00  0.00    +0.000 A 
ATOM      6  C   UNL     1       2.235   3.035  21.511  0.00  0.00    +0.000 A 
ATOM      7  C   UNL     1       2.101   4.194  20.747  0.00  0.00    +0.000 A 
ATOM      8  C   UNL     1       3.029   4.471  19.737  0.00  0.00    +0.000 A 
ATOM      9  C   UNL     1       3.002   5.763  19.051  0.00  0.00    +0.000 A 
ATOM     10  O   UNL     1       2.169   6.634  19.285  0.00  0.00    +0.000 OA
ATOM     11  C   UNL     1       4.043   6.001  18.024  0.00  0.00    +0.000 A 
ENDROOT
BRANCH   1  17
ATOM     12  C   UNL     1       6.936   5.363  16.230  0.00  0.00    +0.000 A 
ATOM     13  C   UNL     1       7.617   5.137  15.017  0.00  0.00    +0.000 A 
ATOM     14  C   UNL     1       6.961   4.608  13.906  0.00  0.00    +0.000 A 
ATOM     15  C   UNL     1       5.619   4.286  13.994  0.00  0.00    +0.000 A 
ATOM     16  C   UNL     1       4.951   4.452  15.206  0.00  0.00    +0.000 A 
ATOM     17  C   UNL     1       5.585   4.981  16.354  0.00  0.00    +0.000 A 
BRANCH  12  19
ATOM     18  C   UNL     1       7.542   7.341  17.368  0.00  0.00    +0.000 C 
ATOM     19  O   UNL     1       7.565   5.917  17.320  0.00  0.00    +0.000 OA
ENDBRANCH  12  19
ENDBRANCH   1  17
BRANCH   6  20
ATOM     20  N   UNL     1       1.252   2.695  22.446  0.00  0.00    +0.000 N 
ATOM     21  H   UNL     1       0.349   3.129  22.282  0.00  0.00    +0.000 HD
ATOM     22  H   UNL     1       1.174   1.698  22.626  0.00  0.00    +0.000 HD
ENDBRANCH   6  20
BRANCH  11  23
ATOM     23  O   UNL     1       4.074   7.266  17.468  0.00  0.00    +0.000 OA
ATOM     24  H   UNL     1       3.534   7.192  16.652  0.00  0.00    +0.000 HD
ENDBRANCH  11  23
TORSDOF 4
ENDMDL
MODEL 2
REMARK VINA RESULT:      -7.2      2.590      3.803
REMARK  Name = 
REMARK  5 active torsions:
REMARK  status: ('A' for Active; 'I' for Inactive)
REMARK    1  A    between atoms: C_1  and  O_2
REMARK    2  A    between atoms: O_2  and  C_3
REMARK    3  A    between atoms: C_8  and  C_9
REMARK    4  A    between atoms: C_14  and  N_15
REMARK    5  A    between atoms: C_20  and  O_21
REMARK                            x       y       z     vdW  Elec       q    Type
REMARK                         _______ _______ _______ _____ _____    ______ ____
ROOT
ATOM      1  C   UNL     1       3.922   5.849  18.014  0.00  0.00    +0.000 A 
ATOM      2  O   UNL     1       3.460   7.149  17.802  0.00  0.00    +0.000 OA
ATOM      3  C   UNL     1       2.527   7.674  18.670  0.00  0.00    +0.000 A 
ATOM      4  C   UNL     1       1.982   8.923  18.383  0.00  0.00    +0.000 A 
ATOM      5  C   UNL     1       1.099   9.524  19.288  0.00  0.00    +0.000 A 
ATOM      6  C   UNL     1       0.735   8.881  20.477  0.00  0.00    +0.000 A 
ATOM      7  C   UNL     1       1.310   7.646  20.771  0.00  0.00    +0.000 A 
ATOM      8  C   UNL     1       2.147   7.027  19.835  0.00  0.00    +0.000 A 
ATOM      9  C   UNL     1       2.612   5.659  20.058  0.00  0.00    +0.000 A 
ATOM     10  O   UNL     1       2.337   5.008  21.062  0.00  0.00    +0.000 OA
ATOM     11  C   UNL     1       3.458   5.056  19.002  0.00  0.00    +0.000 A 
ENDROOT
BRANCH   1  17
ATOM     12  C   UNL     1       6.313   4.971  17.638  0.00  0.00    +0.000 A 
ATOM     13  C   UNL     1       7.255   4.443  16.732  0.00  0.00    +0.000 A 
ATOM     14  C   UNL     1       7.027   4.461  15.357  0.00  0.00    +0.000 A 
ATOM     15  C   UNL     1       5.850   4.997  14.867  0.00  0.00    +0.000 A 
ATOM     16  C   UNL     1       4.888   5.471  15.757  0.00  0.00    +0.000 A 
ATOM     17  C   UNL     1       5.083   5.463  17.157  0.00  0.00    +0.000 A 
BRANCH  12  19
ATOM     18  C   UNL     1       7.693   5.732  19.397  0.00  0.00    +0.000 C 
ATOM     19  O   UNL     1       6.544   4.990  18.993  0.00  0.00    +0.000 OA
ENDBRANCH  12  19
ENDBRANCH   1  17
BRANCH   6  20
ATOM     20  N   UNL     1      -0.012   9.556  21.448  0.00  0.00    +0.000 N 
ATOM     21  H   UNL     1      -0.909   9.900  21.122  0.00  0.00    +0.000 HD
ATOM     22  H   UNL     1      -0.087   9.064  22.334  0.00  0.00    +0.000 HD
ENDBRANCH   6  20
BRANCH  11  23
ATOM     23  O   UNL     1       3.793   3.726  19.174  0.00  0.00    +0.000 OA
ATOM     24  H   UNL     1       4.503   3.561  18.516  0.00  0.00    +0.000 HD
ENDBRANCH  11  23
TORSDOF 4
ENDMDL
MODEL 3
REMARK VINA RESULT:      -7.1      1.499      1.658
REMARK  Name = 
REMARK  5 active torsions:
REMARK  status: ('A' for Active; 'I' for Inactive)
REMARK    1  A    between atoms: C_1  and  O_2
REMARK    2  A    between atoms: O_2  and  C_3
REMARK    3  A    between atoms: C_8  and  C_9
REMARK    4  A    between atoms: C_14  and  N_15
REMARK    5  A    between atoms: C_20  and  O_21
REMARK                            x       y       z     vdW  Elec       q    Type
REMARK                         _______ _______ _______ _____ _____    ______ ____
ROOT
ATOM      1  C   UNL     1       4.809   4.596  16.238  0.00  0.00    +0.000 A 
ATOM      2  O   UNL     1       4.379   3.347  16.691  0.00  0.00    +0.000 OA
ATOM      3  C   UNL     1       3.490   3.290  17.743  0.00  0.00    +0.000 A 
ATOM      4  C   UNL     1       3.161   2.042  18.267  0.00  0.00    +0.000 A 
ATOM      5  C   UNL     1       2.195   1.942  19.276  0.00  0.00    +0.000 A 
ATOM      6  C   UNL     1       1.563   3.081  19.786  0.00  0.00    +0.000 A 
ATOM      7  C   UNL     1       1.876   4.322  19.233  0.00  0.00    +0.000 A 
ATOM      8  C   UNL     1       2.882   4.420  18.266  0.00  0.00    +0.000 A 
ATOM      9  C   UNL     1       3.337   5.733  17.810  0.00  0.00    +0.000 A 
ATOM     10  O   UNL     1       2.854   6.789  18.207  0.00  0.00    +0.000 OA
ATOM     11  C   UNL     1       4.436   5.756  16.817  0.00  0.00    +0.000 A 
ENDROOT
BRANCH   1  17
ATOM     12  C   UNL     1       6.933   4.948  14.826  0.00  0.00    +0.000 A 
ATOM     13  C   UNL     1       7.624   4.665  13.631  0.00  0.00    +0.000 A 
ATOM     14  C   UNL     1       6.984   4.063  12.548  0.00  0.00    +0.000 A 
ATOM     15  C   UNL     1       5.646   3.726  12.648  0.00  0.00    +0.000 A 
ATOM     16  C   UNL     1       4.968   3.950  13.845  0.00  0.00    +0.000 A 
ATOM     17  C   UNL     1       5.588   4.552  14.965  0.00  0.00    +0.000 A 
BRANCH  12  19
ATOM     18  C   UNL     1       7.758   4.745  17.029  0.00  0.00    +0.000 C 
ATOM     19  O   UNL     1       7.547   5.572  15.886  0.00  0.00    +0.000 OA
ENDBRANCH  12  19
ENDBRANCH   1  17
BRANCH   6  20
ATOM     20  N   UNL     1       0.487   2.959  20.671  0.00  0.00    +0.000 N 
ATOM     21  H   UNL     1       0.713   2.493  21.544  0.00  0.00    +0.000 HD
ATOM     22  H   UNL     1      -0.034   3.819  20.817  0.00  0.00    +0.000 HD
ENDBRANCH   6  20
BRANCH  11  23
ATOM     23  O   UNL     1       4.931   7.003  16.484  0.00  0.00    +0.000 OA
ATOM     24  H   UNL     1       4.511   7.215  15.623  0.00  0.00    +0.000 HD
ENDBRANCH  11  23
TORSDOF 4
ENDMDL
MODEL 4
REMARK VINA RESULT:      -7.1      2.826      6.156
REMARK  Name = 
REMARK  5 active torsions:
REMARK  status: ('A' for Active; 'I' for Inactive)
REMARK    1  A    between atoms: C_1  and  O_2
REMARK    2  A    between atoms: O_2  and  C_3
REMARK    3  A    between atoms: C_8  and  C_9
REMARK    4  A    between atoms: C_14  and  N_15
REMARK    5  A    between atoms: C_20  and  O_21
REMARK                            x       y       z     vdW  Elec       q    Type
REMARK                         _______ _______ _______ _____ _____    ______ ____
ROOT
ATOM      1  C   UNL     1       3.714   4.489  18.067  0.00  0.00    +0.000 A 
ATOM      2  O   UNL     1       4.152   3.671  17.024  0.00  0.00    +0.000 OA
ATOM      3  C   UNL     1       5.055   4.180  16.115  0.00  0.00    +0.000 A 
ATOM      4  C   UNL     1       5.394   3.401  15.011  0.00  0.00    +0.000 A 
ATOM      5  C   UNL     1       6.373   3.850  14.115  0.00  0.00    +0.000 A 
ATOM      6  C   UNL     1       7.010   5.082  14.299  0.00  0.00    +0.000 A 
ATOM      7  C   UNL     1       6.687   5.839  15.425  0.00  0.00    +0.000 A 
ATOM      8  C   UNL     1       5.668   5.411  16.283  0.00  0.00    +0.000 A 
ATOM      9  C   UNL     1       5.204   6.281  17.362  0.00  0.00    +0.000 A 
ATOM     10  O   UNL     1       5.690   7.384  17.596  0.00  0.00    +0.000 OA
ATOM     11  C   UNL     1       4.092   5.777  18.201  0.00  0.00    +0.000 A 
ENDROOT
BRANCH   1  17
ATOM     12  C   UNL     1       3.460   2.950  20.116  0.00  0.00    +0.000 A 
ATOM     13  C   UNL     1       2.638   2.503  21.171  0.00  0.00    +0.000 A 
ATOM     14  C   UNL     1       1.276   2.801  21.204  0.00  0.00    +0.000 A 
ATOM     15  C   UNL     1       0.718   3.559  20.191  0.00  0.00    +0.000 A 
ATOM     16  C   UNL     1       1.533   4.054  19.174  0.00  0.00    +0.000 A 
ATOM     17  C   UNL     1       2.918   3.777  19.112  0.00  0.00    +0.000 A 
BRANCH  12  19
ATOM     18  C   UNL     1       5.171   1.470  20.793  0.00  0.00    +0.000 C 
ATOM     19  O   UNL     1       4.796   2.633  20.057  0.00  0.00    +0.000 OA
ENDBRANCH  12  19
ENDBRANCH   1  17
BRANCH   6  20
ATOM     20  N   UNL     1       8.098   5.444  13.499  0.00  0.00    +0.000 N 
ATOM     21  H   UNL     1       9.003   5.192  13.883  0.00  0.00    +0.000 HD
ATOM     22  H   UNL     1       8.006   5.177  12.523  0.00  0.00    +0.000 HD
ENDBRANCH   6  20
BRANCH  11  23
ATOM     23  O   UNL     1       3.590   6.657  19.142  0.00  0.00    +0.000 OA
ATOM     24  H   UNL     1       3.838   6.265  20.006  0.00  0.00    +0.000 HD
ENDBRANCH  11  23
TORSDOF 4
ENDMDL
MODEL 5
REMARK VINA RESULT:      -7.1      3.882      6.139
REMARK  Name = 
REMARK  5 active torsions:
REMARK  status: ('A' for Active; 'I' for Inactive)
REMARK    1  A    between atoms: C_1  and  O_2
REMARK    2  A    between atoms: O_2  and  C_3
REMARK    3  A    between atoms: C_8  and  C_9
REMARK    4  A    between atoms: C_14  and  N_15
REMARK    5  A    between atoms: C_20  and  O_21
REMARK                            x       y       z     vdW  Elec       q    Type
REMARK                         _______ _______ _______ _____ _____    ______ ____
ROOT
ATOM      1  C   UNL     1       2.094   6.738  19.814  0.00  0.00    +0.000 A 
ATOM      2  O   UNL     1       1.435   7.284  20.917  0.00  0.00    +0.000 OA
ATOM      3  C   UNL     1       1.048   8.606  20.874  0.00  0.00    +0.000 A 
ATOM      4  C   UNL     1       0.501   9.174  22.022  0.00  0.00    +0.000 A 
ATOM      5  C   UNL     1       0.017  10.488  21.987  0.00  0.00    +0.000 A 
ATOM      6  C   UNL     1       0.089  11.253  20.818  0.00  0.00    +0.000 A 
ATOM      7  C   UNL     1       0.609  10.665  19.665  0.00  0.00    +0.000 A 
ATOM      8  C   UNL     1       1.142   9.373  19.724  0.00  0.00    +0.000 A 
ATOM      9  C   UNL     1       1.846   8.816  18.569  0.00  0.00    +0.000 A 
ATOM     10  O   UNL     1       1.972   9.414  17.504  0.00  0.00    +0.000 OA
ATOM     11  C   UNL     1       2.421   7.460  18.721  0.00  0.00    +0.000 A 
ENDROOT
BRANCH   1  17
ATOM     12  C   UNL     1       3.505   4.584  19.819  0.00  0.00    +0.000 A 
ATOM     13  C   UNL     1       3.563   3.204  20.097  0.00  0.00    +0.000 A 
ATOM     14  C   UNL     1       2.407   2.467  20.354  0.00  0.00    +0.000 A 
ATOM     15  C   UNL     1       1.178   3.102  20.350  0.00  0.00    +0.000 A 
ATOM     16  C   UNL     1       1.116   4.477  20.133  0.00  0.00    +0.000 A 
ATOM     17  C   UNL     1       2.268   5.256  19.874  0.00  0.00    +0.000 A 
BRANCH  12  19
ATOM     18  C   UNL     1       5.610   4.623  18.748  0.00  0.00    +0.000 C 
ATOM     19  O   UNL     1       4.636   5.312  19.530  0.00  0.00    +0.000 OA
ENDBRANCH  12  19
ENDBRANCH   1  17
BRANCH   6  20
ATOM     20  N   UNL     1      -0.544  12.498  20.745  0.00  0.00    +0.000 N 
ATOM     21  H   UNL     1      -0.918  12.725  19.829  0.00  0.00    +0.000 HD
ATOM     22  H   UNL     1      -1.215  12.670  21.489  0.00  0.00    +0.000 HD
ENDBRANCH   6  20
BRANCH  11  23
ATOM     23  O   UNL     1       3.179   6.996  17.663  0.00  0.00    +0.000 OA
ATOM     24  H   UNL     1       3.283   7.772  17.072  0.00  0.00    +0.000 HD
ENDBRANCH  11  23
TORSDOF 4
ENDMDL
MODEL 6
REMARK VINA RESULT:      -7.1      3.603      5.355
REMARK  Name = 
REMARK  5 active torsions:
REMARK  status: ('A' for Active; 'I' for Inactive)
REMARK    1  A    between atoms: C_1  and  O_2
REMARK    2  A    between atoms: O_2  and  C_3
REMARK    3  A    between atoms: C_8  and  C_9
REMARK    4  A    between atoms: C_14  and  N_15
REMARK    5  A    between atoms: C_20  and  O_21
REMARK                            x       y       z     vdW  Elec       q    Type
REMARK                         _______ _______ _______ _____ _____    ______ ____
ROOT
ATOM      1  C   UNL     1       2.570   6.594  19.120  0.00  0.00    +0.000 A 
ATOM      2  O   UNL     1       1.901   6.860  20.316  0.00  0.00    +0.000 OA
ATOM      3  C   UNL     1       1.396   8.126  20.529  0.00  0.00    +0.000 A 
ATOM      4  C   UNL     1       0.839   8.416  21.772  0.00  0.00    +0.000 A 
ATOM      5  C   UNL     1       0.238   9.662  21.992  0.00  0.00    +0.000 A 
ATOM      6  C   UNL     1       0.205  10.636  20.988  0.00  0.00    +0.000 A 
ATOM      7  C   UNL     1       0.737  10.323  19.737  0.00  0.00    +0.000 A 
ATOM      8  C   UNL     1       1.384   9.098  19.543  0.00  0.00    +0.000 A 
ATOM      9  C   UNL     1       2.098   8.835  18.294  0.00  0.00    +0.000 A 
ATOM     10  O   UNL     1       2.136   9.630  17.359  0.00  0.00    +0.000 OA
ATOM     11  C   UNL     1       2.795   7.534  18.179  0.00  0.00    +0.000 A 
ENDROOT
BRANCH   1  17
ATOM     12  C   UNL     1       4.074   4.510  19.274  0.00  0.00    +0.000 A 
ATOM     13  C   UNL     1       4.167   3.105  19.206  0.00  0.00    +0.000 A 
ATOM     14  C   UNL     1       3.121   2.334  18.701  0.00  0.00    +0.000 A 
ATOM     15  C   UNL     1       1.963   2.953  18.268  0.00  0.00    +0.000 A 
ATOM     16  C   UNL     1       1.838   4.337  18.385  0.00  0.00    +0.000 A 
ATOM     17  C   UNL     1       2.876   5.149  18.897  0.00  0.00    +0.000 A 
BRANCH  12  19
ATOM     18  C   UNL     1       6.218   5.401  18.844  0.00  0.00    +0.000 C 
ATOM     19  O   UNL     1       5.114   5.282  19.738  0.00  0.00    +0.000 OA
ENDBRANCH  12  19
ENDBRANCH   1  17
BRANCH   6  20
ATOM     20  N   UNL     1      -0.539  11.807  21.160  0.00  0.00    +0.000 N 
ATOM     21  H   UNL     1      -1.168  12.021  20.393  0.00  0.00    +0.000 HD
ATOM     22  H   UNL     1      -0.995  11.883  22.065  0.00  0.00    +0.000 HD
ENDBRANCH   6  20
BRANCH  11  23
ATOM     23  O   UNL     1       3.558   7.348  17.041  0.00  0.00    +0.000 OA
ATOM     24  H   UNL     1       3.361   6.430  16.757  0.00  0.00    +0.000 HD
ENDBRANCH  11  23
TORSDOF 4
ENDMDL
MODEL 7
REMARK VINA RESULT:      -6.7      2.942      6.459
REMARK  Name = 
REMARK  5 active torsions:
REMARK  status: ('A' for Active; 'I' for Inactive)
REMARK    1  A    between atoms: C_1  and  O_2
REMARK    2  A    between atoms: O_2  and  C_3
REMARK    3  A    between atoms: C_8  and  C_9
REMARK    4  A    between atoms: C_14  and  N_15
REMARK    5  A    between atoms: C_20  and  O_21
REMARK                            x       y       z     vdW  Elec       q    Type
REMARK                         _______ _______ _______ _____ _____    ______ ____
ROOT
ATOM      1  C   UNL     1       4.665   4.515  18.400  0.00  0.00    +0.000 A 
ATOM      2  O   UNL     1       4.216   4.328  17.091  0.00  0.00    +0.000 OA
ATOM      3  C   UNL     1       5.106   4.497  16.052  0.00  0.00    +0.000 A 
ATOM      4  C   UNL     1       4.623   4.428  14.748  0.00  0.00    +0.000 A 
ATOM      5  C   UNL     1       5.513   4.507  13.669  0.00  0.00    +0.000 A 
ATOM      6  C   UNL     1       6.887   4.674  13.877  0.00  0.00    +0.000 A 
ATOM      7  C   UNL     1       7.365   4.708  15.187  0.00  0.00    +0.000 A 
ATOM      8  C   UNL     1       6.463   4.686  16.257  0.00  0.00    +0.000 A 
ATOM      9  C   UNL     1       6.941   4.900  17.623  0.00  0.00    +0.000 A 
ATOM     10  O   UNL     1       8.124   5.066  17.905  0.00  0.00    +0.000 OA
ATOM     11  C   UNL     1       5.922   4.906  18.698  0.00  0.00    +0.000 A 
ENDROOT
BRANCH   1  17
ATOM     12  C   UNL     1       3.631   2.811  20.030  0.00  0.00    +0.000 A 
ATOM     13  C   UNL     1       2.812   2.591  21.156  0.00  0.00    +0.000 A 
ATOM     14  C   UNL     1       1.997   3.600  21.667  0.00  0.00    +0.000 A 
ATOM     15  C   UNL     1       1.996   4.847  21.067  0.00  0.00    +0.000 A 
ATOM     16  C   UNL     1       2.845   5.091  19.989  0.00  0.00    +0.000 A 
ATOM     17  C   UNL     1       3.689   4.093  19.449  0.00  0.00    +0.000 A 
BRANCH  12  19
ATOM     18  C   UNL     1       3.818   1.095  18.419  0.00  0.00    +0.000 C 
ATOM     19  O   UNL     1       4.413   1.812  19.498  0.00  0.00    +0.000 OA
ENDBRANCH  12  19
ENDBRANCH   1  17
BRANCH   6  20
ATOM     20  N   UNL     1       7.782   4.584  12.807  0.00  0.00    +0.000 N 
ATOM     21  H   UNL     1       7.433   4.970  11.935  0.00  0.00    +0.000 HD
ATOM     22  H   UNL     1       8.723   4.904  13.020  0.00  0.00    +0.000 HD
ENDBRANCH   6  20
BRANCH  11  23
ATOM     23  O   UNL     1       6.374   5.222  19.965  0.00  0.00    +0.000 OA
ATOM     24  H   UNL     1       7.285   5.557  19.828  0.00  0.00    +0.000 HD
ENDBRANCH  11  23
TORSDOF 4
ENDMDL
MODEL 8
REMARK VINA RESULT:      -6.6      2.809      6.368
REMARK  Name = 
REMARK  5 active torsions:
REMARK  status: ('A' for Active; 'I' for Inactive)
REMARK    1  A    between atoms: C_1  and  O_2
REMARK    2  A    between atoms: O_2  and  C_3
REMARK    3  A    between atoms: C_8  and  C_9
REMARK    4  A    between atoms: C_14  and  N_15
REMARK    5  A    between atoms: C_20  and  O_21
REMARK                            x       y       z     vdW  Elec       q    Type
REMARK                         _______ _______ _______ _____ _____    ______ ____
ROOT
ATOM      1  C   UNL     1       4.740   4.574  18.451  0.00  0.00    +0.000 A 
ATOM      2  O   UNL     1       4.207   4.385  17.175  0.00  0.00    +0.000 OA
ATOM      3  C   UNL     1       5.051   4.445  16.086  0.00  0.00    +0.000 A 
ATOM      4  C   UNL     1       4.494   4.377  14.811  0.00  0.00    +0.000 A 
ATOM      5  C   UNL     1       5.329   4.346  13.687  0.00  0.00    +0.000 A 
ATOM      6  C   UNL     1       6.721   4.402  13.819  0.00  0.00    +0.000 A 
ATOM      7  C   UNL     1       7.269   4.438  15.100  0.00  0.00    +0.000 A 
ATOM      8  C   UNL     1       6.428   4.525  16.214  0.00  0.00    +0.000 A 
ATOM      9  C   UNL     1       6.994   4.741  17.546  0.00  0.00    +0.000 A 
ATOM     10  O   UNL     1       8.200   4.816  17.761  0.00  0.00    +0.000 OA
ATOM     11  C   UNL     1       6.039   4.867  18.670  0.00  0.00    +0.000 A 
ENDROOT
BRANCH   1  17
ATOM     12  C   UNL     1       2.829   5.166  20.072  0.00  0.00    +0.000 A 
ATOM     13  C   UNL     1       1.850   4.701  20.974  0.00  0.00    +0.000 A 
ATOM     14  C   UNL     1       1.855   3.384  21.434  0.00  0.00    +0.000 A 
ATOM     15  C   UNL     1       2.832   2.510  20.991  0.00  0.00    +0.000 A 
ATOM     16  C   UNL     1       3.770   2.944  20.055  0.00  0.00    +0.000 A 
ATOM     17  C   UNL     1       3.790   4.270  19.563  0.00  0.00    +0.000 A 
BRANCH  12  19
ATOM     18  C   UNL     1       1.898   7.328  20.265  0.00  0.00    +0.000 C 
ATOM     19  O   UNL     1       2.852   6.471  19.640  0.00  0.00    +0.000 OA
ENDBRANCH  12  19
ENDBRANCH   1  17
BRANCH   6  20
ATOM     20  N   UNL     1       7.546   4.204  12.708  0.00  0.00    +0.000 N 
ATOM     21  H   UNL     1       8.435   3.762  12.920  0.00  0.00    +0.000 HD
ATOM     22  H   UNL     1       7.082   3.773  11.913  0.00  0.00    +0.000 HD
ENDBRANCH   6  20
BRANCH  11  23
ATOM     23  O   UNL     1       6.583   5.184  19.901  0.00  0.00    +0.000 OA
ATOM     24  H   UNL     1       7.336   5.778  19.695  0.00  0.00    +0.000 HD
ENDBRANCH  11  23
TORSDOF 4
ENDMDL
MODEL 9
REMARK VINA RESULT:      -6.6      3.066      4.772
REMARK  Name = 
REMARK  5 active torsions:
REMARK  status: ('A' for Active; 'I' for Inactive)
REMARK    1  A    between atoms: C_1  and  O_2
REMARK    2  A    between atoms: O_2  and  C_3
REMARK    3  A    between atoms: C_8  and  C_9
REMARK    4  A    between atoms: C_14  and  N_15
REMARK    5  A    between atoms: C_20  and  O_21
REMARK                            x       y       z     vdW  Elec       q    Type
REMARK                         _______ _______ _______ _____ _____    ______ ____
ROOT
ATOM      1  C   UNL     1       3.552   6.230  18.182  0.00  0.00    +0.000 A 
ATOM      2  O   UNL     1       3.220   7.482  17.661  0.00  0.00    +0.000 OA
ATOM      3  C   UNL     1       2.315   8.268  18.342  0.00  0.00    +0.000 A 
ATOM      4  C   UNL     1       1.898   9.460  17.755  0.00  0.00    +0.000 A 
ATOM      5  C   UNL     1       1.049  10.324  18.458  0.00  0.00    +0.000 A 
ATOM      6  C   UNL     1       0.593  10.002  19.741  0.00  0.00    +0.000 A 
ATOM      7  C   UNL     1       1.042   8.823  20.333  0.00  0.00    +0.000 A 
ATOM      8  C   UNL     1       1.844   7.939  19.603  0.00  0.00    +0.000 A 
ATOM      9  C   UNL     1       2.172   6.623  20.150  0.00  0.00    +0.000 A 
ATOM     10  O   UNL     1       1.809   6.244  21.260  0.00  0.00    +0.000 OA
ATOM     11  C   UNL     1       2.989   5.726  19.300  0.00  0.00    +0.000 A 
ENDROOT
BRANCH   1  17
ATOM     12  C   UNL     1       4.613   4.350  16.778  0.00  0.00    +0.000 A 
ATOM     13  C   UNL     1       5.704   3.926  15.994  0.00  0.00    +0.000 A 
ATOM     14  C   UNL     1       6.899   4.644  15.966  0.00  0.00    +0.000 A 
ATOM     15  C   UNL     1       7.017   5.803  16.712  0.00  0.00    +0.000 A 
ATOM     16  C   UNL     1       5.924   6.262  17.446  0.00  0.00    +0.000 A 
ATOM     17  C   UNL     1       4.696   5.562  17.493  0.00  0.00    +0.000 A 
BRANCH  12  19
ATOM     18  C   UNL     1       3.548   2.369  17.498  0.00  0.00    +0.000 C 
ATOM     19  O   UNL     1       3.443   3.630  16.840  0.00  0.00    +0.000 OA
ENDBRANCH  12  19
ENDBRANCH   1  17
BRANCH   6  20
ATOM     20  N   UNL     1      -0.115  10.941  20.498  0.00  0.00    +0.000 N 
ATOM     21  H   UNL     1       0.420  11.766  20.749  0.00  0.00    +0.000 HD
ATOM     22  H   UNL     1      -1.031  11.175  20.123  0.00  0.00    +0.000 HD
ENDBRANCH   6  20
BRANCH  11  23
ATOM     23  O   UNL     1       3.194   4.447  19.782  0.00  0.00    +0.000 OA
ATOM     24  H   UNL     1       2.354   3.974  19.597  0.00  0.00    +0.000 HD
ENDBRANCH  11  23
TORSDOF 4
ENDMDL
