MODEL 1
REMARK VINA RESULT:      -6.9      0.000      0.000
REMARK  Name = 
REMARK  7 active torsions:
REMARK  status: ('A' for Active; 'I' for Inactive)
REMARK    1  A    between atoms: C_1  and  O_2
REMARK    2  A    between atoms: O_2  and  C_3
REMARK    3  A    between atoms: C_3  and  C_5
REMARK    4  A    between atoms: C_8  and  N_9
REMARK    5  A    between atoms: C_10  and  C_12
REMARK    6  A    between atoms: C_12  and  C_13
REMARK    7  A    between atoms: C_13  and  C_14
REMARK                            x       y       z     vdW  Elec       q    Type
REMARK                         _______ _______ _______ _____ _____    ______ ____
ROOT
ATOM      1  N   UNL     1       3.995   5.445  19.080  0.00  0.00    +0.000 N 
ATOM      2  C   UNL     1       2.746   6.036  19.193  0.00  0.00    +0.000 C 
ATOM      3  O   UNL     1       2.077   6.511  18.281  0.00  0.00    +0.000 OA
ATOM      4  H   UNL     1       4.408   5.059  19.921  0.00  0.00    +0.000 HD
ENDROOT
BRANCH   1   8
ATOM      5  C   UNL     1       6.198   4.971  15.493  0.00  0.00    +0.000 A 
ATOM      6  C   UNL     1       6.585   5.937  16.422  0.00  0.00    +0.000 A 
ATOM      7  C   UNL     1       5.870   6.097  17.611  0.00  0.00    +0.000 A 
ATOM      8  C   UNL     1       4.753   5.308  17.896  0.00  0.00    +0.000 A 
ATOM      9  C   UNL     1       4.364   4.338  16.967  0.00  0.00    +0.000 A 
ATOM     10  C   UNL     1       5.080   4.168  15.771  0.00  0.00    +0.000 A 
BRANCH   5  11
ATOM     11  C   UNL     1       7.002   4.840  14.252  0.00  0.00    +0.000 C 
ATOM     12  O   UNL     1       7.957   5.551  13.975  0.00  0.00    +0.000 OA
BRANCH  11  14
ATOM     13  C   UNL     1       6.932   3.872  12.128  0.00  0.00    +0.000 C 
ATOM     14  O   UNL     1       6.523   3.824  13.494  0.00  0.00    +0.000 OA
ENDBRANCH  11  14
ENDBRANCH   5  11
ENDBRANCH   1   8
BRANCH   2  15
ATOM     15  C   UNL     1       2.203   6.068  20.602  0.00  0.00    +0.000 C 
BRANCH  15  16
ATOM     16  C   UNL     1       2.217   4.678  21.219  0.00  0.00    +0.000 C 
BRANCH  16  17
ATOM     17  C   UNL     1       1.814   3.649  20.234  0.00  0.00    +0.000 A 
ATOM     18  C   UNL     1       0.613   3.313  19.650  0.00  0.00    +0.000 A 
ATOM     19  C   UNL     1       0.881   2.212  18.803  0.00  0.00    +0.000 A 
ATOM     20  C   UNL     1       2.228   1.956  18.919  0.00  0.00    +0.000 A 
ATOM     21  O   UNL     1       2.805   2.829  19.783  0.00  0.00    +0.000 OA
ENDBRANCH  16  17
ENDBRANCH  15  16
ENDBRANCH   2  15
TORSDOF 6
ENDMDL
MODEL 2
REMARK VINA RESULT:      -6.7      3.838      7.503
REMARK  Name = 
REMARK  7 active torsions:
REMARK  status: ('A' for Active; 'I' for Inactive)
REMARK    1  A    between atoms: C_1  and  O_2
REMARK    2  A    between atoms: O_2  and  C_3
REMARK    3  A    between atoms: C_3  and  C_5
REMARK    4  A    between atoms: C_8  and  N_9
REMARK    5  A    between atoms: C_10  and  C_12
REMARK    6  A    between atoms: C_12  and  C_13
REMARK    7  A    between atoms: C_13  and  C_14
REMARK                            x       y       z     vdW  Elec       q    Type
REMARK                         _______ _______ _______ _____ _____    ______ ____
ROOT
ATOM      1  N   UNL     1       5.955   7.045  17.940  0.00  0.00    +0.000 N 
ATOM      2  C   UNL     1       7.157   7.316  17.305  0.00  0.00    +0.000 C 
ATOM      3  O   UNL     1       7.819   6.534  16.628  0.00  0.00    +0.000 OA
ATOM      4  H   UNL     1       5.502   7.807  18.430  0.00  0.00    +0.000 HD
ENDROOT
BRANCH   1   8
ATOM      5  C   UNL     1       3.949   3.317  18.092  0.00  0.00    +0.000 A 
ATOM      6  C   UNL     1       3.871   4.100  16.940  0.00  0.00    +0.000 A 
ATOM      7  C   UNL     1       4.535   5.327  16.877  0.00  0.00    +0.000 A 
ATOM      8  C   UNL     1       5.279   5.804  17.958  0.00  0.00    +0.000 A 
ATOM      9  C   UNL     1       5.359   5.021  19.114  0.00  0.00    +0.000 A 
ATOM     10  C   UNL     1       4.698   3.783  19.184  0.00  0.00    +0.000 A 
BRANCH   5  11
ATOM     11  C   UNL     1       3.231   2.017  18.098  0.00  0.00    +0.000 C 
ATOM     12  O   UNL     1       3.738   0.955  18.430  0.00  0.00    +0.000 OA
BRANCH  11  14
ATOM     13  C   UNL     1       1.033   2.460  18.747  0.00  0.00    +0.000 C 
ATOM     14  O   UNL     1       1.951   2.191  17.690  0.00  0.00    +0.000 OA
ENDBRANCH  11  14
ENDBRANCH   5  11
ENDBRANCH   1   8
BRANCH   2  15
ATOM     15  C   UNL     1       7.651   8.730  17.496  0.00  0.00    +0.000 C 
BRANCH  15  16
ATOM     16  C   UNL     1       8.605   8.816  18.675  0.00  0.00    +0.000 C 
BRANCH  16  17
ATOM     17  C   UNL     1       9.070  10.205  18.892  0.00  0.00    +0.000 A 
ATOM     18  C   UNL     1       9.807  10.816  19.882  0.00  0.00    +0.000 A 
ATOM     19  C   UNL     1       9.892  12.182  19.524  0.00  0.00    +0.000 A 
ATOM     20  C   UNL     1       9.209  12.312  18.337  0.00  0.00    +0.000 A 
ATOM     21  O   UNL     1       8.710  11.113  17.942  0.00  0.00    +0.000 OA
ENDBRANCH  16  17
ENDBRANCH  15  16
ENDBRANCH   2  15
TORSDOF 6
ENDMDL
MODEL 3
REMARK VINA RESULT:      -6.7      4.223      7.808
REMARK  Name = 
REMARK  7 active torsions:
REMARK  status: ('A' for Active; 'I' for Inactive)
REMARK    1  A    between atoms: C_1  and  O_2
REMARK    2  A    between atoms: O_2  and  C_3
REMARK    3  A    between atoms: C_3  and  C_5
REMARK    4  A    between atoms: C_8  and  N_9
REMARK    5  A    between atoms: C_10  and  C_12
REMARK    6  A    between atoms: C_12  and  C_13
REMARK    7  A    between atoms: C_13  and  C_14
REMARK                            x       y       z     vdW  Elec       q    Type
REMARK                         _______ _______ _______ _____ _____    ______ ____
ROOT
ATOM      1  N   UNL     1       6.381   7.420  17.050  0.00  0.00    +0.000 N 
ATOM      2  C   UNL     1       7.548   7.670  17.755  0.00  0.00    +0.000 C 
ATOM      3  O   UNL     1       8.058   6.946  18.605  0.00  0.00    +0.000 OA
ATOM      4  H   UNL     1       6.105   8.095  16.346  0.00  0.00    +0.000 HD
ENDROOT
BRANCH   1   8
ATOM      5  C   UNL     1       3.914   4.001  17.455  0.00  0.00    +0.000 A 
ATOM      6  C   UNL     1       3.562   5.190  18.094  0.00  0.00    +0.000 A 
ATOM      7  C   UNL     1       4.365   6.325  17.961  0.00  0.00    +0.000 A 
ATOM      8  C   UNL     1       5.535   6.298  17.200  0.00  0.00    +0.000 A 
ATOM      9  C   UNL     1       5.890   5.108  16.558  0.00  0.00    +0.000 A 
ATOM     10  C   UNL     1       5.086   3.963  16.683  0.00  0.00    +0.000 A 
BRANCH   5  11
ATOM     11  C   UNL     1       3.017   2.829  17.625  0.00  0.00    +0.000 C 
ATOM     12  O   UNL     1       3.407   1.673  17.711  0.00  0.00    +0.000 OA
BRANCH  11  14
ATOM     13  C   UNL     1       0.939   2.566  18.654  0.00  0.00    +0.000 C 
ATOM     14  O   UNL     1       1.726   3.236  17.672  0.00  0.00    +0.000 OA
ENDBRANCH  11  14
ENDBRANCH   5  11
ENDBRANCH   1   8
BRANCH   2  15
ATOM     15  C   UNL     1       8.217   8.976  17.398  0.00  0.00    +0.000 C 
BRANCH  15  16
ATOM     16  C   UNL     1       8.775   9.656  18.638  0.00  0.00    +0.000 C 
BRANCH  16  17
ATOM     17  C   UNL     1       9.335  10.988  18.316  0.00  0.00    +0.000 A 
ATOM     18  C   UNL     1       8.909  12.277  18.545  0.00  0.00    +0.000 A 
ATOM     19  C   UNL     1       9.882  13.123  17.964  0.00  0.00    +0.000 A 
ATOM     20  C   UNL     1      10.841  12.296  17.428  0.00  0.00    +0.000 A 
ATOM     21  O   UNL     1      10.519  10.994  17.641  0.00  0.00    +0.000 OA
ENDBRANCH  16  17
ENDBRANCH  15  16
ENDBRANCH   2  15
TORSDOF 6
ENDMDL
MODEL 4
REMARK VINA RESULT:      -6.6      0.691      1.070
REMARK  Name = 
REMARK  7 active torsions:
REMARK  status: ('A' for Active; 'I' for Inactive)
REMARK    1  A    between atoms: C_1  and  O_2
REMARK    2  A    between atoms: O_2  and  C_3
REMARK    3  A    between atoms: C_3  and  C_5
REMARK    4  A    between atoms: C_8  and  N_9
REMARK    5  A    between atoms: C_10  and  C_12
REMARK    6  A    between atoms: C_12  and  C_13
REMARK    7  A    between atoms: C_13  and  C_14
REMARK                            x       y       z     vdW  Elec       q    Type
REMARK                         _______ _______ _______ _____ _____    ______ ____
ROOT
ATOM      1  N   UNL     1       3.956   5.626  18.711  0.00  0.00    +0.000 N 
ATOM      2  C   UNL     1       2.610   5.944  18.814  0.00  0.00    +0.000 C 
ATOM      3  O   UNL     1       1.807   6.034  17.890  0.00  0.00    +0.000 OA
ATOM      4  H   UNL     1       4.485   5.547  19.571  0.00  0.00    +0.000 HD
ENDROOT
BRANCH   1   8
ATOM      5  C   UNL     1       6.095   4.981  15.113  0.00  0.00    +0.000 A 
ATOM      6  C   UNL     1       5.878   3.918  15.991  0.00  0.00    +0.000 A 
ATOM      7  C   UNL     1       5.168   4.119  17.176  0.00  0.00    +0.000 A 
ATOM      8  C   UNL     1       4.668   5.378  17.517  0.00  0.00    +0.000 A 
ATOM      9  C   UNL     1       4.884   6.444  16.638  0.00  0.00    +0.000 A 
ATOM     10  C   UNL     1       5.593   6.250  15.441  0.00  0.00    +0.000 A 
BRANCH   5  11
ATOM     11  C   UNL     1       6.848   4.706  13.862  0.00  0.00    +0.000 C 
ATOM     12  O   UNL     1       7.638   5.486  13.352  0.00  0.00    +0.000 OA
BRANCH  11  14
ATOM     13  C   UNL     1       5.689   3.492  12.239  0.00  0.00    +0.000 C 
ATOM     14  O   UNL     1       6.531   3.476  13.390  0.00  0.00    +0.000 OA
ENDBRANCH  11  14
ENDBRANCH   5  11
ENDBRANCH   1   8
BRANCH   2  15
ATOM     15  C   UNL     1       2.140   6.191  20.228  0.00  0.00    +0.000 C 
BRANCH  15  16
ATOM     16  C   UNL     1       2.153   4.902  21.035  0.00  0.00    +0.000 C 
BRANCH  16  17
ATOM     17  C   UNL     1       1.829   3.733  20.186  0.00  0.00    +0.000 A 
ATOM     18  C   UNL     1       0.651   3.205  19.706  0.00  0.00    +0.000 A 
ATOM     19  C   UNL     1       1.009   2.054  18.965  0.00  0.00    +0.000 A 
ATOM     20  C   UNL     1       2.379   1.961  19.034  0.00  0.00    +0.000 A 
ATOM     21  O   UNL     1       2.888   2.982  19.770  0.00  0.00    +0.000 OA
ENDBRANCH  16  17
ENDBRANCH  15  16
ENDBRANCH   2  15
TORSDOF 6
ENDMDL
MODEL 5
REMARK VINA RESULT:      -6.6      3.560      6.359
REMARK  Name = 
REMARK  7 active torsions:
REMARK  status: ('A' for Active; 'I' for Inactive)
REMARK    1  A    between atoms: C_1  and  O_2
REMARK    2  A    between atoms: O_2  and  C_3
REMARK    3  A    between atoms: C_3  and  C_5
REMARK    4  A    between atoms: C_8  and  N_9
REMARK    5  A    between atoms: C_10  and  C_12
REMARK    6  A    between atoms: C_12  and  C_13
REMARK    7  A    between atoms: C_13  and  C_14
REMARK                            x       y       z     vdW  Elec       q    Type
REMARK                         _______ _______ _______ _____ _____    ______ ____
ROOT
ATOM      1  N   UNL     1       2.997   5.435  18.432  0.00  0.00    +0.000 N 
ATOM      2  C   UNL     1       2.327   4.478  17.685  0.00  0.00    +0.000 C 
ATOM      3  O   UNL     1       1.164   4.536  17.298  0.00  0.00    +0.000 OA
ATOM      4  H   UNL     1       3.973   5.265  18.643  0.00  0.00    +0.000 HD
ENDROOT
BRANCH   1   8
ATOM      5  C   UNL     1       1.379   9.103  19.800  0.00  0.00    +0.000 A 
ATOM      6  C   UNL     1       1.462   8.014  20.669  0.00  0.00    +0.000 A 
ATOM      7  C   UNL     1       2.000   6.802  20.230  0.00  0.00    +0.000 A 
ATOM      8  C   UNL     1       2.457   6.646  18.919  0.00  0.00    +0.000 A 
ATOM      9  C   UNL     1       2.376   7.736  18.047  0.00  0.00    +0.000 A 
ATOM     10  C   UNL     1       1.840   8.959  18.482  0.00  0.00    +0.000 A 
BRANCH   5  11
ATOM     11  C   UNL     1       0.807  10.368  20.326  0.00  0.00    +0.000 C 
ATOM     12  O   UNL     1       0.983  10.780  21.463  0.00  0.00    +0.000 OA
BRANCH  11  14
ATOM     13  C   UNL     1      -1.265  11.272  19.744  0.00  0.00    +0.000 C 
ATOM     14  O   UNL     1       0.078  10.983  19.363  0.00  0.00    +0.000 OA
ENDBRANCH  11  14
ENDBRANCH   5  11
ENDBRANCH   1   8
BRANCH   2  15
ATOM     15  C   UNL     1       3.162   3.267  17.341  0.00  0.00    +0.000 C 
BRANCH  15  16
ATOM     16  C   UNL     1       2.652   2.034  18.069  0.00  0.00    +0.000 C 
BRANCH  16  17
ATOM     17  C   UNL     1       2.264   2.353  19.462  0.00  0.00    +0.000 A 
ATOM     18  C   UNL     1       1.056   2.405  20.122  0.00  0.00    +0.000 A 
ATOM     19  C   UNL     1       1.350   2.801  21.448  0.00  0.00    +0.000 A 
ATOM     20  C   UNL     1       2.715   2.956  21.511  0.00  0.00    +0.000 A 
ATOM     21  O   UNL     1       3.280   2.680  20.308  0.00  0.00    +0.000 OA
ENDBRANCH  16  17
ENDBRANCH  15  16
ENDBRANCH   2  15
TORSDOF 6
ENDMDL
MODEL 6
REMARK VINA RESULT:      -6.6      4.095      7.787
REMARK  Name = 
REMARK  7 active torsions:
REMARK  status: ('A' for Active; 'I' for Inactive)
REMARK    1  A    between atoms: C_1  and  O_2
REMARK    2  A    between atoms: O_2  and  C_3
REMARK    3  A    between atoms: C_3  and  C_5
REMARK    4  A    between atoms: C_8  and  N_9
REMARK    5  A    between atoms: C_10  and  C_12
REMARK    6  A    between atoms: C_12  and  C_13
REMARK    7  A    between atoms: C_13  and  C_14
REMARK                            x       y       z     vdW  Elec       q    Type
REMARK                         _______ _______ _______ _____ _____    ______ ____
ROOT
ATOM      1  N   UNL     1       6.263   7.042  17.520  0.00  0.00    +0.000 N 
ATOM      2  C   UNL     1       7.523   7.373  17.996  0.00  0.00    +0.000 C 
ATOM      3  O   UNL     1       8.239   6.680  18.713  0.00  0.00    +0.000 OA
ATOM      4  H   UNL     1       5.809   7.703  16.901  0.00  0.00    +0.000 HD
ENDROOT
BRANCH   1   8
ATOM      5  C   UNL     1       4.141   3.453  18.266  0.00  0.00    +0.000 A 
ATOM      6  C   UNL     1       4.337   4.371  19.299  0.00  0.00    +0.000 A 
ATOM      7  C   UNL     1       5.029   5.560  19.062  0.00  0.00    +0.000 A 
ATOM      8  C   UNL     1       5.548   5.856  17.799  0.00  0.00    +0.000 A 
ATOM      9  C   UNL     1       5.352   4.939  16.762  0.00  0.00    +0.000 A 
ATOM     10  C   UNL     1       4.653   3.743  16.991  0.00  0.00    +0.000 A 
BRANCH   5  11
ATOM     11  C   UNL     1       3.389   2.210  18.575  0.00  0.00    +0.000 C 
ATOM     12  O   UNL     1       3.714   1.098  18.187  0.00  0.00    +0.000 OA
BRANCH  11  14
ATOM     13  C   UNL     1       1.063   2.398  18.658  0.00  0.00    +0.000 C 
ATOM     14  O   UNL     1       2.310   2.499  19.342  0.00  0.00    +0.000 OA
ENDBRANCH  11  14
ENDBRANCH   5  11
ENDBRANCH   1   8
BRANCH   2  15
ATOM     15  C   UNL     1       8.014   8.731  17.553  0.00  0.00    +0.000 C 
BRANCH  15  16
ATOM     16  C   UNL     1       8.750   9.435  18.682  0.00  0.00    +0.000 C 
BRANCH  16  17
ATOM     17  C   UNL     1       9.277  10.747  18.243  0.00  0.00    +0.000 A 
ATOM     18  C   UNL     1      10.544  11.283  18.165  0.00  0.00    +0.000 A 
ATOM     19  C   UNL     1      10.383  12.604  17.686  0.00  0.00    +0.000 A 
ATOM     20  C   UNL     1       9.033  12.783  17.495  0.00  0.00    +0.000 A 
ATOM     21  O   UNL     1       8.353  11.657  17.827  0.00  0.00    +0.000 OA
ENDBRANCH  16  17
ENDBRANCH  15  16
ENDBRANCH   2  15
TORSDOF 6
ENDMDL
MODEL 7
REMARK VINA RESULT:      -6.6      1.875      7.309
REMARK  Name = 
REMARK  7 active torsions:
REMARK  status: ('A' for Active; 'I' for Inactive)
REMARK    1  A    between atoms: C_1  and  O_2
REMARK    2  A    between atoms: O_2  and  C_3
REMARK    3  A    between atoms: C_3  and  C_5
REMARK    4  A    between atoms: C_8  and  N_9
REMARK    5  A    between atoms: C_10  and  C_12
REMARK    6  A    between atoms: C_12  and  C_13
REMARK    7  A    between atoms: C_13  and  C_14
REMARK                            x       y       z     vdW  Elec       q    Type
REMARK                         _______ _______ _______ _____ _____    ______ ____
ROOT
ATOM      1  N   UNL     1       5.797   4.046  16.315  0.00  0.00    +0.000 N 
ATOM      2  C   UNL     1       6.114   4.941  15.304  0.00  0.00    +0.000 C 
ATOM      3  O   UNL     1       5.577   6.024  15.092  0.00  0.00    +0.000 OA
ATOM      4  H   UNL     1       6.360   3.206  16.390  0.00  0.00    +0.000 HD
ENDROOT
BRANCH   1   8
ATOM      5  C   UNL     1       2.775   4.556  19.238  0.00  0.00    +0.000 A 
ATOM      6  C   UNL     1       2.504   3.829  18.079  0.00  0.00    +0.000 A 
ATOM      7  C   UNL     1       3.495   3.648  17.112  0.00  0.00    +0.000 A 
ATOM      8  C   UNL     1       4.770   4.195  17.273  0.00  0.00    +0.000 A 
ATOM      9  C   UNL     1       5.046   4.924  18.434  0.00  0.00    +0.000 A 
ATOM     10  C   UNL     1       4.055   5.106  19.413  0.00  0.00    +0.000 A 
BRANCH   5  11
ATOM     11  C   UNL     1       1.685   4.706  20.236  0.00  0.00    +0.000 C 
ATOM     12  O   UNL     1       1.454   5.738  20.849  0.00  0.00    +0.000 OA
BRANCH  11  14
ATOM     13  C   UNL     1       1.378   2.752  21.475  0.00  0.00    +0.000 C 
ATOM     14  O   UNL     1       0.999   3.544  20.351  0.00  0.00    +0.000 OA
ENDBRANCH  11  14
ENDBRANCH   5  11
ENDBRANCH   1   8
BRANCH   2  15
ATOM     15  C   UNL     1       7.243   4.486  14.409  0.00  0.00    +0.000 C 
BRANCH  15  16
ATOM     16  C   UNL     1       6.920   4.762  12.949  0.00  0.00    +0.000 C 
BRANCH  16  17
ATOM     17  C   UNL     1       6.516   3.523  12.245  0.00  0.00    +0.000 A 
ATOM     18  C   UNL     1       5.306   2.899  12.041  0.00  0.00    +0.000 A 
ATOM     19  C   UNL     1       5.588   1.724  11.305  0.00  0.00    +0.000 A 
ATOM     20  C   UNL     1       6.948   1.714  11.101  0.00  0.00    +0.000 A 
ATOM     21  O   UNL     1       7.521   2.808  11.665  0.00  0.00    +0.000 OA
ENDBRANCH  16  17
ENDBRANCH  15  16
ENDBRANCH   2  15
TORSDOF 6
ENDMDL
MODEL 8
REMARK VINA RESULT:      -6.5      3.584      6.526
REMARK  Name = 
REMARK  7 active torsions:
REMARK  status: ('A' for Active; 'I' for Inactive)
REMARK    1  A    between atoms: C_1  and  O_2
REMARK    2  A    between atoms: O_2  and  C_3
REMARK    3  A    between atoms: C_3  and  C_5
REMARK    4  A    between atoms: C_8  and  N_9
REMARK    5  A    between atoms: C_10  and  C_12
REMARK    6  A    between atoms: C_12  and  C_13
REMARK    7  A    between atoms: C_13  and  C_14
REMARK                            x       y       z     vdW  Elec       q    Type
REMARK                         _______ _______ _______ _____ _____    ______ ____
ROOT
ATOM      1  N   UNL     1       3.015   5.557  18.326  0.00  0.00    +0.000 N 
ATOM      2  C   UNL     1       2.339   4.546  17.661  0.00  0.00    +0.000 C 
ATOM      3  O   UNL     1       1.149   4.538  17.360  0.00  0.00    +0.000 OA
ATOM      4  H   UNL     1       4.012   5.439  18.468  0.00  0.00    +0.000 HD
ENDROOT
BRANCH   1   8
ATOM      5  C   UNL     1       1.333   9.192  19.702  0.00  0.00    +0.000 A 
ATOM      6  C   UNL     1       1.488   8.122  20.584  0.00  0.00    +0.000 A 
ATOM      7  C   UNL     1       2.048   6.921  20.142  0.00  0.00    +0.000 A 
ATOM      8  C   UNL     1       2.456   6.758  18.816  0.00  0.00    +0.000 A 
ATOM      9  C   UNL     1       2.303   7.830  17.931  0.00  0.00    +0.000 A 
ATOM     10  C   UNL     1       1.744   9.042  18.369  0.00  0.00    +0.000 A 
BRANCH   5  11
ATOM     11  C   UNL     1       0.741  10.447  20.231  0.00  0.00    +0.000 C 
ATOM     12  O   UNL     1       0.192  11.292  19.539  0.00  0.00    +0.000 OA
BRANCH  11  14
ATOM     13  C   UNL     1      -0.311  10.737  22.295  0.00  0.00    +0.000 C 
ATOM     14  O   UNL     1       0.898  10.504  21.576  0.00  0.00    +0.000 OA
ENDBRANCH  11  14
ENDBRANCH   5  11
ENDBRANCH   1   8
BRANCH   2  15
ATOM     15  C   UNL     1       3.203   3.364  17.291  0.00  0.00    +0.000 C 
BRANCH  15  16
ATOM     16  C   UNL     1       2.757   2.114  18.034  0.00  0.00    +0.000 C 
BRANCH  16  17
ATOM     17  C   UNL     1       2.540   2.393  19.472  0.00  0.00    +0.000 A 
ATOM     18  C   UNL     1       3.389   2.595  20.538  0.00  0.00    +0.000 A 
ATOM     19  C   UNL     1       2.561   2.789  21.669  0.00  0.00    +0.000 A 
ATOM     20  C   UNL     1       1.265   2.702  21.217  0.00  0.00    +0.000 A 
ATOM     21  O   UNL     1       1.243   2.466  19.880  0.00  0.00    +0.000 OA
ENDBRANCH  16  17
ENDBRANCH  15  16
ENDBRANCH   2  15
TORSDOF 6
ENDMDL
MODEL 9
REMARK VINA RESULT:      -6.5      1.168      1.291
REMARK  Name = 
REMARK  7 active torsions:
REMARK  status: ('A' for Active; 'I' for Inactive)
REMARK    1  A    between atoms: C_1  and  O_2
REMARK    2  A    between atoms: O_2  and  C_3
REMARK    3  A    between atoms: C_3  and  C_5
REMARK    4  A    between atoms: C_8  and  N_9
REMARK    5  A    between atoms: C_10  and  C_12
REMARK    6  A    between atoms: C_12  and  C_13
REMARK    7  A    between atoms: C_13  and  C_14
REMARK                            x       y       z     vdW  Elec       q    Type
REMARK                         _______ _______ _______ _____ _____    ______ ____
ROOT
ATOM      1  N   UNL     1       3.111   5.855  18.100  0.00  0.00    +0.000 N 
ATOM      2  C   UNL     1       3.330   5.823  19.469  0.00  0.00    +0.000 C 
ATOM      3  O   UNL     1       4.395   5.590  20.033  0.00  0.00    +0.000 OA
ATOM      4  H   UNL     1       2.183   6.104  17.780  0.00  0.00    +0.000 HD
ENDROOT
BRANCH   1   8
ATOM      5  C   UNL     1       5.953   4.967  15.087  0.00  0.00    +0.000 A 
ATOM      6  C   UNL     1       5.630   6.295  15.366  0.00  0.00    +0.000 A 
ATOM      7  C   UNL     1       4.700   6.599  16.363  0.00  0.00    +0.000 A 
ATOM      8  C   UNL     1       4.066   5.591  17.093  0.00  0.00    +0.000 A 
ATOM      9  C   UNL     1       4.388   4.259  16.815  0.00  0.00    +0.000 A 
ATOM     10  C   UNL     1       5.326   3.945  15.818  0.00  0.00    +0.000 A 
BRANCH   5  11
ATOM     11  C   UNL     1       6.956   4.705  14.024  0.00  0.00    +0.000 C 
ATOM     12  O   UNL     1       7.868   5.468  13.738  0.00  0.00    +0.000 OA
BRANCH  11  14
ATOM     13  C   UNL     1       5.943   3.594  12.238  0.00  0.00    +0.000 C 
ATOM     14  O   UNL     1       6.709   3.509  13.437  0.00  0.00    +0.000 OA
ENDBRANCH  11  14
ENDBRANCH   5  11
ENDBRANCH   1   8
BRANCH   2  15
ATOM     15  C   UNL     1       2.102   6.114  20.298  0.00  0.00    +0.000 C 
BRANCH  15  16
ATOM     16  C   UNL     1       1.592   4.851  20.972  0.00  0.00    +0.000 C 
BRANCH  16  17
ATOM     17  C   UNL     1       1.789   3.664  20.109  0.00  0.00    +0.000 A 
ATOM     18  C   UNL     1       2.582   2.542  20.205  0.00  0.00    +0.000 A 
ATOM     19  C   UNL     1       2.334   1.783  19.037  0.00  0.00    +0.000 A 
ATOM     20  C   UNL     1       1.400   2.486  18.313  0.00  0.00    +0.000 A 
ATOM     21  O   UNL     1       1.058   3.630  18.960  0.00  0.00    +0.000 OA
ENDBRANCH  16  17
ENDBRANCH  15  16
ENDBRANCH   2  15
TORSDOF 6
ENDMDL
