MODEL 1
REMARK VINA RESULT:      -7.3      0.000      0.000
REMARK  Name = 
REMARK  10 active torsions:
REMARK  status: ('A' for Active; 'I' for Inactive)
REMARK    1  A    between atoms: C_1  and  C_2
REMARK    2  A    between atoms: C_2  and  C_3
REMARK    3  A    between atoms: C_3  and  O_4
REMARK    4  A    between atoms: O_4  and  C_5
REMARK    5  A    between atoms: C_8  and  C_9
REMARK    6  A    between atoms: C_9  and  C_10
REMARK    7  A    between atoms: C_9  and  N_14
REMARK    8  A    between atoms: C_10  and  C_11
REMARK    9  A    between atoms: C_11  and  O_13
REMARK   10  A    between atoms: C_15  and  C_17
REMARK                            x       y       z     vdW  Elec       q    Type
REMARK                         _______ _______ _______ _____ _____    ______ ____
ROOT
ATOM      1  C   UNL     1       6.059   4.709  17.738  0.00  0.00    +0.000 C 
ENDROOT
BRANCH   1   5
ATOM      2  C   UNL     1       6.337   4.008  13.438  0.00  0.00    +0.000 A 
ATOM      3  C   UNL     1       5.241   3.597  14.182  0.00  0.00    +0.000 A 
ATOM      4  C   UNL     1       5.158   3.878  15.531  0.00  0.00    +0.000 A 
ATOM      5  C   UNL     1       6.164   4.547  16.218  0.00  0.00    +0.000 A 
ATOM      6  C   UNL     1       7.253   5.011  15.464  0.00  0.00    +0.000 A 
ATOM      7  C   UNL     1       7.340   4.737  14.081  0.00  0.00    +0.000 A 
BRANCH   2   8
ATOM      8  O   UNL     1       6.474   3.721  12.100  0.00  0.00    +0.000 OA
BRANCH   8   9
ATOM      9  C   UNL     1       5.782   2.525  11.702  0.00  0.00    +0.000 C 
BRANCH   9  11
ATOM     10  C   UNL     1       6.167   0.100  11.236  0.00  0.00    +0.000 C 
ATOM     11  C   UNL     1       6.736   1.507  11.107  0.00  0.00    +0.000 C 
ENDBRANCH   9  11
ENDBRANCH   8   9
ENDBRANCH   2   8
ENDBRANCH   1   5
BRANCH   1  12
ATOM     12  N   UNL     1       4.713   4.406  18.200  0.00  0.00    +0.000 N 
ATOM     13  C   UNL     1       4.394   3.520  19.210  0.00  0.00    +0.000 C 
ATOM     14  O   UNL     1       5.256   2.902  19.832  0.00  0.00    +0.000 OA
ATOM     15  H   UNL     1       3.940   4.743  17.637  0.00  0.00    +0.000 HD
BRANCH  13  16
ATOM     16  C   UNL     1       2.967   3.354  19.457  0.00  0.00    +0.000 A 
ATOM     17  C   UNL     1       2.264   3.710  20.594  0.00  0.00    +0.000 A 
ATOM     18  C   UNL     1       0.873   3.412  20.494  0.00  0.00    +0.000 A 
ATOM     19  C   UNL     1       0.558   2.828  19.289  0.00  0.00    +0.000 A 
ATOM     20  S   UNL     1       1.927   2.643  18.289  0.00  0.00    +0.000 S 
ENDBRANCH  13  16
ENDBRANCH   1  12
BRANCH   1  21
ATOM     21  C   UNL     1       6.535   6.102  18.202  0.00  0.00    +0.000 C 
BRANCH  21  22
ATOM     22  C   UNL     1       7.609   6.093  19.240  0.00  0.00    +0.000 C 
ATOM     23  O   UNL     1       7.709   5.258  20.130  0.00  0.00    +0.000 OA
BRANCH  22  24
ATOM     24  O   UNL     1       8.526   7.073  19.051  0.00  0.00    +0.000 OA
ATOM     25  H   UNL     1       9.442   6.755  18.920  0.00  0.00    +0.000 HD
ENDBRANCH  22  24
ENDBRANCH  21  22
ENDBRANCH   1  21
TORSDOF 9
ENDMDL
MODEL 2
REMARK VINA RESULT:      -7.2      4.738      8.050
REMARK  Name = 
REMARK  10 active torsions:
REMARK  status: ('A' for Active; 'I' for Inactive)
REMARK    1  A    between atoms: C_1  and  C_2
REMARK    2  A    between atoms: C_2  and  C_3
REMARK    3  A    between atoms: C_3  and  O_4
REMARK    4  A    between atoms: O_4  and  C_5
REMARK    5  A    between atoms: C_8  and  C_9
REMARK    6  A    between atoms: C_9  and  C_10
REMARK    7  A    between atoms: C_9  and  N_14
REMARK    8  A    between atoms: C_10  and  C_11
REMARK    9  A    between atoms: C_11  and  O_13
REMARK   10  A    between atoms: C_15  and  C_17
REMARK                            x       y       z     vdW  Elec       q    Type
REMARK                         _______ _______ _______ _____ _____    ______ ____
ROOT
ATOM      1  C   UNL     1       2.798   5.756  19.744  0.00  0.00    +0.000 C 
ENDROOT
BRANCH   1   5
ATOM      2  C   UNL     1       0.987   9.693  19.209  0.00  0.00    +0.000 A 
ATOM      3  C   UNL     1       0.963   9.030  20.427  0.00  0.00    +0.000 A 
ATOM      4  C   UNL     1       1.589   7.809  20.579  0.00  0.00    +0.000 A 
ATOM      5  C   UNL     1       2.238   7.167  19.532  0.00  0.00    +0.000 A 
ATOM      6  C   UNL     1       2.312   7.853  18.309  0.00  0.00    +0.000 A 
ATOM      7  C   UNL     1       1.684   9.108  18.148  0.00  0.00    +0.000 A 
BRANCH   2   8
ATOM      8  O   UNL     1       0.350  10.895  19.006  0.00  0.00    +0.000 OA
BRANCH   8   9
ATOM      9  C   UNL     1      -1.065  10.836  19.254  0.00  0.00    +0.000 C 
BRANCH   9  11
ATOM     10  C   UNL     1      -1.925   9.945  17.084  0.00  0.00    +0.000 C 
ATOM     11  C   UNL     1      -1.860  11.157  18.003  0.00  0.00    +0.000 C 
ENDBRANCH   9  11
ENDBRANCH   8   9
ENDBRANCH   2   8
ENDBRANCH   1   5
BRANCH   1  12
ATOM     12  N   UNL     1       3.612   5.346  18.610  0.00  0.00    +0.000 N 
ATOM     13  C   UNL     1       4.980   5.161  18.633  0.00  0.00    +0.000 C 
ATOM     14  O   UNL     1       5.643   5.323  19.655  0.00  0.00    +0.000 OA
ATOM     15  H   UNL     1       3.174   5.351  17.695  0.00  0.00    +0.000 HD
BRANCH  13  16
ATOM     16  C   UNL     1       5.574   4.793  17.354  0.00  0.00    +0.000 A 
ATOM     17  C   UNL     1       4.913   4.407  16.201  0.00  0.00    +0.000 A 
ATOM     18  C   UNL     1       5.807   4.125  15.126  0.00  0.00    +0.000 A 
ATOM     19  C   UNL     1       7.122   4.294  15.493  0.00  0.00    +0.000 A 
ATOM     20  S   UNL     1       7.275   4.789  17.118  0.00  0.00    +0.000 S 
ENDBRANCH  13  16
ENDBRANCH   1  12
BRANCH   1  21
ATOM     21  C   UNL     1       1.682   4.737  20.060  0.00  0.00    +0.000 C 
BRANCH  21  22
ATOM     22  C   UNL     1       1.689   3.505  19.216  0.00  0.00    +0.000 C 
ATOM     23  O   UNL     1       2.123   2.418  19.576  0.00  0.00    +0.000 OA
BRANCH  22  24
ATOM     24  O   UNL     1       1.085   3.690  18.017  0.00  0.00    +0.000 OA
ATOM     25  H   UNL     1       0.167   4.026  18.071  0.00  0.00    +0.000 HD
ENDBRANCH  22  24
ENDBRANCH  21  22
ENDBRANCH   1  21
TORSDOF 9
ENDMDL
MODEL 3
REMARK VINA RESULT:      -7.1      4.535      8.157
REMARK  Name = 
REMARK  10 active torsions:
REMARK  status: ('A' for Active; 'I' for Inactive)
REMARK    1  A    between atoms: C_1  and  C_2
REMARK    2  A    between atoms: C_2  and  C_3
REMARK    3  A    between atoms: C_3  and  O_4
REMARK    4  A    between atoms: O_4  and  C_5
REMARK    5  A    between atoms: C_8  and  C_9
REMARK    6  A    between atoms: C_9  and  C_10
REMARK    7  A    between atoms: C_9  and  N_14
REMARK    8  A    between atoms: C_10  and  C_11
REMARK    9  A    between atoms: C_11  and  O_13
REMARK   10  A    between atoms: C_15  and  C_17
REMARK                            x       y       z     vdW  Elec       q    Type
REMARK                         _______ _______ _______ _____ _____    ______ ____
ROOT
ATOM      1  C   UNL     1       3.015   5.114  19.477  0.00  0.00    +0.000 C 
ENDROOT
BRANCH   1   5
ATOM      2  C   UNL     1       1.355   9.150  19.607  0.00  0.00    +0.000 A 
ATOM      3  C   UNL     1       1.945   8.633  18.463  0.00  0.00    +0.000 A 
ATOM      4  C   UNL     1       2.415   7.334  18.437  0.00  0.00    +0.000 A 
ATOM      5  C   UNL     1       2.357   6.497  19.544  0.00  0.00    +0.000 A 
ATOM      6  C   UNL     1       1.717   6.994  20.690  0.00  0.00    +0.000 A 
ATOM      7  C   UNL     1       1.224   8.317  20.721  0.00  0.00    +0.000 A 
BRANCH   2   8
ATOM      8  O   UNL     1       0.904  10.447  19.687  0.00  0.00    +0.000 OA
BRANCH   8   9
ATOM      9  C   UNL     1       0.110  10.842  18.554  0.00  0.00    +0.000 C 
BRANCH   9  11
ATOM     10  C   UNL     1      -2.266  11.558  18.854  0.00  0.00    +0.000 C 
ATOM     11  C   UNL     1      -1.325  10.371  18.695  0.00  0.00    +0.000 C 
ENDBRANCH   9  11
ENDBRANCH   8   9
ENDBRANCH   2   8
ENDBRANCH   1   5
BRANCH   1  12
ATOM     12  N   UNL     1       3.820   4.980  18.272  0.00  0.00    +0.000 N 
ATOM     13  C   UNL     1       5.079   4.418  18.210  0.00  0.00    +0.000 C 
ATOM     14  O   UNL     1       5.637   3.956  19.203  0.00  0.00    +0.000 OA
ATOM     15  H   UNL     1       3.508   5.479  17.446  0.00  0.00    +0.000 HD
BRANCH  13  16
ATOM     16  C   UNL     1       5.700   4.443  16.892  0.00  0.00    +0.000 A 
ATOM     17  C   UNL     1       5.385   3.654  15.799  0.00  0.00    +0.000 A 
ATOM     18  C   UNL     1       6.190   3.950  14.659  0.00  0.00    +0.000 A 
ATOM     19  C   UNL     1       7.102   4.947  14.919  0.00  0.00    +0.000 A 
ATOM     20  S   UNL     1       6.986   5.520  16.521  0.00  0.00    +0.000 S 
ENDBRANCH  13  16
ENDBRANCH   1  12
BRANCH   1  21
ATOM     21  C   UNL     1       1.979   3.977  19.615  0.00  0.00    +0.000 C 
BRANCH  21  22
ATOM     22  C   UNL     1       1.542   3.356  18.329  0.00  0.00    +0.000 C 
ATOM     23  O   UNL     1       1.188   3.984  17.339  0.00  0.00    +0.000 OA
BRANCH  22  24
ATOM     24  O   UNL     1       1.652   2.005  18.338  0.00  0.00    +0.000 OA
ATOM     25  H   UNL     1       2.003   1.630  19.171  0.00  0.00    +0.000 HD
ENDBRANCH  22  24
ENDBRANCH  21  22
ENDBRANCH   1  21
TORSDOF 9
ENDMDL
MODEL 4
REMARK VINA RESULT:      -7.0      4.730      8.143
REMARK  Name = 
REMARK  10 active torsions:
REMARK  status: ('A' for Active; 'I' for Inactive)
REMARK    1  A    between atoms: C_1  and  C_2
REMARK    2  A    between atoms: C_2  and  C_3
REMARK    3  A    between atoms: C_3  and  O_4
REMARK    4  A    between atoms: O_4  and  C_5
REMARK    5  A    between atoms: C_8  and  C_9
REMARK    6  A    between atoms: C_9  and  C_10
REMARK    7  A    between atoms: C_9  and  N_14
REMARK    8  A    between atoms: C_10  and  C_11
REMARK    9  A    between atoms: C_11  and  O_13
REMARK   10  A    between atoms: C_15  and  C_17
REMARK                            x       y       z     vdW  Elec       q    Type
REMARK                         _______ _______ _______ _____ _____    ______ ____
ROOT
ATOM      1  C   UNL     1       2.913   5.639  19.963  0.00  0.00    +0.000 C 
ENDROOT
BRANCH   1   5
ATOM      2  C   UNL     1       0.910   9.500  19.588  0.00  0.00    +0.000 A 
ATOM      3  C   UNL     1       0.892   8.773  20.769  0.00  0.00    +0.000 A 
ATOM      4  C   UNL     1       1.578   7.579  20.873  0.00  0.00    +0.000 A 
ATOM      5  C   UNL     1       2.285   7.029  19.811  0.00  0.00    +0.000 A 
ATOM      6  C   UNL     1       2.350   7.782  18.628  0.00  0.00    +0.000 A 
ATOM      7  C   UNL     1       1.661   9.010  18.517  0.00  0.00    +0.000 A 
BRANCH   2   8
ATOM      8  O   UNL     1       0.215  10.677  19.431  0.00  0.00    +0.000 OA
BRANCH   8   9
ATOM      9  C   UNL     1      -0.692  10.656  18.316  0.00  0.00    +0.000 C 
BRANCH   9  11
ATOM     10  C   UNL     1      -3.005  11.163  17.515  0.00  0.00    +0.000 C 
ATOM     11  C   UNL     1      -2.030  11.270  18.681  0.00  0.00    +0.000 C 
ENDBRANCH   9  11
ENDBRANCH   8   9
ENDBRANCH   2   8
ENDBRANCH   1   5
BRANCH   1  12
ATOM     12  N   UNL     1       3.662   5.275  18.770  0.00  0.00    +0.000 N 
ATOM     13  C   UNL     1       5.035   5.155  18.694  0.00  0.00    +0.000 C 
ATOM     14  O   UNL     1       5.761   5.341  19.668  0.00  0.00    +0.000 OA
ATOM     15  H   UNL     1       3.160   5.266  17.889  0.00  0.00    +0.000 HD
BRANCH  13  16
ATOM     16  C   UNL     1       5.552   4.825  17.372  0.00  0.00    +0.000 A 
ATOM     17  C   UNL     1       4.823   4.538  16.231  0.00  0.00    +0.000 A 
ATOM     18  C   UNL     1       5.653   4.266  15.104  0.00  0.00    +0.000 A 
ATOM     19  C   UNL     1       6.990   4.342  15.419  0.00  0.00    +0.000 A 
ATOM     20  S   UNL     1       7.239   4.739  17.059  0.00  0.00    +0.000 S 
ENDBRANCH  13  16
ENDBRANCH   1  12
BRANCH   1  21
ATOM     21  C   UNL     1       1.863   4.571  20.340  0.00  0.00    +0.000 C 
BRANCH  21  22
ATOM     22  C   UNL     1       2.387   3.413  21.123  0.00  0.00    +0.000 C 
ATOM     23  O   UNL     1       1.956   3.056  22.211  0.00  0.00    +0.000 OA
BRANCH  22  24
ATOM     24  O   UNL     1       3.355   2.732  20.461  0.00  0.00    +0.000 OA
ATOM     25  H   UNL     1       3.810   2.049  20.995  0.00  0.00    +0.000 HD
ENDBRANCH  22  24
ENDBRANCH  21  22
ENDBRANCH   1  21
TORSDOF 9
ENDMDL
MODEL 5
REMARK VINA RESULT:      -6.9      4.600      8.084
REMARK  Name = 
REMARK  10 active torsions:
REMARK  status: ('A' for Active; 'I' for Inactive)
REMARK    1  A    between atoms: C_1  and  C_2
REMARK    2  A    between atoms: C_2  and  C_3
REMARK    3  A    between atoms: C_3  and  O_4
REMARK    4  A    between atoms: O_4  and  C_5
REMARK    5  A    between atoms: C_8  and  C_9
REMARK    6  A    between atoms: C_9  and  C_10
REMARK    7  A    between atoms: C_9  and  N_14
REMARK    8  A    between atoms: C_10  and  C_11
REMARK    9  A    between atoms: C_11  and  O_13
REMARK   10  A    between atoms: C_15  and  C_17
REMARK                            x       y       z     vdW  Elec       q    Type
REMARK                         _______ _______ _______ _____ _____    ______ ____
ROOT
ATOM      1  C   UNL     1       2.985   5.579  19.771  0.00  0.00    +0.000 C 
ENDROOT
BRANCH   1   5
ATOM      2  C   UNL     1       0.944   9.438  19.685  0.00  0.00    +0.000 A 
ATOM      3  C   UNL     1       0.986   8.652  20.827  0.00  0.00    +0.000 A 
ATOM      4  C   UNL     1       1.683   7.460  20.839  0.00  0.00    +0.000 A 
ATOM      5  C   UNL     1       2.342   6.970  19.719  0.00  0.00    +0.000 A 
ATOM      6  C   UNL     1       2.347   7.781  18.573  0.00  0.00    +0.000 A 
ATOM      7  C   UNL     1       1.646   9.007  18.557  0.00  0.00    +0.000 A 
BRANCH   2   8
ATOM      8  O   UNL     1       0.235  10.615  19.620  0.00  0.00    +0.000 OA
BRANCH   8   9
ATOM      9  C   UNL     1       0.791  11.562  18.692  0.00  0.00    +0.000 C 
BRANCH   9  11
ATOM     10  C   UNL     1       2.605  13.256  18.395  0.00  0.00    +0.000 C 
ATOM     11  C   UNL     1       1.688  12.563  19.394  0.00  0.00    +0.000 C 
ENDBRANCH   9  11
ENDBRANCH   8   9
ENDBRANCH   2   8
ENDBRANCH   1   5
BRANCH   1  12
ATOM     12  N   UNL     1       3.723   5.303  18.548  0.00  0.00    +0.000 N 
ATOM     13  C   UNL     1       4.949   4.672  18.480  0.00  0.00    +0.000 C 
ATOM     14  O   UNL     1       5.531   4.266  19.484  0.00  0.00    +0.000 OA
ATOM     15  H   UNL     1       3.398   5.746  17.697  0.00  0.00    +0.000 HD
BRANCH  13  16
ATOM     16  C   UNL     1       5.507   4.553  17.139  0.00  0.00    +0.000 A 
ATOM     17  C   UNL     1       4.829   4.256  15.970  0.00  0.00    +0.000 A 
ATOM     18  C   UNL     1       5.686   4.229  14.830  0.00  0.00    +0.000 A 
ATOM     19  C   UNL     1       6.994   4.496  15.165  0.00  0.00    +0.000 A 
ATOM     20  S   UNL     1       7.183   4.777  16.837  0.00  0.00    +0.000 S 
ENDBRANCH  13  16
ENDBRANCH   1  12
BRANCH   1  21
ATOM     21  C   UNL     1       1.949   4.479  20.089  0.00  0.00    +0.000 C 
BRANCH  21  22
ATOM     22  C   UNL     1       2.436   3.388  20.985  0.00  0.00    +0.000 C 
ATOM     23  O   UNL     1       2.096   3.243  22.153  0.00  0.00    +0.000 OA
BRANCH  22  24
ATOM     24  O   UNL     1       3.247   2.509  20.346  0.00  0.00    +0.000 OA
ATOM     25  H   UNL     1       2.777   1.815  19.840  0.00  0.00    +0.000 HD
ENDBRANCH  22  24
ENDBRANCH  21  22
ENDBRANCH   1  21
TORSDOF 9
ENDMDL
MODEL 6
REMARK VINA RESULT:      -6.9      4.751      8.348
REMARK  Name = 
REMARK  10 active torsions:
REMARK  status: ('A' for Active; 'I' for Inactive)
REMARK    1  A    between atoms: C_1  and  C_2
REMARK    2  A    between atoms: C_2  and  C_3
REMARK    3  A    between atoms: C_3  and  O_4
REMARK    4  A    between atoms: O_4  and  C_5
REMARK    5  A    between atoms: C_8  and  C_9
REMARK    6  A    between atoms: C_9  and  C_10
REMARK    7  A    between atoms: C_9  and  N_14
REMARK    8  A    between atoms: C_10  and  C_11
REMARK    9  A    between atoms: C_11  and  O_13
REMARK   10  A    between atoms: C_15  and  C_17
REMARK                            x       y       z     vdW  Elec       q    Type
REMARK                         _______ _______ _______ _____ _____    ______ ____
ROOT
ATOM      1  C   UNL     1       2.931   5.425  19.540  0.00  0.00    +0.000 C 
ENDROOT
BRANCH   1   5
ATOM      2  C   UNL     1       1.066   9.371  19.650  0.00  0.00    +0.000 A 
ATOM      3  C   UNL     1       1.088   8.535  20.756  0.00  0.00    +0.000 A 
ATOM      4  C   UNL     1       1.730   7.314  20.707  0.00  0.00    +0.000 A 
ATOM      5  C   UNL     1       2.351   6.844  19.556  0.00  0.00    +0.000 A 
ATOM      6  C   UNL     1       2.379   7.704  18.447  0.00  0.00    +0.000 A 
ATOM      7  C   UNL     1       1.734   8.959  18.494  0.00  0.00    +0.000 A 
BRANCH   2   8
ATOM      8  O   UNL     1       0.411  10.581  19.647  0.00  0.00    +0.000 OA
BRANCH   8   9
ATOM      9  C   UNL     1      -0.471  10.745  18.523  0.00  0.00    +0.000 C 
BRANCH   9  11
ATOM     10  C   UNL     1      -1.659  12.124  20.236  0.00  0.00    +0.000 C 
ATOM     11  C   UNL     1      -1.808  11.321  18.950  0.00  0.00    +0.000 C 
ENDBRANCH   9  11
ENDBRANCH   8   9
ENDBRANCH   2   8
ENDBRANCH   1   5
BRANCH   1  12
ATOM     12  N   UNL     1       3.732   5.207  18.345  0.00  0.00    +0.000 N 
ATOM     13  C   UNL     1       4.959   4.575  18.310  0.00  0.00    +0.000 C 
ATOM     14  O   UNL     1       5.487   4.117  19.321  0.00  0.00    +0.000 OA
ATOM     15  H   UNL     1       3.453   5.693  17.500  0.00  0.00    +0.000 HD
BRANCH  13  16
ATOM     16  C   UNL     1       5.587   4.521  16.995  0.00  0.00    +0.000 A 
ATOM     17  C   UNL     1       5.088   3.926  15.850  0.00  0.00    +0.000 A 
ATOM     18  C   UNL     1       5.962   4.070  14.732  0.00  0.00    +0.000 A 
ATOM     19  C   UNL     1       7.107   4.759  15.061  0.00  0.00    +0.000 A 
ATOM     20  S   UNL     1       7.124   5.229  16.700  0.00  0.00    +0.000 S 
ENDBRANCH  13  16
ENDBRANCH   1  12
BRANCH   1  21
ATOM     21  C   UNL     1       1.833   4.353  19.709  0.00  0.00    +0.000 C 
BRANCH  21  22
ATOM     22  C   UNL     1       1.417   3.665  18.450  0.00  0.00    +0.000 C 
ATOM     23  O   UNL     1       1.166   4.236  17.396  0.00  0.00    +0.000 OA
BRANCH  22  24
ATOM     24  O   UNL     1       1.422   2.315  18.567  0.00  0.00    +0.000 OA
ATOM     25  H   UNL     1       2.152   1.867  18.094  0.00  0.00    +0.000 HD
ENDBRANCH  22  24
ENDBRANCH  21  22
ENDBRANCH   1  21
TORSDOF 9
ENDMDL
MODEL 7
REMARK VINA RESULT:      -6.9      4.617      8.549
REMARK  Name = 
REMARK  10 active torsions:
REMARK  status: ('A' for Active; 'I' for Inactive)
REMARK    1  A    between atoms: C_1  and  C_2
REMARK    2  A    between atoms: C_2  and  C_3
REMARK    3  A    between atoms: C_3  and  O_4
REMARK    4  A    between atoms: O_4  and  C_5
REMARK    5  A    between atoms: C_8  and  C_9
REMARK    6  A    between atoms: C_9  and  C_10
REMARK    7  A    between atoms: C_9  and  N_14
REMARK    8  A    between atoms: C_10  and  C_11
REMARK    9  A    between atoms: C_11  and  O_13
REMARK   10  A    between atoms: C_15  and  C_17
REMARK                            x       y       z     vdW  Elec       q    Type
REMARK                         _______ _______ _______ _____ _____    ______ ____
ROOT
ATOM      1  C   UNL     1       3.298   5.454  19.757  0.00  0.00    +0.000 C 
ENDROOT
BRANCH   1   5
ATOM      2  C   UNL     1       1.127   9.240  19.617  0.00  0.00    +0.000 A 
ATOM      3  C   UNL     1       1.805   8.738  18.515  0.00  0.00    +0.000 A 
ATOM      4  C   UNL     1       2.439   7.513  18.575  0.00  0.00    +0.000 A 
ATOM      5  C   UNL     1       2.466   6.741  19.730  0.00  0.00    +0.000 A 
ATOM      6  C   UNL     1       1.741   7.217  20.834  0.00  0.00    +0.000 A 
ATOM      7  C   UNL     1       1.079   8.464  20.777  0.00  0.00    +0.000 A 
BRANCH   2   8
ATOM      8  O   UNL     1       0.510  10.469  19.610  0.00  0.00    +0.000 OA
BRANCH   8   9
ATOM      9  C   UNL     1       0.595  11.153  20.872  0.00  0.00    +0.000 C 
BRANCH   9  11
ATOM     10  C   UNL     1      -0.951  10.945  22.825  0.00  0.00    +0.000 C 
ATOM     11  C   UNL     1      -0.782  11.489  21.412  0.00  0.00    +0.000 C 
ENDBRANCH   9  11
ENDBRANCH   8   9
ENDBRANCH   2   8
ENDBRANCH   1   5
BRANCH   1  12
ATOM     12  N   UNL     1       3.968   5.243  18.482  0.00  0.00    +0.000 N 
ATOM     13  C   UNL     1       5.178   4.600  18.311  0.00  0.00    +0.000 C 
ATOM     14  O   UNL     1       5.804   4.127  19.257  0.00  0.00    +0.000 OA
ATOM     15  H   UNL     1       3.606   5.742  17.677  0.00  0.00    +0.000 HD
BRANCH  13  16
ATOM     16  C   UNL     1       5.663   4.556  16.938  0.00  0.00    +0.000 A 
ATOM     17  C   UNL     1       5.045   3.971  15.847  0.00  0.00    +0.000 A 
ATOM     18  C   UNL     1       5.798   4.123  14.644  0.00  0.00    +0.000 A 
ATOM     19  C   UNL     1       6.971   4.809  14.856  0.00  0.00    +0.000 A 
ATOM     20  S   UNL     1       7.161   5.267  16.488  0.00  0.00    +0.000 S 
ENDBRANCH  13  16
ENDBRANCH   1  12
BRANCH   1  21
ATOM     21  C   UNL     1       2.455   4.233  20.183  0.00  0.00    +0.000 C 
BRANCH  21  22
ATOM     22  C   UNL     1       1.376   3.843  19.227  0.00  0.00    +0.000 C 
ATOM     23  O   UNL     1       1.437   3.985  18.013  0.00  0.00    +0.000 OA
BRANCH  22  24
ATOM     24  O   UNL     1       0.333   3.230  19.840  0.00  0.00    +0.000 OA
ATOM     25  H   UNL     1      -0.492   3.755  19.863  0.00  0.00    +0.000 HD
ENDBRANCH  22  24
ENDBRANCH  21  22
ENDBRANCH   1  21
TORSDOF 9
ENDMDL
MODEL 8
REMARK VINA RESULT:      -6.9      4.607      8.077
REMARK  Name = 
REMARK  10 active torsions:
REMARK  status: ('A' for Active; 'I' for Inactive)
REMARK    1  A    between atoms: C_1  and  C_2
REMARK    2  A    between atoms: C_2  and  C_3
REMARK    3  A    between atoms: C_3  and  O_4
REMARK    4  A    between atoms: O_4  and  C_5
REMARK    5  A    between atoms: C_8  and  C_9
REMARK    6  A    between atoms: C_9  and  C_10
REMARK    7  A    between atoms: C_9  and  N_14
REMARK    8  A    between atoms: C_10  and  C_11
REMARK    9  A    between atoms: C_11  and  O_13
REMARK   10  A    between atoms: C_15  and  C_17
REMARK                            x       y       z     vdW  Elec       q    Type
REMARK                         _______ _______ _______ _____ _____    ______ ____
ROOT
ATOM      1  C   UNL     1       2.852   5.445  19.620  0.00  0.00    +0.000 C 
ENDROOT
BRANCH   1   5
ATOM      2  C   UNL     1       1.012   9.399  19.825  0.00  0.00    +0.000 A 
ATOM      3  C   UNL     1       1.025   8.535  20.910  0.00  0.00    +0.000 A 
ATOM      4  C   UNL     1       1.660   7.311  20.831  0.00  0.00    +0.000 A 
ATOM      5  C   UNL     1       2.281   6.866  19.671  0.00  0.00    +0.000 A 
ATOM      6  C   UNL     1       2.316   7.754  18.584  0.00  0.00    +0.000 A 
ATOM      7  C   UNL     1       1.679   9.012  18.660  0.00  0.00    +0.000 A 
BRANCH   2   8
ATOM      8  O   UNL     1       0.364  10.612  19.851  0.00  0.00    +0.000 OA
BRANCH   8   9
ATOM      9  C   UNL     1      -0.113  11.029  18.560  0.00  0.00    +0.000 C 
BRANCH   9  11
ATOM     10  C   UNL     1      -1.855   9.891  17.175  0.00  0.00    +0.000 C 
ATOM     11  C   UNL     1      -1.596  10.754  18.403  0.00  0.00    +0.000 C 
ENDBRANCH   9  11
ENDBRANCH   8   9
ENDBRANCH   2   8
ENDBRANCH   1   5
BRANCH   1  12
ATOM     12  N   UNL     1       3.754   5.289  18.489  0.00  0.00    +0.000 N 
ATOM     13  C   UNL     1       5.133   5.274  18.563  0.00  0.00    +0.000 C 
ATOM     14  O   UNL     1       5.730   5.383  19.631  0.00  0.00    +0.000 OA
ATOM     15  H   UNL     1       3.354   5.359  17.560  0.00  0.00    +0.000 HD
BRANCH  13  16
ATOM     16  C   UNL     1       5.817   5.151  17.281  0.00  0.00    +0.000 A 
ATOM     17  C   UNL     1       6.986   4.461  17.016  0.00  0.00    +0.000 A 
ATOM     18  C   UNL     1       7.372   4.543  15.645  0.00  0.00    +0.000 A 
ATOM     19  C   UNL     1       6.491   5.301  14.908  0.00  0.00    +0.000 A 
ATOM     20  S   UNL     1       5.213   5.907  15.861  0.00  0.00    +0.000 S 
ENDBRANCH  13  16
ENDBRANCH   1  12
BRANCH   1  21
ATOM     21  C   UNL     1       1.737   4.377  19.628  0.00  0.00    +0.000 C 
BRANCH  21  22
ATOM     22  C   UNL     1       1.658   3.531  18.399  0.00  0.00    +0.000 C 
ATOM     23  O   UNL     1       2.008   2.359  18.338  0.00  0.00    +0.000 OA
BRANCH  22  24
ATOM     24  O   UNL     1       1.077   4.176  17.358  0.00  0.00    +0.000 OA
ATOM     25  H   UNL     1       0.118   4.338  17.463  0.00  0.00    +0.000 HD
ENDBRANCH  22  24
ENDBRANCH  21  22
ENDBRANCH   1  21
TORSDOF 9
ENDMDL
MODEL 9
REMARK VINA RESULT:      -6.9      4.702      8.624
REMARK  Name = 
REMARK  10 active torsions:
REMARK  status: ('A' for Active; 'I' for Inactive)
REMARK    1  A    between atoms: C_1  and  C_2
REMARK    2  A    between atoms: C_2  and  C_3
REMARK    3  A    between atoms: C_3  and  O_4
REMARK    4  A    between atoms: O_4  and  C_5
REMARK    5  A    between atoms: C_8  and  C_9
REMARK    6  A    between atoms: C_9  and  C_10
REMARK    7  A    between atoms: C_9  and  N_14
REMARK    8  A    between atoms: C_10  and  C_11
REMARK    9  A    between atoms: C_11  and  O_13
REMARK   10  A    between atoms: C_15  and  C_17
REMARK                            x       y       z     vdW  Elec       q    Type
REMARK                         _______ _______ _______ _____ _____    ______ ____
ROOT
ATOM      1  C   UNL     1       2.815   5.464  19.620  0.00  0.00    +0.000 C 
ENDROOT
BRANCH   1   5
ATOM      2  C   UNL     1       1.050   9.457  19.699  0.00  0.00    +0.000 A 
ATOM      3  C   UNL     1       1.035   8.623  20.807  0.00  0.00    +0.000 A 
ATOM      4  C   UNL     1       1.647   7.386  20.768  0.00  0.00    +0.000 A 
ATOM      5  C   UNL     1       2.271   6.898  19.627  0.00  0.00    +0.000 A 
ATOM      6  C   UNL     1       2.335   7.754  18.516  0.00  0.00    +0.000 A 
ATOM      7  C   UNL     1       1.722   9.026  18.552  0.00  0.00    +0.000 A 
BRANCH   2   8
ATOM      8  O   UNL     1       0.426  10.683  19.685  0.00  0.00    +0.000 OA
BRANCH   8   9
ATOM      9  C   UNL     1      -0.639  10.788  20.645  0.00  0.00    +0.000 C 
BRANCH   9  11
ATOM     10  C   UNL     1      -1.199  11.633  22.930  0.00  0.00    +0.000 C 
ATOM     11  C   UNL     1      -0.337  11.844  21.692  0.00  0.00    +0.000 C 
ENDBRANCH   9  11
ENDBRANCH   8   9
ENDBRANCH   2   8
ENDBRANCH   1   5
BRANCH   1  12
ATOM     12  N   UNL     1       3.670   5.240  18.464  0.00  0.00    +0.000 N 
ATOM     13  C   UNL     1       4.776   4.415  18.437  0.00  0.00    +0.000 C 
ATOM     14  O   UNL     1       5.134   3.770  19.420  0.00  0.00    +0.000 OA
ATOM     15  H   UNL     1       3.546   5.854  17.667  0.00  0.00    +0.000 HD
BRANCH  13  16
ATOM     16  C   UNL     1       5.497   4.394  17.170  0.00  0.00    +0.000 A 
ATOM     17  C   UNL     1       5.008   4.021  15.931  0.00  0.00    +0.000 A 
ATOM     18  C   UNL     1       5.987   4.129  14.899  0.00  0.00    +0.000 A 
ATOM     19  C   UNL     1       7.197   4.570  15.384  0.00  0.00    +0.000 A 
ATOM     20  S   UNL     1       7.150   4.851  17.066  0.00  0.00    +0.000 S 
ENDBRANCH  13  16
ENDBRANCH   1  12
BRANCH   1  21
ATOM     21  C   UNL     1       1.682   4.420  19.720  0.00  0.00    +0.000 C 
BRANCH  21  22
ATOM     22  C   UNL     1       1.662   3.624  20.983  0.00  0.00    +0.000 C 
ATOM     23  O   UNL     1       2.439   3.781  21.917  0.00  0.00    +0.000 OA
BRANCH  22  24
ATOM     24  O   UNL     1       0.630   2.746  21.031  0.00  0.00    +0.000 OA
ATOM     25  H   UNL     1       0.761   1.933  20.504  0.00  0.00    +0.000 HD
ENDBRANCH  22  24
ENDBRANCH  21  22
ENDBRANCH   1  21
TORSDOF 9
ENDMDL
