MODEL 1
REMARK VINA RESULT:      -8.3      0.000      0.000
REMARK  Name = 
REMARK  4 active torsions:
REMARK  status: ('A' for Active; 'I' for Inactive)
REMARK    1  A    between atoms: C_1  and  S_2
REMARK    2  A    between atoms: S_2  and  C_5
REMARK    3  A    between atoms: C_8  and  C_9
REMARK    4  A    between atoms: C_10  and  C_11
REMARK                            x       y       z     vdW  Elec       q    Type
REMARK                         _______ _______ _______ _____ _____    ______ ____
ROOT
ATOM      1  C   UNL     1       4.015   5.988  17.509  0.00  0.00    +0.000 C 
ATOM      2  C   UNL     1       4.119   4.681  17.821  0.00  0.00    +0.000 C 
ATOM      3  C   UNL     1       5.143   3.994  16.956  0.00  0.00    +0.000 C 
ATOM      4  C   UNL     1       5.440   5.022  15.876  0.00  0.00    +0.000 C 
ATOM      5  C   UNL     1       5.227   4.642  14.426  0.00  0.00    +0.000 C 
ATOM      6  C   UNL     1       6.615   4.915  14.934  0.00  0.00    +0.000 C 
ATOM      7  C   UNL     1       4.928   6.360  16.371  0.00  0.00    +0.000 C 
ENDROOT
BRANCH   2   8
ATOM      8  C   UNL     1       3.343   3.964  18.825  0.00  0.00    +0.000 A 
ATOM      9  C   UNL     1       1.947   3.897  18.725  0.00  0.00    +0.000 A 
ATOM     10  C   UNL     1       1.195   3.307  19.745  0.00  0.00    +0.000 A 
ATOM     11  C   UNL     1       1.840   2.780  20.862  0.00  0.00    +0.000 A 
ATOM     12 CL   UNL     1       0.913   2.094  22.140  0.00  0.00    +0.000 Cl
ATOM     13  C   UNL     1       3.229   2.819  20.959  0.00  0.00    +0.000 A 
ATOM     14  C   UNL     1       3.981   3.411  19.941  0.00  0.00    +0.000 A 
ENDBRANCH   2   8
BRANCH   1  18
ATOM     15  C   UNL     1       1.460   8.891  19.243  0.00  0.00    +0.000 A 
ATOM     16  C   UNL     1       1.841   9.019  17.904  0.00  0.00    +0.000 A 
ATOM     17  C   UNL     1       2.678   8.058  17.338  0.00  0.00    +0.000 A 
ATOM     18  C   UNL     1       3.140   6.984  18.108  0.00  0.00    +0.000 A 
ATOM     19  C   UNL     1       2.768   6.877  19.453  0.00  0.00    +0.000 A 
ATOM     20  C   UNL     1       1.930   7.834  20.026  0.00  0.00    +0.000 A 
BRANCH  15  22
ATOM     21  C   UNL     1      -0.044   9.355  21.522  0.00  0.00    +0.000 C 
ATOM     22  S   UNL     1       0.361  10.084  19.958  0.00  0.00    +0.000 S 
ATOM     23  O   UNL     1      -0.843  10.117  19.146  0.00  0.00    +0.000 OA
ATOM     24  O   UNL     1       1.122  11.294  20.205  0.00  0.00    +0.000 OA
ENDBRANCH  15  22
ENDBRANCH   1  18
TORSDOF 3
ENDMDL
MODEL 2
REMARK VINA RESULT:      -8.3      0.728      1.380
REMARK  Name = 
REMARK  4 active torsions:
REMARK  status: ('A' for Active; 'I' for Inactive)
REMARK    1  A    between atoms: C_1  and  S_2
REMARK    2  A    between atoms: S_2  and  C_5
REMARK    3  A    between atoms: C_8  and  C_9
REMARK    4  A    between atoms: C_10  and  C_11
REMARK                            x       y       z     vdW  Elec       q    Type
REMARK                         _______ _______ _______ _____ _____    ______ ____
ROOT
ATOM      1  C   UNL     1       3.975   6.020  17.549  0.00  0.00    +0.000 C 
ATOM      2  C   UNL     1       4.085   4.715  17.863  0.00  0.00    +0.000 C 
ATOM      3  C   UNL     1       5.117   4.032  17.004  0.00  0.00    +0.000 C 
ATOM      4  C   UNL     1       5.413   5.060  15.924  0.00  0.00    +0.000 C 
ATOM      5  C   UNL     1       5.208   4.677  14.474  0.00  0.00    +0.000 C 
ATOM      6  C   UNL     1       6.593   4.959  14.987  0.00  0.00    +0.000 C 
ATOM      7  C   UNL     1       4.890   6.396  16.415  0.00  0.00    +0.000 C 
ENDROOT
BRANCH   2   8
ATOM      8  C   UNL     1       3.309   3.994  18.866  0.00  0.00    +0.000 A 
ATOM      9  C   UNL     1       1.916   3.904  18.750  0.00  0.00    +0.000 A 
ATOM     10  C   UNL     1       1.161   3.312  19.767  0.00  0.00    +0.000 A 
ATOM     11  C   UNL     1       1.802   2.805  20.896  0.00  0.00    +0.000 A 
ATOM     12 CL   UNL     1       0.872   2.116  22.170  0.00  0.00    +0.000 Cl
ATOM     13  C   UNL     1       3.189   2.866  21.008  0.00  0.00    +0.000 A 
ATOM     14  C   UNL     1       3.943   3.461  19.993  0.00  0.00    +0.000 A 
ENDBRANCH   2   8
BRANCH   1  18
ATOM     15  C   UNL     1       1.405   8.907  19.288  0.00  0.00    +0.000 A 
ATOM     16  C   UNL     1       1.880   7.849  20.067  0.00  0.00    +0.000 A 
ATOM     17  C   UNL     1       2.729   6.905  19.491  0.00  0.00    +0.000 A 
ATOM     18  C   UNL     1       3.091   7.011  18.142  0.00  0.00    +0.000 A 
ATOM     19  C   UNL     1       2.592   8.065  17.366  0.00  0.00    +0.000 A 
ATOM     20  C   UNL     1       1.743   9.014  17.937  0.00  0.00    +0.000 A 
BRANCH  15  22
ATOM     21  C   UNL     1      -0.852  10.424  18.766  0.00  0.00    +0.000 C 
ATOM     22  S   UNL     1       0.361  10.136  20.024  0.00  0.00    +0.000 S 
ATOM     23  O   UNL     1       1.148  11.347  20.183  0.00  0.00    +0.000 OA
ATOM     24  O   UNL     1      -0.302   9.528  21.163  0.00  0.00    +0.000 OA
ENDBRANCH  15  22
ENDBRANCH   1  18
TORSDOF 3
ENDMDL
MODEL 3
REMARK VINA RESULT:      -7.7      4.350      8.431
REMARK  Name = 
REMARK  4 active torsions:
REMARK  status: ('A' for Active; 'I' for Inactive)
REMARK    1  A    between atoms: C_1  and  S_2
REMARK    2  A    between atoms: S_2  and  C_5
REMARK    3  A    between atoms: C_8  and  C_9
REMARK    4  A    between atoms: C_10  and  C_11
REMARK                            x       y       z     vdW  Elec       q    Type
REMARK                         _______ _______ _______ _____ _____    ______ ____
ROOT
ATOM      1  C   UNL     1      -0.241  10.694  20.465  0.00  0.00    +0.000 C 
ATOM      2  C   UNL     1      -1.287  11.271  19.842  0.00  0.00    +0.000 C 
ATOM      3  C   UNL     1      -1.912  12.339  20.700  0.00  0.00    +0.000 C 
ATOM      4  C   UNL     1      -1.262  12.126  22.058  0.00  0.00    +0.000 C 
ATOM      5  C   UNL     1      -2.145  11.858  23.258  0.00  0.00    +0.000 C 
ATOM      6  C   UNL     1      -1.347  13.129  23.183  0.00  0.00    +0.000 C 
ATOM      7  C   UNL     1      -0.032  11.266  21.841  0.00  0.00    +0.000 C 
ENDROOT
BRANCH   2   8
ATOM      8  C   UNL     1      -1.814  10.924  18.527  0.00  0.00    +0.000 A 
ATOM      9  C   UNL     1      -1.702  11.825  17.460  0.00  0.00    +0.000 A 
ATOM     10  C   UNL     1      -2.305  11.541  16.232  0.00  0.00    +0.000 A 
ATOM     11  C   UNL     1      -3.015  10.353  16.070  0.00  0.00    +0.000 A 
ATOM     12 CL   UNL     1      -3.796  10.021  14.572  0.00  0.00    +0.000 Cl
ATOM     13  C   UNL     1      -3.110   9.439  17.116  0.00  0.00    +0.000 A 
ATOM     14  C   UNL     1      -2.509   9.724  18.345  0.00  0.00    +0.000 A 
ENDBRANCH   2   8
BRANCH   1  18
ATOM     15  C   UNL     1       2.257   7.588  19.025  0.00  0.00    +0.000 A 
ATOM     16  C   UNL     1       1.930   8.655  18.185  0.00  0.00    +0.000 A 
ATOM     17  C   UNL     1       1.112   9.677  18.665  0.00  0.00    +0.000 A 
ATOM     18  C   UNL     1       0.614   9.625  19.973  0.00  0.00    +0.000 A 
ATOM     19  C   UNL     1       0.932   8.540  20.799  0.00  0.00    +0.000 A 
ATOM     20  C   UNL     1       1.751   7.515  20.325  0.00  0.00    +0.000 A 
BRANCH  15  22
ATOM     21  C   UNL     1       2.197   5.058  17.899  0.00  0.00    +0.000 C 
ATOM     22  S   UNL     1       3.333   6.307  18.437  0.00  0.00    +0.000 S 
ATOM     23  O   UNL     1       4.071   5.792  19.577  0.00  0.00    +0.000 OA
ATOM     24  O   UNL     1       4.031   6.817  17.271  0.00  0.00    +0.000 OA
ENDBRANCH  15  22
ENDBRANCH   1  18
TORSDOF 3
ENDMDL
MODEL 4
REMARK VINA RESULT:      -7.7      4.340      8.496
REMARK  Name = 
REMARK  4 active torsions:
REMARK  status: ('A' for Active; 'I' for Inactive)
REMARK    1  A    between atoms: C_1  and  S_2
REMARK    2  A    between atoms: S_2  and  C_5
REMARK    3  A    between atoms: C_8  and  C_9
REMARK    4  A    between atoms: C_10  and  C_11
REMARK                            x       y       z     vdW  Elec       q    Type
REMARK                         _______ _______ _______ _____ _____    ______ ____
ROOT
ATOM      1  C   UNL     1      -0.246  10.704  20.480  0.00  0.00    +0.000 C 
ATOM      2  C   UNL     1      -1.284  11.288  19.850  0.00  0.00    +0.000 C 
ATOM      3  C   UNL     1      -1.899  12.369  20.697  0.00  0.00    +0.000 C 
ATOM      4  C   UNL     1      -1.255  12.160  22.059  0.00  0.00    +0.000 C 
ATOM      5  C   UNL     1      -2.144  11.912  23.258  0.00  0.00    +0.000 C 
ATOM      6  C   UNL     1      -1.332  13.174  23.175  0.00  0.00    +0.000 C 
ATOM      7  C   UNL     1      -0.034  11.285  21.852  0.00  0.00    +0.000 C 
ENDROOT
BRANCH   2   8
ATOM      8  C   UNL     1      -1.812  10.935  18.536  0.00  0.00    +0.000 A 
ATOM      9  C   UNL     1      -1.700  11.832  17.466  0.00  0.00    +0.000 A 
ATOM     10  C   UNL     1      -2.304  11.543  16.239  0.00  0.00    +0.000 A 
ATOM     11  C   UNL     1      -3.014  10.355  16.082  0.00  0.00    +0.000 A 
ATOM     12 CL   UNL     1      -3.796  10.017  14.586  0.00  0.00    +0.000 Cl
ATOM     13  C   UNL     1      -3.109   9.445  17.132  0.00  0.00    +0.000 A 
ATOM     14  C   UNL     1      -2.508   9.735  18.360  0.00  0.00    +0.000 A 
ENDBRANCH   2   8
BRANCH   1  18
ATOM     15  C   UNL     1       2.209   7.543  19.087  0.00  0.00    +0.000 A 
ATOM     16  C   UNL     1       1.698   7.498  20.387  0.00  0.00    +0.000 A 
ATOM     17  C   UNL     1       0.887   8.538  20.838  0.00  0.00    +0.000 A 
ATOM     18  C   UNL     1       0.598   9.622  20.000  0.00  0.00    +0.000 A 
ATOM     19  C   UNL     1       1.133   9.666  18.706  0.00  0.00    +0.000 A 
ATOM     20  C   UNL     1       1.944   8.628  18.248  0.00  0.00    +0.000 A 
BRANCH  15  22
ATOM     21  C   UNL     1       4.249   6.992  17.296  0.00  0.00    +0.000 C 
ATOM     22  S   UNL     1       3.204   6.203  18.490  0.00  0.00    +0.000 S 
ATOM     23  O   UNL     1       2.329   5.280  17.790  0.00  0.00    +0.000 OA
ATOM     24  O   UNL     1       4.036   5.747  19.589  0.00  0.00    +0.000 OA
ENDBRANCH  15  22
ENDBRANCH   1  18
TORSDOF 3
ENDMDL
MODEL 5
REMARK VINA RESULT:      -7.7      0.990      1.424
REMARK  Name = 
REMARK  4 active torsions:
REMARK  status: ('A' for Active; 'I' for Inactive)
REMARK    1  A    between atoms: C_1  and  S_2
REMARK    2  A    between atoms: S_2  and  C_5
REMARK    3  A    between atoms: C_8  and  C_9
REMARK    4  A    between atoms: C_10  and  C_11
REMARK                            x       y       z     vdW  Elec       q    Type
REMARK                         _______ _______ _______ _____ _____    ______ ____
ROOT
ATOM      1  C   UNL     1       3.751   6.359  17.766  0.00  0.00    +0.000 C 
ATOM      2  C   UNL     1       3.841   5.076  18.164  0.00  0.00    +0.000 C 
ATOM      3  C   UNL     1       4.893   4.335  17.381  0.00  0.00    +0.000 C 
ATOM      4  C   UNL     1       5.230   5.293  16.249  0.00  0.00    +0.000 C 
ATOM      5  C   UNL     1       5.067   4.822  14.820  0.00  0.00    +0.000 C 
ATOM      6  C   UNL     1       6.437   5.127  15.357  0.00  0.00    +0.000 C 
ATOM      7  C   UNL     1       4.703   6.659  16.640  0.00  0.00    +0.000 C 
ENDROOT
BRANCH   2   8
ATOM      8  C   UNL     1       3.029   4.423  19.184  0.00  0.00    +0.000 A 
ATOM      9  C   UNL     1       3.446   4.415  20.521  0.00  0.00    +0.000 A 
ATOM     10  C   UNL     1       2.727   3.694  21.480  0.00  0.00    +0.000 A 
ATOM     11  C   UNL     1       1.588   2.987  21.100  0.00  0.00    +0.000 A 
ATOM     12 CL   UNL     1       0.727   2.063  22.269  0.00  0.00    +0.000 Cl
ATOM     13  C   UNL     1       1.150   3.010  19.778  0.00  0.00    +0.000 A 
ATOM     14  C   UNL     1       1.871   3.728  18.820  0.00  0.00    +0.000 A 
ENDBRANCH   2   8
BRANCH   1  18
ATOM     15  C   UNL     1       1.142   9.366  19.222  0.00  0.00    +0.000 A 
ATOM     16  C   UNL     1       1.638   9.455  17.919  0.00  0.00    +0.000 A 
ATOM     17  C   UNL     1       2.491   8.461  17.443  0.00  0.00    +0.000 A 
ATOM     18  C   UNL     1       2.857   7.391  18.270  0.00  0.00    +0.000 A 
ATOM     19  C   UNL     1       2.370   7.323  19.581  0.00  0.00    +0.000 A 
ATOM     20  C   UNL     1       1.514   8.314  20.062  0.00  0.00    +0.000 A 
BRANCH  15  22
ATOM     21  C   UNL     1      -1.341  10.473  18.692  0.00  0.00    +0.000 C 
ATOM     22  S   UNL     1       0.020  10.602  19.819  0.00  0.00    +0.000 S 
ATOM     23  O   UNL     1       0.649  11.898  19.627  0.00  0.00    +0.000 OA
ATOM     24  O   UNL     1      -0.437  10.188  21.132  0.00  0.00    +0.000 OA
ENDBRANCH  15  22
ENDBRANCH   1  18
TORSDOF 3
ENDMDL
MODEL 6
REMARK VINA RESULT:      -7.7      2.737      4.451
REMARK  Name = 
REMARK  4 active torsions:
REMARK  status: ('A' for Active; 'I' for Inactive)
REMARK    1  A    between atoms: C_1  and  S_2
REMARK    2  A    between atoms: S_2  and  C_5
REMARK    3  A    between atoms: C_8  and  C_9
REMARK    4  A    between atoms: C_10  and  C_11
REMARK                            x       y       z     vdW  Elec       q    Type
REMARK                         _______ _______ _______ _____ _____    ______ ____
ROOT
ATOM      1  C   UNL     1       2.452   5.345  18.603  0.00  0.00    +0.000 C 
ATOM      2  C   UNL     1       3.647   4.867  18.205  0.00  0.00    +0.000 C 
ATOM      3  C   UNL     1       3.595   3.376  17.998  0.00  0.00    +0.000 C 
ATOM      4  C   UNL     1       2.259   2.981  18.606  0.00  0.00    +0.000 C 
ATOM      5  C   UNL     1       2.238   1.957  19.721  0.00  0.00    +0.000 C 
ATOM      6  C   UNL     1       1.619   1.631  18.391  0.00  0.00    +0.000 C 
ATOM      7  C   UNL     1       1.436   4.246  18.751  0.00  0.00    +0.000 C 
ENDROOT
BRANCH   2   8
ATOM      8  C   UNL     1       4.873   5.634  18.021  0.00  0.00    +0.000 A 
ATOM      9  C   UNL     1       5.965   5.440  18.877  0.00  0.00    +0.000 A 
ATOM     10  C   UNL     1       7.096   6.253  18.772  0.00  0.00    +0.000 A 
ATOM     11  C   UNL     1       7.138   7.257  17.806  0.00  0.00    +0.000 A 
ATOM     12 CL   UNL     1       8.511   8.289  17.703  0.00  0.00    +0.000 Cl
ATOM     13  C   UNL     1       6.068   7.442  16.933  0.00  0.00    +0.000 A 
ATOM     14  C   UNL     1       4.935   6.631  17.041  0.00  0.00    +0.000 A 
ENDBRANCH   2   8
BRANCH   1  18
ATOM     15  C   UNL     1       1.415   9.358  19.490  0.00  0.00    +0.000 A 
ATOM     16  C   UNL     1       1.653   8.984  18.165  0.00  0.00    +0.000 A 
ATOM     17  C   UNL     1       1.989   7.662  17.878  0.00  0.00    +0.000 A 
ATOM     18  C   UNL     1       2.098   6.722  18.911  0.00  0.00    +0.000 A 
ATOM     19  C   UNL     1       1.878   7.114  20.238  0.00  0.00    +0.000 A 
ATOM     20  C   UNL     1       1.540   8.435  20.531  0.00  0.00    +0.000 A 
BRANCH  15  22
ATOM     21  C   UNL     1      -0.805  11.011  19.576  0.00  0.00    +0.000 C 
ATOM     22  S   UNL     1       0.944  11.027  19.858  0.00  0.00    +0.000 S 
ATOM     23  O   UNL     1       1.558  11.889  18.863  0.00  0.00    +0.000 OA
ATOM     24  O   UNL     1       1.173  11.249  21.274  0.00  0.00    +0.000 OA
ENDBRANCH  15  22
ENDBRANCH   1  18
TORSDOF 3
ENDMDL
MODEL 7
REMARK VINA RESULT:      -7.7      0.644      1.486
REMARK  Name = 
REMARK  4 active torsions:
REMARK  status: ('A' for Active; 'I' for Inactive)
REMARK    1  A    between atoms: C_1  and  S_2
REMARK    2  A    between atoms: S_2  and  C_5
REMARK    3  A    between atoms: C_8  and  C_9
REMARK    4  A    between atoms: C_10  and  C_11
REMARK                            x       y       z     vdW  Elec       q    Type
REMARK                         _______ _______ _______ _____ _____    ______ ____
ROOT
ATOM      1  C   UNL     1       3.760   6.355  17.763  0.00  0.00    +0.000 C 
ATOM      2  C   UNL     1       3.844   5.071  18.162  0.00  0.00    +0.000 C 
ATOM      3  C   UNL     1       4.893   4.324  17.381  0.00  0.00    +0.000 C 
ATOM      4  C   UNL     1       5.235   5.279  16.248  0.00  0.00    +0.000 C 
ATOM      5  C   UNL     1       5.071   4.807  14.819  0.00  0.00    +0.000 C 
ATOM      6  C   UNL     1       6.442   5.106  15.357  0.00  0.00    +0.000 C 
ATOM      7  C   UNL     1       4.715   6.649  16.637  0.00  0.00    +0.000 C 
ENDROOT
BRANCH   2   8
ATOM      8  C   UNL     1       3.029   4.423  19.183  0.00  0.00    +0.000 A 
ATOM      9  C   UNL     1       3.432   4.437  20.524  0.00  0.00    +0.000 A 
ATOM     10  C   UNL     1       2.711   3.722  21.485  0.00  0.00    +0.000 A 
ATOM     11  C   UNL     1       1.583   2.998  21.103  0.00  0.00    +0.000 A 
ATOM     12 CL   UNL     1       0.719   2.081  22.275  0.00  0.00    +0.000 Cl
ATOM     13  C   UNL     1       1.158   2.999  19.777  0.00  0.00    +0.000 A 
ATOM     14  C   UNL     1       1.881   3.712  18.816  0.00  0.00    +0.000 A 
ENDBRANCH   2   8
BRANCH   1  18
ATOM     15  C   UNL     1       1.174   9.373  19.235  0.00  0.00    +0.000 A 
ATOM     16  C   UNL     1       1.535   8.309  20.066  0.00  0.00    +0.000 A 
ATOM     17  C   UNL     1       2.391   7.322  19.578  0.00  0.00    +0.000 A 
ATOM     18  C   UNL     1       2.871   7.391  18.265  0.00  0.00    +0.000 A 
ATOM     19  C   UNL     1       2.485   8.451  17.435  0.00  0.00    +0.000 A 
ATOM     20  C   UNL     1       1.631   9.443  17.917  0.00  0.00    +0.000 A 
BRANCH  15  22
ATOM     21  C   UNL     1       0.115  10.337  21.605  0.00  0.00    +0.000 C 
ATOM     22  S   UNL     1       0.123  10.655  19.862  0.00  0.00    +0.000 S 
ATOM     23  O   UNL     1      -1.216  10.419  19.350  0.00  0.00    +0.000 OA
ATOM     24  O   UNL     1       0.790  11.924  19.636  0.00  0.00    +0.000 OA
ENDBRANCH  15  22
ENDBRANCH   1  18
TORSDOF 3
ENDMDL
MODEL 8
REMARK VINA RESULT:      -7.6      2.687      4.644
REMARK  Name = 
REMARK  4 active torsions:
REMARK  status: ('A' for Active; 'I' for Inactive)
REMARK    1  A    between atoms: C_1  and  S_2
REMARK    2  A    between atoms: S_2  and  C_5
REMARK    3  A    between atoms: C_8  and  C_9
REMARK    4  A    between atoms: C_10  and  C_11
REMARK                            x       y       z     vdW  Elec       q    Type
REMARK                         _______ _______ _______ _____ _____    ______ ____
ROOT
ATOM      1  C   UNL     1       2.458   5.383  18.626  0.00  0.00    +0.000 C 
ATOM      2  C   UNL     1       3.661   4.911  18.244  0.00  0.00    +0.000 C 
ATOM      3  C   UNL     1       3.631   3.416  18.072  0.00  0.00    +0.000 C 
ATOM      4  C   UNL     1       2.298   3.017  18.685  0.00  0.00    +0.000 C 
ATOM      5  C   UNL     1       2.286   2.019  19.824  0.00  0.00    +0.000 C 
ATOM      6  C   UNL     1       1.678   1.653  18.500  0.00  0.00    +0.000 C 
ATOM      7  C   UNL     1       1.456   4.273  18.797  0.00  0.00    +0.000 C 
ENDROOT
BRANCH   2   8
ATOM      8  C   UNL     1       4.876   5.692  18.045  0.00  0.00    +0.000 A 
ATOM      9  C   UNL     1       5.987   5.495  18.876  0.00  0.00    +0.000 A 
ATOM     10  C   UNL     1       7.110   6.319  18.760  0.00  0.00    +0.000 A 
ATOM     11  C   UNL     1       7.123   7.336  17.807  0.00  0.00    +0.000 A 
ATOM     12 CL   UNL     1       8.486   8.381  17.691  0.00  0.00    +0.000 Cl
ATOM     13  C   UNL     1       6.035   7.524  16.959  0.00  0.00    +0.000 A 
ATOM     14  C   UNL     1       4.911   6.702  17.078  0.00  0.00    +0.000 A 
ENDBRANCH   2   8
BRANCH   1  18
ATOM     15  C   UNL     1       1.372   9.400  19.433  0.00  0.00    +0.000 A 
ATOM     16  C   UNL     1       1.471   8.487  20.487  0.00  0.00    +0.000 A 
ATOM     17  C   UNL     1       1.834   7.168  20.216  0.00  0.00    +0.000 A 
ATOM     18  C   UNL     1       2.083   6.762  18.899  0.00  0.00    +0.000 A 
ATOM     19  C   UNL     1       1.960   7.680  17.850  0.00  0.00    +0.000 A 
ATOM     20  C   UNL     1       1.600   9.002  18.114  0.00  0.00    +0.000 A 
BRANCH  15  22
ATOM     21  C   UNL     1       1.945  11.979  18.606  0.00  0.00    +0.000 C 
ATOM     22  S   UNL     1       0.955  11.088  19.774  0.00  0.00    +0.000 S 
ATOM     23  O   UNL     1       1.435  11.401  21.109  0.00  0.00    +0.000 OA
ATOM     24  O   UNL     1      -0.440  11.279  19.425  0.00  0.00    +0.000 OA
ENDBRANCH  15  22
ENDBRANCH   1  18
TORSDOF 3
ENDMDL
MODEL 9
REMARK VINA RESULT:      -7.5      4.311      8.469
REMARK  Name = 
REMARK  4 active torsions:
REMARK  status: ('A' for Active; 'I' for Inactive)
REMARK    1  A    between atoms: C_1  and  S_2
REMARK    2  A    between atoms: S_2  and  C_5
REMARK    3  A    between atoms: C_8  and  C_9
REMARK    4  A    between atoms: C_10  and  C_11
REMARK                            x       y       z     vdW  Elec       q    Type
REMARK                         _______ _______ _______ _____ _____    ______ ____
ROOT
ATOM      1  C   UNL     1      -0.214  10.760  20.355  0.00  0.00    +0.000 C 
ATOM      2  C   UNL     1      -1.290  11.345  19.793  0.00  0.00    +0.000 C 
ATOM      3  C   UNL     1      -1.871  12.399  20.697  0.00  0.00    +0.000 C 
ATOM      4  C   UNL     1      -1.154  12.167  22.017  0.00  0.00    +0.000 C 
ATOM      5  C   UNL     1      -1.976  11.881  23.256  0.00  0.00    +0.000 C 
ATOM      6  C   UNL     1      -1.183  13.155  23.159  0.00  0.00    +0.000 C 
ATOM      7  C   UNL     1       0.064  11.313  21.727  0.00  0.00    +0.000 C 
ENDROOT
BRANCH   2   8
ATOM      8  C   UNL     1      -1.882  11.016  18.502  0.00  0.00    +0.000 A 
ATOM      9  C   UNL     1      -2.495   9.772  18.301  0.00  0.00    +0.000 A 
ATOM     10  C   UNL     1      -2.962   9.413  17.034  0.00  0.00    +0.000 A 
ATOM     11  C   UNL     1      -2.821  10.301  15.969  0.00  0.00    +0.000 A 
ATOM     12 CL   UNL     1      -3.355   9.843  14.398  0.00  0.00    +0.000 Cl
ATOM     13  C   UNL     1      -2.237  11.550  16.164  0.00  0.00    +0.000 A 
ATOM     14  C   UNL     1      -1.767  11.908  17.430  0.00  0.00    +0.000 A 
ENDBRANCH   2   8
BRANCH   1  18
ATOM     15  C   UNL     1       2.200   7.662  18.761  0.00  0.00    +0.000 A 
ATOM     16  C   UNL     1       1.799   7.605  20.098  0.00  0.00    +0.000 A 
ATOM     17  C   UNL     1       1.001   8.624  20.616  0.00  0.00    +0.000 A 
ATOM     18  C   UNL     1       0.617   9.700  19.805  0.00  0.00    +0.000 A 
ATOM     19  C   UNL     1       1.042   9.756  18.472  0.00  0.00    +0.000 A 
ATOM     20  C   UNL     1       1.840   8.739  17.948  0.00  0.00    +0.000 A 
BRANCH  15  22
ATOM     21  C   UNL     1       4.060   5.748  19.497  0.00  0.00    +0.000 C 
ATOM     22  S   UNL     1       3.178   6.348  18.083  0.00  0.00    +0.000 S 
ATOM     23  O   UNL     1       4.136   6.938  17.165  0.00  0.00    +0.000 OA
ATOM     24  O   UNL     1       2.271   5.306  17.639  0.00  0.00    +0.000 OA
ENDBRANCH  15  22
ENDBRANCH   1  18
TORSDOF 3
ENDMDL
