MODEL 1
REMARK VINA RESULT:      -7.6      0.000      0.000
REMARK  Name = 
REMARK  8 active torsions:
REMARK  status: ('A' for Active; 'I' for Inactive)
REMARK    1  A    between atoms: C_1  and  C_2
REMARK    2  A    between atoms: C_2  and  C_3
REMARK    3  A    between atoms: C_3  and  N_4
REMARK    4  A    between atoms: N_4  and  C_5
REMARK    5  A    between atoms: N_17  and  C_18
REMARK    6  A    between atoms: C_23  and  C_24
REMARK    7  A    between atoms: N_25  and  C_26
REMARK    8  A    between atoms: N_29  and  C_30
REMARK                            x       y       z     vdW  Elec       q    Type
REMARK                         _______ _______ _______ _____ _____    ______ ____
ROOT
ATOM      1  C   UNL     1       3.103   4.701  19.756  0.00  0.00    +0.000 A 
ATOM      2  C   UNL     1       2.281   4.927  20.871  0.00  0.00    +0.000 A 
ATOM      3  C   UNL     1       1.616   6.134  21.055  0.00  0.00    +0.000 A 
ATOM      4  C   UNL     1       1.794   7.187  20.148  0.00  0.00    +0.000 A 
ATOM      5  C   UNL     1       2.633   7.019  19.041  0.00  0.00    +0.000 A 
ATOM      6  C   UNL     1       2.808   8.061  18.115  0.00  0.00    +0.000 A 
ATOM      7  C   UNL     1       3.659   7.919  17.011  0.00  0.00    +0.000 A 
ATOM      8  C   UNL     1       4.300   6.721  16.788  0.00  0.00    +0.000 A 
ATOM      9  C   UNL     1       4.081   5.657  17.659  0.00  0.00    +0.000 A 
ATOM     10  C   UNL     1       3.293   5.785  18.832  0.00  0.00    +0.000 A 
ATOM     11  C   UNL     1       2.105   9.342  18.287  0.00  0.00    +0.000 C 
ATOM     12  O   UNL     1       2.297  10.224  17.443  0.00  0.00    +0.000 OA
ATOM     13  N   UNL     1       1.260   9.465  19.392  0.00  0.00    +0.000 N 
ATOM     14  C   UNL     1       1.084   8.474  20.371  0.00  0.00    +0.000 C 
ATOM     15  O   UNL     1       0.430   8.609  21.399  0.00  0.00    +0.000 OA
ENDROOT
BRANCH  13  16
ATOM     16  C   UNL     1       0.696  10.760  19.620  0.00  0.00    +0.000 A 
ATOM     17  C   UNL     1       1.518  11.721  20.245  0.00  0.00    +0.000 A 
ATOM     18  C   UNL     1       1.021  12.995  20.393  0.00  0.00    +0.000 A 
ATOM     19  C   UNL     1      -0.254  13.343  19.947  0.00  0.00    +0.000 A 
ATOM     20  C   UNL     1      -1.083  12.423  19.340  0.00  0.00    +0.000 A 
ATOM     21  C   UNL     1      -0.618  11.100  19.183  0.00  0.00    +0.000 A 
ATOM     22  C   UNL     1      -1.541  10.096  18.546  0.00  0.00    +0.000 C 
ATOM     23  N   UNL     1      -0.451  14.700  20.235  0.00  0.00    +0.000 N 
ATOM     24  C   UNL     1      -1.624  15.475  19.970  0.00  0.00    +0.000 C 
ATOM     25  C   UNL     1       0.710  15.211  20.856  0.00  0.00    +0.000 A 
ATOM     26  O   UNL     1       0.886  16.361  21.240  0.00  0.00    +0.000 OA
ATOM     27  N   UNL     1       1.615  14.137  20.948  0.00  0.00    +0.000 N 
ATOM     28  C   UNL     1       2.938  14.202  21.494  0.00  0.00    +0.000 C 
ENDBRANCH  13  16
BRANCH   1  29
ATOM     29  N   UNL     1       3.787   3.474  19.620  0.00  0.00    +0.000 N 
ATOM     30  H   UNL     1       4.525   3.506  18.928  0.00  0.00    +0.000 HD
BRANCH  29  31
ATOM     31  C   UNL     1       2.986   2.245  19.512  0.00  0.00    +0.000 C 
BRANCH  31  33
ATOM     32  C   UNL     1       0.618   2.406  18.707  0.00  0.00    +0.000 C 
ATOM     33  C   UNL     1       2.078   2.320  18.288  0.00  0.00    +0.000 C 
ENDBRANCH  31  33
ENDBRANCH  29  31
ENDBRANCH   1  29
TORSDOF 4
ENDMDL
MODEL 2
REMARK VINA RESULT:      -7.4      2.294      4.335
REMARK  Name = 
REMARK  8 active torsions:
REMARK  status: ('A' for Active; 'I' for Inactive)
REMARK    1  A    between atoms: C_1  and  C_2
REMARK    2  A    between atoms: C_2  and  C_3
REMARK    3  A    between atoms: C_3  and  N_4
REMARK    4  A    between atoms: N_4  and  C_5
REMARK    5  A    between atoms: N_17  and  C_18
REMARK    6  A    between atoms: C_23  and  C_24
REMARK    7  A    between atoms: N_25  and  C_26
REMARK    8  A    between atoms: N_29  and  C_30
REMARK                            x       y       z     vdW  Elec       q    Type
REMARK                         _______ _______ _______ _____ _____    ______ ____
ROOT
ATOM      1  C   UNL     1       4.610   5.627  17.681  0.00  0.00    +0.000 A 
ATOM      2  C   UNL     1       4.612   6.724  16.806  0.00  0.00    +0.000 A 
ATOM      3  C   UNL     1       3.782   7.821  17.008  0.00  0.00    +0.000 A 
ATOM      4  C   UNL     1       2.873   7.835  18.076  0.00  0.00    +0.000 A 
ATOM      5  C   UNL     1       2.811   6.746  18.952  0.00  0.00    +0.000 A 
ATOM      6  C   UNL     1       1.917   6.754  20.035  0.00  0.00    +0.000 A 
ATOM      7  C   UNL     1       1.825   5.665  20.912  0.00  0.00    +0.000 A 
ATOM      8  C   UNL     1       2.662   4.583  20.754  0.00  0.00    +0.000 A 
ATOM      9  C   UNL     1       3.602   4.593  19.726  0.00  0.00    +0.000 A 
ATOM     10  C   UNL     1       3.671   5.637  18.768  0.00  0.00    +0.000 A 
ATOM     11  C   UNL     1       1.037   7.909  20.273  0.00  0.00    +0.000 C 
ATOM     12  O   UNL     1       0.268   7.861  21.239  0.00  0.00    +0.000 OA
ATOM     13  N   UNL     1       1.142   8.986  19.389  0.00  0.00    +0.000 N 
ATOM     14  C   UNL     1       1.985   9.011  18.266  0.00  0.00    +0.000 C 
ATOM     15  O   UNL     1       2.009   9.903  17.425  0.00  0.00    +0.000 OA
ENDROOT
BRANCH  13  16
ATOM     16  C   UNL     1       0.184  10.036  19.551  0.00  0.00    +0.000 A 
ATOM     17  C   UNL     1      -1.009   9.943  18.805  0.00  0.00    +0.000 A 
ATOM     18  C   UNL     1      -1.976  10.899  19.014  0.00  0.00    +0.000 A 
ATOM     19  C   UNL     1      -1.797  11.937  19.929  0.00  0.00    +0.000 A 
ATOM     20  C   UNL     1      -0.638  12.059  20.666  0.00  0.00    +0.000 A 
ATOM     21  C   UNL     1       0.386  11.108  20.470  0.00  0.00    +0.000 A 
ATOM     22  C   UNL     1       1.660  11.266  21.257  0.00  0.00    +0.000 C 
ATOM     23  N   UNL     1      -2.956  12.724  19.911  0.00  0.00    +0.000 N 
ATOM     24  C   UNL     1      -3.205  13.906  20.678  0.00  0.00    +0.000 C 
ATOM     25  C   UNL     1      -3.872  12.174  18.989  0.00  0.00    +0.000 A 
ATOM     26  O   UNL     1      -4.987  12.604  18.722  0.00  0.00    +0.000 OA
ATOM     27  N   UNL     1      -3.246  11.039  18.438  0.00  0.00    +0.000 N 
ATOM     28  C   UNL     1      -3.820  10.154  17.469  0.00  0.00    +0.000 C 
ENDBRANCH  13  16
BRANCH   1  29
ATOM     29  N   UNL     1       5.444   4.518  17.424  0.00  0.00    +0.000 N 
ATOM     30  H   UNL     1       5.317   3.764  18.088  0.00  0.00    +0.000 HD
BRANCH  29  31
ATOM     31  C   UNL     1       6.866   4.773  17.149  0.00  0.00    +0.000 C 
BRANCH  31  33
ATOM     32  C   UNL     1       7.883   6.683  18.414  0.00  0.00    +0.000 C 
ATOM     33  C   UNL     1       7.579   5.192  18.431  0.00  0.00    +0.000 C 
ENDBRANCH  31  33
ENDBRANCH  29  31
ENDBRANCH   1  29
TORSDOF 4
ENDMDL
MODEL 3
REMARK VINA RESULT:      -7.2      2.428      4.314
REMARK  Name = 
REMARK  8 active torsions:
REMARK  status: ('A' for Active; 'I' for Inactive)
REMARK    1  A    between atoms: C_1  and  C_2
REMARK    2  A    between atoms: C_2  and  C_3
REMARK    3  A    between atoms: C_3  and  N_4
REMARK    4  A    between atoms: N_4  and  C_5
REMARK    5  A    between atoms: N_17  and  C_18
REMARK    6  A    between atoms: C_23  and  C_24
REMARK    7  A    between atoms: N_25  and  C_26
REMARK    8  A    between atoms: N_29  and  C_30
REMARK                            x       y       z     vdW  Elec       q    Type
REMARK                         _______ _______ _______ _____ _____    ______ ____
ROOT
ATOM      1  C   UNL     1       4.920   5.427  17.784  0.00  0.00    +0.000 A 
ATOM      2  C   UNL     1       4.945   6.527  16.912  0.00  0.00    +0.000 A 
ATOM      3  C   UNL     1       4.080   7.605  17.072  0.00  0.00    +0.000 A 
ATOM      4  C   UNL     1       3.117   7.596  18.090  0.00  0.00    +0.000 A 
ATOM      5  C   UNL     1       3.033   6.503  18.960  0.00  0.00    +0.000 A 
ATOM      6  C   UNL     1       2.083   6.489  19.995  0.00  0.00    +0.000 A 
ATOM      7  C   UNL     1       1.970   5.396  20.865  0.00  0.00    +0.000 A 
ATOM      8  C   UNL     1       2.838   4.333  20.749  0.00  0.00    +0.000 A 
ATOM      9  C   UNL     1       3.830   4.366  19.772  0.00  0.00    +0.000 A 
ATOM     10  C   UNL     1       3.926   5.414  18.820  0.00  0.00    +0.000 A 
ATOM     11  C   UNL     1       1.167   7.624  20.188  0.00  0.00    +0.000 C 
ATOM     12  O   UNL     1       0.349   7.556  21.112  0.00  0.00    +0.000 OA
ATOM     13  N   UNL     1       1.294   8.705  19.313  0.00  0.00    +0.000 N 
ATOM     14  C   UNL     1       2.194   8.752  18.236  0.00  0.00    +0.000 C 
ATOM     15  O   UNL     1       2.242   9.646  17.398  0.00  0.00    +0.000 OA
ENDROOT
BRANCH  13  16
ATOM     16  C   UNL     1       0.306   9.733  19.425  0.00  0.00    +0.000 A 
ATOM     17  C   UNL     1      -0.791   9.675  18.541  0.00  0.00    +0.000 A 
ATOM     18  C   UNL     1      -1.792  10.606  18.694  0.00  0.00    +0.000 A 
ATOM     19  C   UNL     1      -1.738  11.587  19.685  0.00  0.00    +0.000 A 
ATOM     20  C   UNL     1      -0.674  11.674  20.558  0.00  0.00    +0.000 A 
ATOM     21  C   UNL     1       0.382  10.748  20.425  0.00  0.00    +0.000 A 
ATOM     22  C   UNL     1       1.553  10.869  21.363  0.00  0.00    +0.000 C 
ATOM     23  N   UNL     1      -2.901  12.362  19.580  0.00  0.00    +0.000 N 
ATOM     24  C   UNL     1      -3.257  13.491  20.383  0.00  0.00    +0.000 C 
ATOM     25  C   UNL     1      -3.695  11.861  18.526  0.00  0.00    +0.000 A 
ATOM     26  O   UNL     1      -4.778  12.296  18.158  0.00  0.00    +0.000 OA
ATOM     27  N   UNL     1      -2.989  10.769  17.984  0.00  0.00    +0.000 N 
ATOM     28  C   UNL     1      -3.432   9.941  16.902  0.00  0.00    +0.000 C 
ENDBRANCH  13  16
BRANCH   1  29
ATOM     29  N   UNL     1       5.792   4.338  17.570  0.00  0.00    +0.000 N 
ATOM     30  H   UNL     1       6.299   4.066  18.403  0.00  0.00    +0.000 HD
BRANCH  29  31
ATOM     31  C   UNL     1       6.662   4.373  16.384  0.00  0.00    +0.000 C 
BRANCH  31  33
ATOM     32  C   UNL     1       6.100   4.327  13.942  0.00  0.00    +0.000 C 
ATOM     33  C   UNL     1       6.038   3.559  15.254  0.00  0.00    +0.000 C 
ENDBRANCH  31  33
ENDBRANCH  29  31
ENDBRANCH   1  29
TORSDOF 4
ENDMDL
MODEL 4
REMARK VINA RESULT:      -7.0      2.435      4.341
REMARK  Name = 
REMARK  8 active torsions:
REMARK  status: ('A' for Active; 'I' for Inactive)
REMARK    1  A    between atoms: C_1  and  C_2
REMARK    2  A    between atoms: C_2  and  C_3
REMARK    3  A    between atoms: C_3  and  N_4
REMARK    4  A    between atoms: N_4  and  C_5
REMARK    5  A    between atoms: N_17  and  C_18
REMARK    6  A    between atoms: C_23  and  C_24
REMARK    7  A    between atoms: N_25  and  C_26
REMARK    8  A    between atoms: N_29  and  C_30
REMARK                            x       y       z     vdW  Elec       q    Type
REMARK                         _______ _______ _______ _____ _____    ______ ____
ROOT
ATOM      1  C   UNL     1       5.060   5.018  16.892  0.00  0.00    +0.000 A 
ATOM      2  C   UNL     1       5.072   6.263  16.243  0.00  0.00    +0.000 A 
ATOM      3  C   UNL     1       4.309   7.332  16.701  0.00  0.00    +0.000 A 
ATOM      4  C   UNL     1       3.459   7.175  17.805  0.00  0.00    +0.000 A 
ATOM      5  C   UNL     1       3.390   5.941  18.460  0.00  0.00    +0.000 A 
ATOM      6  C   UNL     1       2.555   5.774  19.578  0.00  0.00    +0.000 A 
ATOM      7  C   UNL     1       2.455   4.541  20.235  0.00  0.00    +0.000 A 
ATOM      8  C   UNL     1       3.227   3.478  19.823  0.00  0.00    +0.000 A 
ATOM      9  C   UNL     1       4.112   3.649  18.760  0.00  0.00    +0.000 A 
ATOM     10  C   UNL     1       4.182   4.855  18.016  0.00  0.00    +0.000 A 
ATOM     11  C   UNL     1       1.748   6.895  20.084  0.00  0.00    +0.000 C 
ATOM     12  O   UNL     1       1.029   6.692  21.068  0.00  0.00    +0.000 OA
ATOM     13  N   UNL     1       1.860   8.117  19.417  0.00  0.00    +0.000 N 
ATOM     14  C   UNL     1       2.643   8.326  18.270  0.00  0.00    +0.000 C 
ATOM     15  O   UNL     1       2.667   9.362  17.614  0.00  0.00    +0.000 OA
ENDROOT
BRANCH  13  16
ATOM     16  C   UNL     1       0.966   9.153  19.834  0.00  0.00    +0.000 A 
ATOM     17  C   UNL     1      -0.004   9.582  18.905  0.00  0.00    +0.000 A 
ATOM     18  C   UNL     1      -0.925  10.516  19.319  0.00  0.00    +0.000 A 
ATOM     19  C   UNL     1      -0.914  11.035  20.614  0.00  0.00    +0.000 A 
ATOM     20  C   UNL     1       0.027  10.640  21.542  0.00  0.00    +0.000 A 
ATOM     21  C   UNL     1       1.000   9.697  21.152  0.00  0.00    +0.000 A 
ATOM     22  C   UNL     1       2.042   9.294  22.163  0.00  0.00    +0.000 C 
ATOM     23  N   UNL     1      -1.975  11.944  20.718  0.00  0.00    +0.000 N 
ATOM     24  C   UNL     1      -2.329  12.726  21.863  0.00  0.00    +0.000 C 
ATOM     25  C   UNL     1      -2.664  11.990  19.486  0.00  0.00    +0.000 A 
ATOM     26  O   UNL     1      -3.643  12.676  19.223  0.00  0.00    +0.000 OA
ATOM     27  N   UNL     1      -1.997  11.097  18.626  0.00  0.00    +0.000 N 
ATOM     28  C   UNL     1      -2.366  10.805  17.273  0.00  0.00    +0.000 C 
ENDBRANCH  13  16
BRANCH   1  29
ATOM     29  N   UNL     1       5.824   3.948  16.378  0.00  0.00    +0.000 N 
ATOM     30  H   UNL     1       6.421   3.518  17.073  0.00  0.00    +0.000 HD
BRANCH  29  31
ATOM     31  C   UNL     1       6.525   4.151  15.101  0.00  0.00    +0.000 C 
BRANCH  31  33
ATOM     32  C   UNL     1       6.374   3.662  12.647  0.00  0.00    +0.000 C 
ATOM     33  C   UNL     1       5.587   3.846  13.936  0.00  0.00    +0.000 C 
ENDBRANCH  31  33
ENDBRANCH  29  31
ENDBRANCH   1  29
TORSDOF 4
ENDMDL
MODEL 5
REMARK VINA RESULT:      -6.9      1.160      3.024
REMARK  Name = 
REMARK  8 active torsions:
REMARK  status: ('A' for Active; 'I' for Inactive)
REMARK    1  A    between atoms: C_1  and  C_2
REMARK    2  A    between atoms: C_2  and  C_3
REMARK    3  A    between atoms: C_3  and  N_4
REMARK    4  A    between atoms: N_4  and  C_5
REMARK    5  A    between atoms: N_17  and  C_18
REMARK    6  A    between atoms: C_23  and  C_24
REMARK    7  A    between atoms: N_25  and  C_26
REMARK    8  A    between atoms: N_29  and  C_30
REMARK                            x       y       z     vdW  Elec       q    Type
REMARK                         _______ _______ _______ _____ _____    ______ ____
ROOT
ATOM      1  C   UNL     1       4.027   5.605  17.641  0.00  0.00    +0.000 A 
ATOM      2  C   UNL     1       4.202   6.691  16.769  0.00  0.00    +0.000 A 
ATOM      3  C   UNL     1       3.624   7.930  17.023  0.00  0.00    +0.000 A 
ATOM      4  C   UNL     1       2.801   8.113  18.143  0.00  0.00    +0.000 A 
ATOM      5  C   UNL     1       2.571   7.047  19.019  0.00  0.00    +0.000 A 
ATOM      6  C   UNL     1       1.761   7.220  20.155  0.00  0.00    +0.000 A 
ATOM      7  C   UNL     1       1.502   6.160  21.034  0.00  0.00    +0.000 A 
ATOM      8  C   UNL     1       2.091   4.934  20.822  0.00  0.00    +0.000 A 
ATOM      9  C   UNL     1       2.952   4.768  19.740  0.00  0.00    +0.000 A 
ATOM     10  C   UNL     1       3.175   5.790  18.782  0.00  0.00    +0.000 A 
ATOM     11  C   UNL     1       1.151   8.527  20.447  0.00  0.00    +0.000 C 
ATOM     12  O   UNL     1       0.445   8.622  21.457  0.00  0.00    +0.000 OA
ATOM     13  N   UNL     1       1.420   9.572  19.561  0.00  0.00    +0.000 N 
ATOM     14  C   UNL     1       2.183   9.442  18.389  0.00  0.00    +0.000 C 
ATOM     15  O   UNL     1       2.338  10.322  17.550  0.00  0.00    +0.000 OA
ENDROOT
BRANCH  13  16
ATOM     16  C   UNL     1       0.707  10.792  19.782  0.00  0.00    +0.000 A 
ATOM     17  C   UNL     1       1.394  11.832  20.440  0.00  0.00    +0.000 A 
ATOM     18  C   UNL     1       0.751  13.041  20.583  0.00  0.00    +0.000 A 
ATOM     19  C   UNL     1      -0.540  13.247  20.100  0.00  0.00    +0.000 A 
ATOM     20  C   UNL     1      -1.240  12.246  19.459  0.00  0.00    +0.000 A 
ATOM     21  C   UNL     1      -0.624  10.987  19.306  0.00  0.00    +0.000 A 
ATOM     22  C   UNL     1      -1.407   9.892  18.632  0.00  0.00    +0.000 C 
ATOM     23  N   UNL     1      -0.898  14.570  20.393  0.00  0.00    +0.000 N 
ATOM     24  C   UNL     1      -2.143  15.209  20.098  0.00  0.00    +0.000 C 
ATOM     25  C   UNL     1       0.177  15.201  21.055  0.00  0.00    +0.000 A 
ATOM     26  O   UNL     1       0.210  16.359  21.454  0.00  0.00    +0.000 OA
ATOM     27  N   UNL     1       1.195  14.236  21.166  0.00  0.00    +0.000 N 
ATOM     28  C   UNL     1       2.485  14.443  21.754  0.00  0.00    +0.000 C 
ENDBRANCH  13  16
BRANCH   1  29
ATOM     29  N   UNL     1       4.602   4.354  17.331  0.00  0.00    +0.000 N 
ATOM     30  H   UNL     1       4.501   3.676  18.077  0.00  0.00    +0.000 HD
BRANCH  29  31
ATOM     31  C   UNL     1       5.957   4.339  16.758  0.00  0.00    +0.000 C 
BRANCH  31  33
ATOM     32  C   UNL     1       6.716   4.739  14.402  0.00  0.00    +0.000 C 
ATOM     33  C   UNL     1       5.909   3.832  15.319  0.00  0.00    +0.000 C 
ENDBRANCH  31  33
ENDBRANCH  29  31
ENDBRANCH   1  29
TORSDOF 4
ENDMDL
MODEL 6
REMARK VINA RESULT:      -6.8      2.077      3.882
REMARK  Name = 
REMARK  8 active torsions:
REMARK  status: ('A' for Active; 'I' for Inactive)
REMARK    1  A    between atoms: C_1  and  C_2
REMARK    2  A    between atoms: C_2  and  C_3
REMARK    3  A    between atoms: C_3  and  N_4
REMARK    4  A    between atoms: N_4  and  C_5
REMARK    5  A    between atoms: N_17  and  C_18
REMARK    6  A    between atoms: C_23  and  C_24
REMARK    7  A    between atoms: N_25  and  C_26
REMARK    8  A    between atoms: N_29  and  C_30
REMARK                            x       y       z     vdW  Elec       q    Type
REMARK                         _______ _______ _______ _____ _____    ______ ____
ROOT
ATOM      1  C   UNL     1       4.286   5.847  17.981  0.00  0.00    +0.000 A 
ATOM      2  C   UNL     1       4.317   6.922  17.078  0.00  0.00    +0.000 A 
ATOM      3  C   UNL     1       3.504   8.038  17.244  0.00  0.00    +0.000 A 
ATOM      4  C   UNL     1       2.586   8.095  18.302  0.00  0.00    +0.000 A 
ATOM      5  C   UNL     1       2.497   7.030  19.205  0.00  0.00    +0.000 A 
ATOM      6  C   UNL     1       1.592   7.081  20.280  0.00  0.00    +0.000 A 
ATOM      7  C   UNL     1       1.473   6.017  21.183  0.00  0.00    +0.000 A 
ATOM      8  C   UNL     1       2.292   4.917  21.060  0.00  0.00    +0.000 A 
ATOM      9  C   UNL     1       3.242   4.884  20.041  0.00  0.00    +0.000 A 
ATOM     10  C   UNL     1       3.338   5.902  19.058  0.00  0.00    +0.000 A 
ATOM     11  C   UNL     1       0.732   8.258  20.479  0.00  0.00    +0.000 C 
ATOM     12  O   UNL     1      -0.047   8.248  21.438  0.00  0.00    +0.000 OA
ATOM     13  N   UNL     1       0.864   9.309  19.569  0.00  0.00    +0.000 N 
ATOM     14  C   UNL     1       1.718   9.291  18.455  0.00  0.00    +0.000 C 
ATOM     15  O   UNL     1       1.765  10.160  17.591  0.00  0.00    +0.000 OA
ENDROOT
BRANCH  13  16
ATOM     16  C   UNL     1      -0.076  10.380  19.695  0.00  0.00    +0.000 A 
ATOM     17  C   UNL     1      -1.303  10.246  19.013  0.00  0.00    +0.000 A 
ATOM     18  C   UNL     1      -2.251  11.227  19.193  0.00  0.00    +0.000 A 
ATOM     19  C   UNL     1      -2.022  12.327  20.019  0.00  0.00    +0.000 A 
ATOM     20  C   UNL     1      -0.829  12.489  20.692  0.00  0.00    +0.000 A 
ATOM     21  C   UNL     1       0.176  11.515  20.522  0.00  0.00    +0.000 A 
ATOM     22  C   UNL     1       1.486  11.715  21.237  0.00  0.00    +0.000 C 
ATOM     23  N   UNL     1      -3.174  13.125  19.995  0.00  0.00    +0.000 N 
ATOM     24  C   UNL     1      -3.377  14.363  20.682  0.00  0.00    +0.000 C 
ATOM     25  C   UNL     1      -4.136  12.518  19.159  0.00  0.00    +0.000 A 
ATOM     26  O   UNL     1      -5.258  12.941  18.911  0.00  0.00    +0.000 OA
ATOM     27  N   UNL     1      -3.545  11.339  18.667  0.00  0.00    +0.000 N 
ATOM     28  C   UNL     1      -4.171  10.391  17.793  0.00  0.00    +0.000 C 
ENDBRANCH  13  16
BRANCH   1  29
ATOM     29  N   UNL     1       5.103   4.717  17.760  0.00  0.00    +0.000 N 
ATOM     30  H   UNL     1       6.070   4.957  17.579  0.00  0.00    +0.000 HD
BRANCH  29  31
ATOM     31  C   UNL     1       4.613   3.680  16.839  0.00  0.00    +0.000 C 
BRANCH  31  33
ATOM     32  C   UNL     1       2.494   2.515  17.498  0.00  0.00    +0.000 C 
ATOM     33  C   UNL     1       4.010   2.522  17.629  0.00  0.00    +0.000 C 
ENDBRANCH  31  33
ENDBRANCH  29  31
ENDBRANCH   1  29
TORSDOF 4
ENDMDL
MODEL 7
REMARK VINA RESULT:      -6.8      3.888      5.467
REMARK  Name = 
REMARK  8 active torsions:
REMARK  status: ('A' for Active; 'I' for Inactive)
REMARK    1  A    between atoms: C_1  and  C_2
REMARK    2  A    between atoms: C_2  and  C_3
REMARK    3  A    between atoms: C_3  and  N_4
REMARK    4  A    between atoms: N_4  and  C_5
REMARK    5  A    between atoms: N_17  and  C_18
REMARK    6  A    between atoms: C_23  and  C_24
REMARK    7  A    between atoms: N_25  and  C_26
REMARK    8  A    between atoms: N_29  and  C_30
REMARK                            x       y       z     vdW  Elec       q    Type
REMARK                         _______ _______ _______ _____ _____    ______ ____
ROOT
ATOM      1  C   UNL     1       1.611   8.256  20.623  0.00  0.00    +0.000 A 
ATOM      2  C   UNL     1       1.454   8.352  22.015  0.00  0.00    +0.000 A 
ATOM      3  C   UNL     1       0.565   9.254  22.589  0.00  0.00    +0.000 A 
ATOM      4  C   UNL     1      -0.168  10.137  21.784  0.00  0.00    +0.000 A 
ATOM      5  C   UNL     1      -0.016  10.101  20.393  0.00  0.00    +0.000 A 
ATOM      6  C   UNL     1      -0.756  10.969  19.573  0.00  0.00    +0.000 A 
ATOM      7  C   UNL     1      -0.604  10.962  18.180  0.00  0.00    +0.000 A 
ATOM      8  C   UNL     1       0.243  10.053  17.587  0.00  0.00    +0.000 A 
ATOM      9  C   UNL     1       0.930   9.140  18.383  0.00  0.00    +0.000 A 
ATOM     10  C   UNL     1       0.868   9.168  19.800  0.00  0.00    +0.000 A 
ATOM     11  C   UNL     1      -1.710  11.923  20.160  0.00  0.00    +0.000 C 
ATOM     12  O   UNL     1      -2.332  12.665  19.392  0.00  0.00    +0.000 OA
ATOM     13  N   UNL     1      -1.849  11.916  21.550  0.00  0.00    +0.000 N 
ATOM     14  C   UNL     1      -1.102  11.102  22.418  0.00  0.00    +0.000 C 
ATOM     15  O   UNL     1      -1.138  11.162  23.642  0.00  0.00    +0.000 OA
ENDROOT
BRANCH  13  16
ATOM     16  C   UNL     1      -2.672  12.943  22.112  0.00  0.00    +0.000 A 
ATOM     17  C   UNL     1      -4.054  12.683  22.207  0.00  0.00    +0.000 A 
ATOM     18  C   UNL     1      -4.846  13.624  22.823  0.00  0.00    +0.000 A 
ATOM     19  C   UNL     1      -4.316  14.805  23.341  0.00  0.00    +0.000 A 
ATOM     20  C   UNL     1      -2.969  15.090  23.255  0.00  0.00    +0.000 A 
ATOM     21  C   UNL     1      -2.124  14.159  22.616  0.00  0.00    +0.000 A 
ATOM     22  C   UNL     1      -0.660  14.492  22.501  0.00  0.00    +0.000 C 
ATOM     23  N   UNL     1      -5.370  15.535  23.904  0.00  0.00    +0.000 N 
ATOM     24  C   UNL     1      -5.290  16.818  24.533  0.00  0.00    +0.000 C 
ATOM     25  C   UNL     1      -6.569  14.805  23.749  0.00  0.00    +0.000 A 
ATOM     26  O   UNL     1      -7.684  15.144  24.127  0.00  0.00    +0.000 OA
ATOM     27  N   UNL     1      -6.226  13.619  23.073  0.00  0.00    +0.000 N 
ATOM     28  C   UNL     1      -7.129  12.565  22.721  0.00  0.00    +0.000 C 
ENDBRANCH  13  16
BRANCH   1  29
ATOM     29  N   UNL     1       2.547   7.350  20.080  0.00  0.00    +0.000 N 
ATOM     30  H   UNL     1       3.067   7.737  19.302  0.00  0.00    +0.000 HD
BRANCH  29  31
ATOM     31  C   UNL     1       2.101   5.974  19.811  0.00  0.00    +0.000 C 
BRANCH  31  33
ATOM     32  C   UNL     1       1.643   4.350  17.958  0.00  0.00    +0.000 C 
ATOM     33  C   UNL     1       2.412   5.598  18.365  0.00  0.00    +0.000 C 
ENDBRANCH  31  33
ENDBRANCH  29  31
ENDBRANCH   1  29
TORSDOF 4
ENDMDL
MODEL 8
REMARK VINA RESULT:      -6.7      3.090      8.721
REMARK  Name = 
REMARK  8 active torsions:
REMARK  status: ('A' for Active; 'I' for Inactive)
REMARK    1  A    between atoms: C_1  and  C_2
REMARK    2  A    between atoms: C_2  and  C_3
REMARK    3  A    between atoms: C_3  and  N_4
REMARK    4  A    between atoms: N_4  and  C_5
REMARK    5  A    between atoms: N_17  and  C_18
REMARK    6  A    between atoms: C_23  and  C_24
REMARK    7  A    between atoms: N_25  and  C_26
REMARK    8  A    between atoms: N_29  and  C_30
REMARK                            x       y       z     vdW  Elec       q    Type
REMARK                         _______ _______ _______ _____ _____    ______ ____
ROOT
ATOM      1  C   UNL     1      -2.992  13.400  22.337  0.00  0.00    +0.000 A 
ATOM      2  C   UNL     1      -1.844  13.191  23.118  0.00  0.00    +0.000 A 
ATOM      3  C   UNL     1      -0.783  12.415  22.662  0.00  0.00    +0.000 A 
ATOM      4  C   UNL     1      -0.856  11.774  21.418  0.00  0.00    +0.000 A 
ATOM      5  C   UNL     1      -1.997  11.927  20.622  0.00  0.00    +0.000 A 
ATOM      6  C   UNL     1      -2.078  11.303  19.365  0.00  0.00    +0.000 A 
ATOM      7  C   UNL     1      -3.219  11.427  18.562  0.00  0.00    +0.000 A 
ATOM      8  C   UNL     1      -4.267  12.218  18.976  0.00  0.00    +0.000 A 
ATOM      9  C   UNL     1      -4.172  12.899  20.188  0.00  0.00    +0.000 A 
ATOM     10  C   UNL     1      -3.071  12.735  21.067  0.00  0.00    +0.000 A 
ATOM     11  C   UNL     1      -0.961  10.488  18.861  0.00  0.00    +0.000 C 
ATOM     12  O   UNL     1      -1.087   9.960  17.751  0.00  0.00    +0.000 OA
ATOM     13  N   UNL     1       0.168  10.376  19.674  0.00  0.00    +0.000 N 
ATOM     14  C   UNL     1       0.283  10.940  20.955  0.00  0.00    +0.000 C 
ATOM     15  O   UNL     1       1.224  10.761  21.721  0.00  0.00    +0.000 OA
ENDROOT
BRANCH  13  16
ATOM     16  C   UNL     1       1.182   9.468  19.232  0.00  0.00    +0.000 A 
ATOM     17  C   UNL     1       1.174   8.171  19.785  0.00  0.00    +0.000 A 
ATOM     18  C   UNL     1       2.088   7.261  19.308  0.00  0.00    +0.000 A 
ATOM     19  C   UNL     1       3.003   7.594  18.309  0.00  0.00    +0.000 A 
ATOM     20  C   UNL     1       3.041   8.857  17.756  0.00  0.00    +0.000 A 
ATOM     21  C   UNL     1       2.131   9.825  18.229  0.00  0.00    +0.000 A 
ATOM     22  C   UNL     1       2.199  11.209  17.640  0.00  0.00    +0.000 C 
ATOM     23  N   UNL     1       3.777   6.456  18.044  0.00  0.00    +0.000 N 
ATOM     24  C   UNL     1       4.850   6.346  17.105  0.00  0.00    +0.000 C 
ATOM     25  C   UNL     1       3.340   5.399  18.872  0.00  0.00    +0.000 A 
ATOM     26  O   UNL     1       3.791   4.262  18.903  0.00  0.00    +0.000 OA
ATOM     27  N   UNL     1       2.289   5.917  19.653  0.00  0.00    +0.000 N 
ATOM     28  C   UNL     1       1.529   5.187  20.623  0.00  0.00    +0.000 C 
ENDBRANCH  13  16
BRANCH   1  29
ATOM     29  N   UNL     1      -4.061  14.167  22.848  0.00  0.00    +0.000 N 
ATOM     30  H   UNL     1      -3.764  15.057  23.228  0.00  0.00    +0.000 HD
BRANCH  29  31
ATOM     31  C   UNL     1      -5.037  13.496  23.720  0.00  0.00    +0.000 C 
BRANCH  31  33
ATOM     32  C   UNL     1      -7.489  13.268  24.188  0.00  0.00    +0.000 C 
ATOM     33  C   UNL     1      -6.445  13.664  23.155  0.00  0.00    +0.000 C 
ENDBRANCH  31  33
ENDBRANCH  29  31
ENDBRANCH   1  29
TORSDOF 4
ENDMDL
MODEL 9
REMARK VINA RESULT:      -6.6      1.962      2.897
REMARK  Name = 
REMARK  8 active torsions:
REMARK  status: ('A' for Active; 'I' for Inactive)
REMARK    1  A    between atoms: C_1  and  C_2
REMARK    2  A    between atoms: C_2  and  C_3
REMARK    3  A    between atoms: C_3  and  N_4
REMARK    4  A    between atoms: N_4  and  C_5
REMARK    5  A    between atoms: N_17  and  C_18
REMARK    6  A    between atoms: C_23  and  C_24
REMARK    7  A    between atoms: N_25  and  C_26
REMARK    8  A    between atoms: N_29  and  C_30
REMARK                            x       y       z     vdW  Elec       q    Type
REMARK                         _______ _______ _______ _____ _____    ______ ____
ROOT
ATOM      1  C   UNL     1       3.629   4.655  19.715  0.00  0.00    +0.000 A 
ATOM      2  C   UNL     1       2.716   4.653  20.782  0.00  0.00    +0.000 A 
ATOM      3  C   UNL     1       1.801   5.683  20.962  0.00  0.00    +0.000 A 
ATOM      4  C   UNL     1       1.800   6.790  20.101  0.00  0.00    +0.000 A 
ATOM      5  C   UNL     1       2.716   6.851  19.045  0.00  0.00    +0.000 A 
ATOM      6  C   UNL     1       2.716   7.946  18.165  0.00  0.00    +0.000 A 
ATOM      7  C   UNL     1       3.637   8.036  17.114  0.00  0.00    +0.000 A 
ATOM      8  C   UNL     1       4.530   7.012  16.894  0.00  0.00    +0.000 A 
ATOM      9  C   UNL     1       4.495   5.887  17.716  0.00  0.00    +0.000 A 
ATOM     10  C   UNL     1       3.634   5.794  18.840  0.00  0.00    +0.000 A 
ATOM     11  C   UNL     1       1.747   9.042  18.332  0.00  0.00    +0.000 C 
ATOM     12  O   UNL     1       1.794   9.981  17.531  0.00  0.00    +0.000 OA
ATOM     13  N   UNL     1       0.836   8.935  19.384  0.00  0.00    +0.000 N 
ATOM     14  C   UNL     1       0.821   7.887  20.318  0.00  0.00    +0.000 C 
ATOM     15  O   UNL     1       0.097   7.835  21.307  0.00  0.00    +0.000 OA
ENDROOT
BRANCH  13  16
ATOM     16  C   UNL     1      -0.003  10.071  19.617  0.00  0.00    +0.000 A 
ATOM     17  C   UNL     1      -1.243  10.106  18.948  0.00  0.00    +0.000 A 
ATOM     18  C   UNL     1      -2.096  11.149  19.227  0.00  0.00    +0.000 A 
ATOM     19  C   UNL     1      -1.761  12.149  20.139  0.00  0.00    +0.000 A 
ATOM     20  C   UNL     1      -0.551  12.145  20.802  0.00  0.00    +0.000 A 
ATOM     21  C   UNL     1       0.360  11.103  20.533  0.00  0.00    +0.000 A 
ATOM     22  C   UNL     1       1.690  11.123  21.239  0.00  0.00    +0.000 C 
ATOM     23  N   UNL     1      -2.835  13.046  20.203  0.00  0.00    +0.000 N 
ATOM     24  C   UNL     1      -2.919  14.233  20.997  0.00  0.00    +0.000 C 
ATOM     25  C   UNL     1      -3.857  12.602  19.335  0.00  0.00    +0.000 A 
ATOM     26  O   UNL     1      -4.938  13.144  19.144  0.00  0.00    +0.000 OA
ATOM     27  N   UNL     1      -3.380  11.421  18.735  0.00  0.00    +0.000 N 
ATOM     28  C   UNL     1      -4.097  10.613  17.794  0.00  0.00    +0.000 C 
ENDBRANCH  13  16
BRANCH   1  29
ATOM     29  N   UNL     1       4.565   3.607  19.584  0.00  0.00    +0.000 N 
ATOM     30  H   UNL     1       5.273   3.793  18.885  0.00  0.00    +0.000 HD
BRANCH  29  31
ATOM     31  C   UNL     1       4.053   2.231  19.494  0.00  0.00    +0.000 C 
BRANCH  31  33
ATOM     32  C   UNL     1       1.835   2.038  18.341  0.00  0.00    +0.000 C 
ATOM     33  C   UNL     1       3.346   2.024  18.157  0.00  0.00    +0.000 C 
ENDBRANCH  31  33
ENDBRANCH  29  31
ENDBRANCH   1  29
TORSDOF 4
ENDMDL
