MODEL 1
REMARK VINA RESULT:      -8.1      0.000      0.000
REMARK  Name = 
REMARK  4 active torsions:
REMARK  status: ('A' for Active; 'I' for Inactive)
REMARK    1  A    between atoms: C_2  and  C_3
REMARK    2  A    between atoms: C_3  and  C_4
REMARK    3  A    between atoms: C_14  and  O_15
REMARK    4  A    between atoms: O_15  and  C_16
REMARK                            x       y       z     vdW  Elec       q    Type
REMARK                         _______ _______ _______ _____ _____    ______ ____
ROOT
ATOM      1  O   UNL     1      -1.300  12.715  21.997  0.00  0.00    +0.000 OA
ATOM      2  C   UNL     1      -1.007  11.947  21.077  0.00  0.00    +0.000 C 
ATOM      3  N   UNL     1      -0.506  10.687  21.318  0.00  0.00    +0.000 N 
ATOM      4  C   UNL     1      -0.401  10.153  22.663  0.00  0.00    +0.000 C 
ATOM      5  C   UNL     1       0.841   9.289  22.611  0.00  0.00    +0.000 C 
ATOM      6  C   UNL     1       0.756   8.662  21.216  0.00  0.00    +0.000 C 
ATOM      7  C   UNL     1       0.177   9.811  20.370  0.00  0.00    +0.000 C 
ENDROOT
BRANCH   2   8
ATOM      8  C   UNL     1      -1.248  12.359  19.634  0.00  0.00    +0.000 C 
BRANCH   8   9
ATOM      9  C   UNL     1      -2.508  11.809  19.005  0.00  0.00    +0.000 A 
ATOM     10  C   UNL     1      -2.398  10.803  18.026  0.00  0.00    +0.000 A 
ATOM     11  C   UNL     1      -3.529  10.298  17.379  0.00  0.00    +0.000 A 
ATOM     12  C   UNL     1      -4.793  10.786  17.700  0.00  0.00    +0.000 A 
ATOM     13  C   UNL     1      -4.922  11.785  18.661  0.00  0.00    +0.000 A 
ATOM     14  C   UNL     1      -3.791  12.301  19.304  0.00  0.00    +0.000 A 
ATOM     15 CL   UNL     1      -4.055  13.566  20.451  0.00  0.00    +0.000 Cl
ENDBRANCH   8   9
ENDBRANCH   2   8
BRANCH   6  16
ATOM     16  O   UNL     1       2.051   8.290  20.741  0.00  0.00    +0.000 OA
BRANCH  16  17
ATOM     17  C   UNL     1       2.077   7.088  20.058  0.00  0.00    +0.000 A 
ATOM     18  C   UNL     1       2.560   7.121  18.764  0.00  0.00    +0.000 A 
ATOM     19  C   UNL     1       2.527   5.944  18.023  0.00  0.00    +0.000 A 
ATOM     20  C   UNL     1       2.020   4.773  18.602  0.00  0.00    +0.000 A 
ATOM     21  C   UNL     1       1.934   3.559  17.891  0.00  0.00    +0.000 A 
ATOM     22  C   UNL     1       1.428   2.417  18.507  0.00  0.00    +0.000 A 
ATOM     23  C   UNL     1       1.015   2.476  19.832  0.00  0.00    +0.000 A 
ATOM     24  C   UNL     1       1.095   3.682  20.533  0.00  0.00    +0.000 A 
ATOM     25  C   UNL     1       1.584   4.836  19.943  0.00  0.00    +0.000 A 
ATOM     26  N   UNL     1       1.615   5.973  20.657  0.00  0.00    +0.000 NA
ENDBRANCH  16  17
ENDBRANCH   6  16
TORSDOF 4
ENDMDL
MODEL 2
REMARK VINA RESULT:      -8.0      1.124      1.595
REMARK  Name = 
REMARK  4 active torsions:
REMARK  status: ('A' for Active; 'I' for Inactive)
REMARK    1  A    between atoms: C_2  and  C_3
REMARK    2  A    between atoms: C_3  and  C_4
REMARK    3  A    between atoms: C_14  and  O_15
REMARK    4  A    between atoms: O_15  and  C_16
REMARK                            x       y       z     vdW  Elec       q    Type
REMARK                         _______ _______ _______ _____ _____    ______ ____
ROOT
ATOM      1  O   UNL     1      -0.898  12.501  23.152  0.00  0.00    +0.000 OA
ATOM      2  C   UNL     1      -0.762  11.994  22.034  0.00  0.00    +0.000 C 
ATOM      3  N   UNL     1      -0.314  10.701  21.877  0.00  0.00    +0.000 N 
ATOM      4  C   UNL     1      -0.086   9.829  23.014  0.00  0.00    +0.000 C 
ATOM      5  C   UNL     1       1.086   8.974  22.582  0.00  0.00    +0.000 C 
ATOM      6  C   UNL     1       0.801   8.740  21.096  0.00  0.00    +0.000 C 
ATOM      7  C   UNL     1       0.200  10.087  20.655  0.00  0.00    +0.000 C 
ENDROOT
BRANCH   2   8
ATOM      8  C   UNL     1      -1.142  12.779  20.790  0.00  0.00    +0.000 C 
BRANCH   8   9
ATOM      9  C   UNL     1      -2.560  12.574  20.305  0.00  0.00    +0.000 A 
ATOM     10  C   UNL     1      -3.627  12.881  21.172  0.00  0.00    +0.000 A 
ATOM     11  C   UNL     1      -4.953  12.661  20.789  0.00  0.00    +0.000 A 
ATOM     12  C   UNL     1      -5.240  12.134  19.534  0.00  0.00    +0.000 A 
ATOM     13  C   UNL     1      -4.198  11.819  18.665  0.00  0.00    +0.000 A 
ATOM     14  C   UNL     1      -2.868  12.027  19.047  0.00  0.00    +0.000 A 
ATOM     15 CL   UNL     1      -1.649  11.564  17.913  0.00  0.00    +0.000 Cl
ENDBRANCH   8   9
ENDBRANCH   2   8
BRANCH   6  16
ATOM     16  O   UNL     1       2.007   8.468  20.379  0.00  0.00    +0.000 OA
BRANCH  16  17
ATOM     17  C   UNL     1       2.065   7.200  19.833  0.00  0.00    +0.000 A 
ATOM     18  C   UNL     1       2.545   7.102  18.541  0.00  0.00    +0.000 A 
ATOM     19  C   UNL     1       2.543   5.849  17.935  0.00  0.00    +0.000 A 
ATOM     20  C   UNL     1       2.070   4.737  18.642  0.00  0.00    +0.000 A 
ATOM     21  C   UNL     1       2.018   3.449  18.070  0.00  0.00    +0.000 A 
ATOM     22  C   UNL     1       1.545   2.370  18.812  0.00  0.00    +0.000 A 
ATOM     23  C   UNL     1       1.133   2.564  20.124  0.00  0.00    +0.000 A 
ATOM     24  C   UNL     1       1.181   3.841  20.688  0.00  0.00    +0.000 A 
ATOM     25  C   UNL     1       1.636   4.936  19.970  0.00  0.00    +0.000 A 
ATOM     26  N   UNL     1       1.636   6.145  20.554  0.00  0.00    +0.000 NA
ENDBRANCH  16  17
ENDBRANCH   6  16
TORSDOF 4
ENDMDL
MODEL 3
REMARK VINA RESULT:      -7.8      3.514      8.648
REMARK  Name = 
REMARK  4 active torsions:
REMARK  status: ('A' for Active; 'I' for Inactive)
REMARK    1  A    between atoms: C_2  and  C_3
REMARK    2  A    between atoms: C_3  and  C_4
REMARK    3  A    between atoms: C_14  and  O_15
REMARK    4  A    between atoms: O_15  and  C_16
REMARK                            x       y       z     vdW  Elec       q    Type
REMARK                         _______ _______ _______ _____ _____    ______ ____
ROOT
ATOM      1  O   UNL     1       3.550   7.028  17.146  0.00  0.00    +0.000 OA
ATOM      2  C   UNL     1       3.053   7.039  18.276  0.00  0.00    +0.000 C 
ATOM      3  N   UNL     1       2.144   8.001  18.657  0.00  0.00    +0.000 N 
ATOM      4  C   UNL     1       1.636   8.984  17.718  0.00  0.00    +0.000 C 
ATOM      5  C   UNL     1       1.432  10.220  18.568  0.00  0.00    +0.000 C 
ATOM      6  C   UNL     1       0.918   9.638  19.888  0.00  0.00    +0.000 C 
ATOM      7  C   UNL     1       1.729   8.336  20.017  0.00  0.00    +0.000 C 
ENDROOT
BRANCH   2   8
ATOM      8  C   UNL     1       3.397   5.943  19.271  0.00  0.00    +0.000 C 
BRANCH   8   9
ATOM      9  C   UNL     1       2.609   4.661  19.119  0.00  0.00    +0.000 A 
ATOM     10  C   UNL     1       1.545   4.407  20.006  0.00  0.00    +0.000 A 
ATOM     11  C   UNL     1       0.820   3.214  19.940  0.00  0.00    +0.000 A 
ATOM     12  C   UNL     1       1.141   2.253  18.985  0.00  0.00    +0.000 A 
ATOM     13  C   UNL     1       2.195   2.484  18.103  0.00  0.00    +0.000 A 
ATOM     14  C   UNL     1       2.930   3.672  18.173  0.00  0.00    +0.000 A 
ATOM     15 CL   UNL     1       4.242   3.843  17.061  0.00  0.00    +0.000 Cl
ENDBRANCH   8   9
ENDBRANCH   2   8
BRANCH   6  16
ATOM     16  O   UNL     1       1.200  10.516  20.980  0.00  0.00    +0.000 OA
BRANCH  16  17
ATOM     17  C   UNL     1       0.076  11.072  21.562  0.00  0.00    +0.000 A 
ATOM     18  C   UNL     1      -0.421  10.435  22.682  0.00  0.00    +0.000 A 
ATOM     19  C   UNL     1      -1.596  10.923  23.246  0.00  0.00    +0.000 A 
ATOM     20  C   UNL     1      -2.230  12.035  22.676  0.00  0.00    +0.000 A 
ATOM     21  C   UNL     1      -3.436  12.556  23.185  0.00  0.00    +0.000 A 
ATOM     22  C   UNL     1      -4.030  13.666  22.590  0.00  0.00    +0.000 A 
ATOM     23  C   UNL     1      -3.421  14.268  21.495  0.00  0.00    +0.000 A 
ATOM     24  C   UNL     1      -2.228  13.747  20.989  0.00  0.00    +0.000 A 
ATOM     25  C   UNL     1      -1.621  12.637  21.553  0.00  0.00    +0.000 A 
ATOM     26  N   UNL     1      -0.488  12.164  21.009  0.00  0.00    +0.000 NA
ENDBRANCH  16  17
ENDBRANCH   6  16
TORSDOF 4
ENDMDL
MODEL 4
REMARK VINA RESULT:      -7.7      6.836      9.533
REMARK  Name = 
REMARK  4 active torsions:
REMARK  status: ('A' for Active; 'I' for Inactive)
REMARK    1  A    between atoms: C_2  and  C_3
REMARK    2  A    between atoms: C_3  and  C_4
REMARK    3  A    between atoms: C_14  and  O_15
REMARK    4  A    between atoms: O_15  and  C_16
REMARK                            x       y       z     vdW  Elec       q    Type
REMARK                         _______ _______ _______ _____ _____    ______ ____
ROOT
ATOM      1  O   UNL     1       8.064  10.748  17.759  0.00  0.00    +0.000 OA
ATOM      2  C   UNL     1       8.560   9.795  18.366  0.00  0.00    +0.000 C 
ATOM      3  N   UNL     1       8.175   8.497  18.114  0.00  0.00    +0.000 N 
ATOM      4  C   UNL     1       7.251   8.170  17.044  0.00  0.00    +0.000 C 
ATOM      5  C   UNL     1       6.480   6.985  17.586  0.00  0.00    +0.000 C 
ATOM      6  C   UNL     1       7.556   6.202  18.343  0.00  0.00    +0.000 C 
ATOM      7  C   UNL     1       8.418   7.324  18.950  0.00  0.00    +0.000 C 
ENDROOT
BRANCH   2   8
ATOM      8  C   UNL     1       9.663  10.031  19.384  0.00  0.00    +0.000 C 
BRANCH   8   9
ATOM      9  C   UNL     1      10.393  11.348  19.253  0.00  0.00    +0.000 A 
ATOM     10  C   UNL     1      11.213  11.563  18.128  0.00  0.00    +0.000 A 
ATOM     11  C   UNL     1      11.949  12.743  17.987  0.00  0.00    +0.000 A 
ATOM     12  C   UNL     1      11.877  13.732  18.963  0.00  0.00    +0.000 A 
ATOM     13  C   UNL     1      11.077  13.535  20.086  0.00  0.00    +0.000 A 
ATOM     14  C   UNL     1      10.348  12.351  20.237  0.00  0.00    +0.000 A 
ATOM     15 CL   UNL     1       9.418  12.188  21.685  0.00  0.00    +0.000 Cl
ENDBRANCH   8   9
ENDBRANCH   2   8
BRANCH   6  16
ATOM     16  O   UNL     1       6.976   5.400  19.374  0.00  0.00    +0.000 OA
BRANCH  16  17
ATOM     17  C   UNL     1       5.765   4.829  19.031  0.00  0.00    +0.000 A 
ATOM     18  C   UNL     1       5.709   4.178  17.813  0.00  0.00    +0.000 A 
ATOM     19  C   UNL     1       4.484   3.661  17.403  0.00  0.00    +0.000 A 
ATOM     20  C   UNL     1       3.360   3.803  18.226  0.00  0.00    +0.000 A 
ATOM     21  C   UNL     1       2.088   3.325  17.850  0.00  0.00    +0.000 A 
ATOM     22  C   UNL     1       0.998   3.483  18.702  0.00  0.00    +0.000 A 
ATOM     23  C   UNL     1       1.170   4.108  19.931  0.00  0.00    +0.000 A 
ATOM     24  C   UNL     1       2.430   4.585  20.299  0.00  0.00    +0.000 A 
ATOM     25  C   UNL     1       3.530   4.452  19.468  0.00  0.00    +0.000 A 
ATOM     26  N   UNL     1       4.712   4.953  19.862  0.00  0.00    +0.000 NA
ENDBRANCH  16  17
ENDBRANCH   6  16
TORSDOF 4
ENDMDL
MODEL 5
REMARK VINA RESULT:      -7.6      3.609      9.035
REMARK  Name = 
REMARK  4 active torsions:
REMARK  status: ('A' for Active; 'I' for Inactive)
REMARK    1  A    between atoms: C_2  and  C_3
REMARK    2  A    between atoms: C_3  and  C_4
REMARK    3  A    between atoms: C_14  and  O_15
REMARK    4  A    between atoms: O_15  and  C_16
REMARK                            x       y       z     vdW  Elec       q    Type
REMARK                         _______ _______ _______ _____ _____    ______ ____
ROOT
ATOM      1  O   UNL     1       2.164   8.635  17.308  0.00  0.00    +0.000 OA
ATOM      2  C   UNL     1       1.915   8.485  18.507  0.00  0.00    +0.000 C 
ATOM      3  N   UNL     1       1.038   9.312  19.173  0.00  0.00    +0.000 N 
ATOM      4  C   UNL     1       0.273  10.330  18.477  0.00  0.00    +0.000 C 
ATOM      5  C   UNL     1       0.160  11.449  19.490  0.00  0.00    +0.000 C 
ATOM      6  C   UNL     1      -0.021  10.692  20.809  0.00  0.00    +0.000 C 
ATOM      7  C   UNL     1       0.893   9.468  20.618  0.00  0.00    +0.000 C 
ENDROOT
BRANCH   2   8
ATOM      8  C   UNL     1       2.541   7.334  19.278  0.00  0.00    +0.000 C 
BRANCH   8   9
ATOM      9  C   UNL     1       2.690   6.043  18.504  0.00  0.00    +0.000 A 
ATOM     10  C   UNL     1       1.705   5.047  18.645  0.00  0.00    +0.000 A 
ATOM     11  C   UNL     1       1.823   3.817  17.991  0.00  0.00    +0.000 A 
ATOM     12  C   UNL     1       2.926   3.560  17.182  0.00  0.00    +0.000 A 
ATOM     13  C   UNL     1       3.914   4.530  17.036  0.00  0.00    +0.000 A 
ATOM     14  C   UNL     1       3.805   5.759  17.696  0.00  0.00    +0.000 A 
ATOM     15 CL   UNL     1       5.105   6.878  17.481  0.00  0.00    +0.000 Cl
ENDBRANCH   8   9
ENDBRANCH   2   8
BRANCH   6  16
ATOM     16  O   UNL     1       0.418  11.480  21.917  0.00  0.00    +0.000 OA
BRANCH  16  17
ATOM     17  C   UNL     1      -0.601  12.138  22.579  0.00  0.00    +0.000 A 
ATOM     18  C   UNL     1      -1.822  11.493  22.638  0.00  0.00    +0.000 A 
ATOM     19  C   UNL     1      -2.888  12.163  23.229  0.00  0.00    +0.000 A 
ATOM     20  C   UNL     1      -2.698  13.450  23.749  0.00  0.00    +0.000 A 
ATOM     21  C   UNL     1      -3.748  14.187  24.333  0.00  0.00    +0.000 A 
ATOM     22  C   UNL     1      -3.513  15.462  24.842  0.00  0.00    +0.000 A 
ATOM     23  C   UNL     1      -2.235  16.003  24.781  0.00  0.00    +0.000 A 
ATOM     24  C   UNL     1      -1.197  15.272  24.197  0.00  0.00    +0.000 A 
ATOM     25  C   UNL     1      -1.404  14.007  23.673  0.00  0.00    +0.000 A 
ATOM     26  N   UNL     1      -0.375  13.361  23.100  0.00  0.00    +0.000 NA
ENDBRANCH  16  17
ENDBRANCH   6  16
TORSDOF 4
ENDMDL
MODEL 6
REMARK VINA RESULT:      -7.6      6.897      9.227
REMARK  Name = 
REMARK  4 active torsions:
REMARK  status: ('A' for Active; 'I' for Inactive)
REMARK    1  A    between atoms: C_2  and  C_3
REMARK    2  A    between atoms: C_3  and  C_4
REMARK    3  A    between atoms: C_14  and  O_15
REMARK    4  A    between atoms: O_15  and  C_16
REMARK                            x       y       z     vdW  Elec       q    Type
REMARK                         _______ _______ _______ _____ _____    ______ ____
ROOT
ATOM      1  O   UNL     1       7.883  10.566  17.696  0.00  0.00    +0.000 OA
ATOM      2  C   UNL     1       8.409   9.577  18.215  0.00  0.00    +0.000 C 
ATOM      3  N   UNL     1       7.945   8.303  17.977  0.00  0.00    +0.000 N 
ATOM      4  C   UNL     1       6.889   8.042  17.017  0.00  0.00    +0.000 C 
ATOM      5  C   UNL     1       6.140   6.871  17.616  0.00  0.00    +0.000 C 
ATOM      6  C   UNL     1       7.265   6.026  18.220  0.00  0.00    +0.000 C 
ATOM      7  C   UNL     1       8.238   7.097  18.748  0.00  0.00    +0.000 C 
ENDROOT
BRANCH   2   8
ATOM      8  C   UNL     1       9.633   9.741  19.101  0.00  0.00    +0.000 C 
BRANCH   8   9
ATOM      9  C   UNL     1       9.780  11.096  19.756  0.00  0.00    +0.000 A 
ATOM     10  C   UNL     1       9.165  11.320  21.003  0.00  0.00    +0.000 A 
ATOM     11  C   UNL     1       9.228  12.570  21.625  0.00  0.00    +0.000 A 
ATOM     12  C   UNL     1       9.909  13.620  21.015  0.00  0.00    +0.000 A 
ATOM     13  C   UNL     1      10.518  13.420  19.779  0.00  0.00    +0.000 A 
ATOM     14  C   UNL     1      10.449  12.173  19.148  0.00  0.00    +0.000 A 
ATOM     15 CL   UNL     1      11.203  12.041  17.598  0.00  0.00    +0.000 Cl
ENDBRANCH   8   9
ENDBRANCH   2   8
BRANCH   6  16
ATOM     16  O   UNL     1       6.779   5.216  19.291  0.00  0.00    +0.000 OA
BRANCH  16  17
ATOM     17  C   UNL     1       5.543   4.647  19.052  0.00  0.00    +0.000 A 
ATOM     18  C   UNL     1       5.399   3.952  17.866  0.00  0.00    +0.000 A 
ATOM     19  C   UNL     1       4.144   3.434  17.559  0.00  0.00    +0.000 A 
ATOM     20  C   UNL     1       3.079   3.620  18.450  0.00  0.00    +0.000 A 
ATOM     21  C   UNL     1       1.780   3.143  18.180  0.00  0.00    +0.000 A 
ATOM     22  C   UNL     1       0.752   3.347  19.096  0.00  0.00    +0.000 A 
ATOM     23  C   UNL     1       1.012   4.015  20.286  0.00  0.00    +0.000 A 
ATOM     24  C   UNL     1       2.298   4.490  20.550  0.00  0.00    +0.000 A 
ATOM     25  C   UNL     1       3.338   4.313  19.652  0.00  0.00    +0.000 A 
ATOM     26  N   UNL     1       4.549   4.814  19.947  0.00  0.00    +0.000 NA
ENDBRANCH  16  17
ENDBRANCH   6  16
TORSDOF 4
ENDMDL
MODEL 7
REMARK VINA RESULT:      -7.6      3.298      8.520
REMARK  Name = 
REMARK  4 active torsions:
REMARK  status: ('A' for Active; 'I' for Inactive)
REMARK    1  A    between atoms: C_2  and  C_3
REMARK    2  A    between atoms: C_3  and  C_4
REMARK    3  A    between atoms: C_14  and  O_15
REMARK    4  A    between atoms: O_15  and  C_16
REMARK                            x       y       z     vdW  Elec       q    Type
REMARK                         _______ _______ _______ _____ _____    ______ ____
ROOT
ATOM      1  O   UNL     1       4.158   6.902  17.403  0.00  0.00    +0.000 OA
ATOM      2  C   UNL     1       3.414   6.900  18.388  0.00  0.00    +0.000 C 
ATOM      3  N   UNL     1       2.432   7.851  18.554  0.00  0.00    +0.000 N 
ATOM      4  C   UNL     1       2.144   8.837  17.529  0.00  0.00    +0.000 C 
ATOM      5  C   UNL     1       1.736  10.064  18.316  0.00  0.00    +0.000 C 
ATOM      6  C   UNL     1       0.938   9.468  19.478  0.00  0.00    +0.000 C 
ATOM      7  C   UNL     1       1.711   8.172  19.784  0.00  0.00    +0.000 C 
ENDROOT
BRANCH   2   8
ATOM      8  C   UNL     1       3.530   5.799  19.430  0.00  0.00    +0.000 C 
BRANCH   8   9
ATOM      9  C   UNL     1       2.637   4.600  19.206  0.00  0.00    +0.000 A 
ATOM     10  C   UNL     1       1.500   4.436  20.021  0.00  0.00    +0.000 A 
ATOM     11  C   UNL     1       0.672   3.318  19.889  0.00  0.00    +0.000 A 
ATOM     12  C   UNL     1       0.961   2.344  18.938  0.00  0.00    +0.000 A 
ATOM     13  C   UNL     1       2.085   2.485  18.127  0.00  0.00    +0.000 A 
ATOM     14  C   UNL     1       2.922   3.597  18.263  0.00  0.00    +0.000 A 
ATOM     15 CL   UNL     1       4.312   3.657  17.238  0.00  0.00    +0.000 Cl
ENDBRANCH   8   9
ENDBRANCH   2   8
BRANCH   6  16
ATOM     16  O   UNL     1       0.951  10.340  20.610  0.00  0.00    +0.000 OA
BRANCH  16  17
ATOM     17  C   UNL     1      -0.240  11.008  20.822  0.00  0.00    +0.000 A 
ATOM     18  C   UNL     1      -0.813  11.619  19.723  0.00  0.00    +0.000 A 
ATOM     19  C   UNL     1      -1.971  12.365  19.919  0.00  0.00    +0.000 A 
ATOM     20  C   UNL     1      -2.522  12.468  21.203  0.00  0.00    +0.000 A 
ATOM     21  C   UNL     1      -3.677  13.232  21.466  0.00  0.00    +0.000 A 
ATOM     22  C   UNL     1      -4.194  13.304  22.757  0.00  0.00    +0.000 A 
ATOM     23  C   UNL     1      -3.572  12.608  23.786  0.00  0.00    +0.000 A 
ATOM     24  C   UNL     1      -2.425  11.855  23.525  0.00  0.00    +0.000 A 
ATOM     25  C   UNL     1      -1.882  11.776  22.252  0.00  0.00    +0.000 A 
ATOM     26  N   UNL     1      -0.762  11.058  22.064  0.00  0.00    +0.000 NA
ENDBRANCH  16  17
ENDBRANCH   6  16
TORSDOF 4
ENDMDL
MODEL 8
REMARK VINA RESULT:      -7.6      6.754      9.374
REMARK  Name = 
REMARK  4 active torsions:
REMARK  status: ('A' for Active; 'I' for Inactive)
REMARK    1  A    between atoms: C_2  and  C_3
REMARK    2  A    between atoms: C_3  and  C_4
REMARK    3  A    between atoms: C_14  and  O_15
REMARK    4  A    between atoms: O_15  and  C_16
REMARK                            x       y       z     vdW  Elec       q    Type
REMARK                         _______ _______ _______ _____ _____    ______ ____
ROOT
ATOM      1  O   UNL     1       7.920  10.319  17.525  0.00  0.00    +0.000 OA
ATOM      2  C   UNL     1       8.402   9.426  18.228  0.00  0.00    +0.000 C 
ATOM      3  N   UNL     1       8.060   8.104  18.053  0.00  0.00    +0.000 N 
ATOM      4  C   UNL     1       7.205   7.675  16.962  0.00  0.00    +0.000 C 
ATOM      5  C   UNL     1       6.431   6.514  17.548  0.00  0.00    +0.000 C 
ATOM      6  C   UNL     1       7.479   5.817  18.420  0.00  0.00    +0.000 C 
ATOM      7  C   UNL     1       8.281   7.003  18.988  0.00  0.00    +0.000 C 
ENDROOT
BRANCH   2   8
ATOM      8  C   UNL     1       9.440   9.766  19.285  0.00  0.00    +0.000 C 
BRANCH   8   9
ATOM      9  C   UNL     1      10.086  11.125  19.144  0.00  0.00    +0.000 A 
ATOM     10  C   UNL     1      10.937  11.364  18.048  0.00  0.00    +0.000 A 
ATOM     11  C   UNL     1      11.598  12.587  17.901  0.00  0.00    +0.000 A 
ATOM     12  C   UNL     1      11.420  13.595  18.843  0.00  0.00    +0.000 A 
ATOM     13  C   UNL     1      10.587  13.376  19.937  0.00  0.00    +0.000 A 
ATOM     14  C   UNL     1       9.931  12.150  20.095  0.00  0.00    +0.000 A 
ATOM     15 CL   UNL     1       8.953  11.964  21.507  0.00  0.00    +0.000 Cl
ENDBRANCH   8   9
ENDBRANCH   2   8
BRANCH   6  16
ATOM     16  O   UNL     1       6.859   5.079  19.475  0.00  0.00    +0.000 OA
BRANCH  16  17
ATOM     17  C   UNL     1       5.521   4.806  19.262  0.00  0.00    +0.000 A 
ATOM     18  C   UNL     1       4.633   5.838  19.497  0.00  0.00    +0.000 A 
ATOM     19  C   UNL     1       3.273   5.573  19.367  0.00  0.00    +0.000 A 
ATOM     20  C   UNL     1       2.847   4.291  18.999  0.00  0.00    +0.000 A 
ATOM     21  C   UNL     1       1.483   3.957  18.880  0.00  0.00    +0.000 A 
ATOM     22  C   UNL     1       1.104   2.670  18.507  0.00  0.00    +0.000 A 
ATOM     23  C   UNL     1       2.078   1.715  18.242  0.00  0.00    +0.000 A 
ATOM     24  C   UNL     1       3.429   2.047  18.365  0.00  0.00    +0.000 A 
ATOM     25  C   UNL     1       3.835   3.316  18.745  0.00  0.00    +0.000 A 
ATOM     26  N   UNL     1       5.148   3.571  18.873  0.00  0.00    +0.000 NA
ENDBRANCH  16  17
ENDBRANCH   6  16
TORSDOF 4
ENDMDL
MODEL 9
REMARK VINA RESULT:      -7.4      4.636      7.004
REMARK  Name = 
REMARK  4 active torsions:
REMARK  status: ('A' for Active; 'I' for Inactive)
REMARK    1  A    between atoms: C_2  and  C_3
REMARK    2  A    between atoms: C_3  and  C_4
REMARK    3  A    between atoms: C_14  and  O_15
REMARK    4  A    between atoms: O_15  and  C_16
REMARK                            x       y       z     vdW  Elec       q    Type
REMARK                         _______ _______ _______ _____ _____    ______ ____
ROOT
ATOM      1  O   UNL     1       0.676   5.215  20.748  0.00  0.00    +0.000 OA
ATOM      2  C   UNL     1       1.666   5.672  20.169  0.00  0.00    +0.000 C 
ATOM      3  N   UNL     1       2.211   5.052  19.067  0.00  0.00    +0.000 N 
ATOM      4  C   UNL     1       1.585   3.893  18.458  0.00  0.00    +0.000 C 
ATOM      5  C   UNL     1       2.756   3.076  17.955  0.00  0.00    +0.000 C 
ATOM      6  C   UNL     1       3.727   4.150  17.458  0.00  0.00    +0.000 C 
ATOM      7  C   UNL     1       3.533   5.277  18.489  0.00  0.00    +0.000 C 
ENDROOT
BRANCH   2   8
ATOM      8  C   UNL     1       2.285   6.980  20.635  0.00  0.00    +0.000 C 
BRANCH   8   9
ATOM      9  C   UNL     1       1.415   8.205  20.462  0.00  0.00    +0.000 A 
ATOM     10  C   UNL     1       0.565   8.591  21.517  0.00  0.00    +0.000 A 
ATOM     11  C   UNL     1      -0.295   9.685  21.386  0.00  0.00    +0.000 A 
ATOM     12  C   UNL     1      -0.322  10.415  20.202  0.00  0.00    +0.000 A 
ATOM     13  C   UNL     1       0.506  10.044  19.145  0.00  0.00    +0.000 A 
ATOM     14  C   UNL     1       1.361   8.944  19.267  0.00  0.00    +0.000 A 
ATOM     15 CL   UNL     1       2.317   8.542  17.884  0.00  0.00    +0.000 Cl
ENDBRANCH   8   9
ENDBRANCH   2   8
BRANCH   6  16
ATOM     16  O   UNL     1       5.074   3.674  17.480  0.00  0.00    +0.000 OA
BRANCH  16  17
ATOM     17  C   UNL     1       5.815   4.026  16.368  0.00  0.00    +0.000 A 
ATOM     18  C   UNL     1       6.829   4.945  16.563  0.00  0.00    +0.000 A 
ATOM     19  C   UNL     1       7.542   5.379  15.450  0.00  0.00    +0.000 A 
ATOM     20  C   UNL     1       7.225   4.875  14.182  0.00  0.00    +0.000 A 
ATOM     21  C   UNL     1       7.893   5.299  13.015  0.00  0.00    +0.000 A 
ATOM     22  C   UNL     1       7.549   4.768  11.775  0.00  0.00    +0.000 A 
ATOM     23  C   UNL     1       6.547   3.808  11.691  0.00  0.00    +0.000 A 
ATOM     24  C   UNL     1       5.883   3.393  12.848  0.00  0.00    +0.000 A 
ATOM     25  C   UNL     1       6.196   3.912  14.093  0.00  0.00    +0.000 A 
ATOM     26  N   UNL     1       5.507   3.495  15.168  0.00  0.00    +0.000 NA
ENDBRANCH  16  17
ENDBRANCH   6  16
TORSDOF 4
ENDMDL
