MODEL 1
REMARK VINA RESULT:      -7.7      0.000      0.000
REMARK  Name = 
REMARK  4 active torsions:
REMARK  status: ('A' for Active; 'I' for Inactive)
REMARK    1  A    between atoms: C_2  and  N_3
REMARK    2  A    between atoms: C_2  and  N_10
REMARK    3  A    between atoms: N_3  and  C_4
REMARK    4  A    between atoms: N_10  and  C_11
REMARK                            x       y       z     vdW  Elec       q    Type
REMARK                         _______ _______ _______ _____ _____    ______ ____
ROOT
ATOM      1  N   UNL     1       4.639   3.119  16.852  0.00  0.00    +0.000 N 
ATOM      2  H   UNL     1       4.814   2.255  16.348  0.00  0.00    +0.000 HD
ENDROOT
BRANCH   1   3
ATOM      3  C   UNL     1       3.748   3.015  17.945  0.00  0.00    +0.000 A 
ATOM      4  C   UNL     1       2.369   3.300  17.637  0.00  0.00    +0.000 A 
ATOM      5  C   UNL     1       1.316   3.316  18.579  0.00  0.00    +0.000 A 
ATOM      6  C   UNL     1       1.793   3.026  19.846  0.00  0.00    +0.000 A 
ATOM      7  C   UNL     1       1.041   2.967  20.985  0.00  0.00    +0.000 A 
ATOM      8  N   UNL     1       1.937   2.666  21.971  0.00  0.00    +0.000 N 
ATOM      9  N   UNL     1       3.208   2.530  21.547  0.00  0.00    +0.000 NA
ATOM     10  C   UNL     1       3.154   2.745  20.221  0.00  0.00    +0.000 A 
ATOM     11  C   UNL     1       4.182   2.738  19.262  0.00  0.00    +0.000 A 
ATOM     12  H   UNL     1       1.749   2.540  22.961  0.00  0.00    +0.000 HD
ENDBRANCH   1   3
BRANCH   1  14
ATOM     13  S   UNL     1       5.872   3.919  14.713  0.00  0.00    +0.000 S 
ATOM     14  C   UNL     1       5.141   4.211  16.196  0.00  0.00    +0.000 C 
BRANCH  14  15
ATOM     15  N   UNL     1       5.121   5.402  16.873  0.00  0.00    +0.000 N 
ATOM     16  H   UNL     1       4.189   5.732  17.089  0.00  0.00    +0.000 HD
BRANCH  15  17
ATOM     17  C   UNL     1       6.184   6.042  17.544  0.00  0.00    +0.000 A 
ATOM     18  C   UNL     1       6.855   5.441  18.610  0.00  0.00    +0.000 A 
ATOM     19  C   UNL     1       7.942   6.078  19.213  0.00  0.00    +0.000 A 
ATOM     20  C   UNL     1       8.362   7.323  18.750  0.00  0.00    +0.000 A 
ATOM     21  C   UNL     1       7.708   7.923  17.677  0.00  0.00    +0.000 A 
ATOM     22  C   UNL     1       6.633   7.276  17.061  0.00  0.00    +0.000 A 
ENDBRANCH  15  17
ENDBRANCH  14  15
ENDBRANCH   1  14
TORSDOF 4
ENDMDL
MODEL 2
REMARK VINA RESULT:      -7.4      0.170      1.119
REMARK  Name = 
REMARK  4 active torsions:
REMARK  status: ('A' for Active; 'I' for Inactive)
REMARK    1  A    between atoms: C_2  and  N_3
REMARK    2  A    between atoms: C_2  and  N_10
REMARK    3  A    between atoms: N_3  and  C_4
REMARK    4  A    between atoms: N_10  and  C_11
REMARK                            x       y       z     vdW  Elec       q    Type
REMARK                         _______ _______ _______ _____ _____    ______ ____
ROOT
ATOM      1  N   UNL     1       4.394   3.167  16.725  0.00  0.00    +0.000 N 
ATOM      2  H   UNL     1       4.270   2.439  16.027  0.00  0.00    +0.000 HD
ENDROOT
BRANCH   1   3
ATOM      3  C   UNL     1       3.599   3.037  17.888  0.00  0.00    +0.000 A 
ATOM      4  C   UNL     1       2.204   3.354  17.712  0.00  0.00    +0.000 A 
ATOM      5  C   UNL     1       1.237   3.351  18.743  0.00  0.00    +0.000 A 
ATOM      6  C   UNL     1       1.818   3.007  19.952  0.00  0.00    +0.000 A 
ATOM      7  C   UNL     1       1.168   2.917  21.150  0.00  0.00    +0.000 A 
ATOM      8  N   UNL     1       2.140   2.566  22.042  0.00  0.00    +0.000 N 
ATOM      9  N   UNL     1       3.366   2.426  21.504  0.00  0.00    +0.000 NA
ATOM     10  C   UNL     1       3.201   2.691  20.197  0.00  0.00    +0.000 A 
ATOM     11  C   UNL     1       4.141   2.704  19.150  0.00  0.00    +0.000 A 
ATOM     12  H   UNL     1       2.037   2.406  23.040  0.00  0.00    +0.000 HD
ENDBRANCH   1   3
BRANCH   1  14
ATOM     13  S   UNL     1       6.096   3.902  14.910  0.00  0.00    +0.000 S 
ATOM     14  C   UNL     1       5.139   4.214  16.253  0.00  0.00    +0.000 C 
BRANCH  14  15
ATOM     15  N   UNL     1       5.135   5.362  17.000  0.00  0.00    +0.000 N 
ATOM     16  H   UNL     1       4.232   5.588  17.396  0.00  0.00    +0.000 HD
BRANCH  15  17
ATOM     17  C   UNL     1       6.241   6.069  17.518  0.00  0.00    +0.000 A 
ATOM     18  C   UNL     1       6.600   7.332  17.043  0.00  0.00    +0.000 A 
ATOM     19  C   UNL     1       7.663   8.030  17.619  0.00  0.00    +0.000 A 
ATOM     20  C   UNL     1       8.374   7.465  18.675  0.00  0.00    +0.000 A 
ATOM     21  C   UNL     1       8.013   6.213  19.166  0.00  0.00    +0.000 A 
ATOM     22  C   UNL     1       6.935   5.523  18.603  0.00  0.00    +0.000 A 
ENDBRANCH  15  17
ENDBRANCH  14  15
ENDBRANCH   1  14
TORSDOF 4
ENDMDL
MODEL 3
REMARK VINA RESULT:      -7.4      3.679      5.742
REMARK  Name = 
REMARK  4 active torsions:
REMARK  status: ('A' for Active; 'I' for Inactive)
REMARK    1  A    between atoms: C_2  and  N_3
REMARK    2  A    between atoms: C_2  and  N_10
REMARK    3  A    between atoms: N_3  and  C_4
REMARK    4  A    between atoms: N_10  and  C_11
REMARK                            x       y       z     vdW  Elec       q    Type
REMARK                         _______ _______ _______ _____ _____    ______ ____
ROOT
ATOM      1  N   UNL     1       3.687   4.256  19.784  0.00  0.00    +0.000 N 
ATOM      2  H   UNL     1       4.161   3.712  20.497  0.00  0.00    +0.000 HD
ENDROOT
BRANCH   1   3
ATOM      3  C   UNL     1       4.436   4.503  18.609  0.00  0.00    +0.000 A 
ATOM      4  C   UNL     1       3.908   3.900  17.411  0.00  0.00    +0.000 A 
ATOM      5  C   UNL     1       4.518   3.963  16.138  0.00  0.00    +0.000 A 
ATOM      6  C   UNL     1       5.701   4.682  16.200  0.00  0.00    +0.000 A 
ATOM      7  C   UNL     1       6.540   4.925  15.151  0.00  0.00    +0.000 A 
ATOM      8  N   UNL     1       7.564   5.649  15.692  0.00  0.00    +0.000 N 
ATOM      9  N   UNL     1       7.443   5.885  17.012  0.00  0.00    +0.000 NA
ATOM     10  C   UNL     1       6.286   5.296  17.362  0.00  0.00    +0.000 A 
ATOM     11  C   UNL     1       5.657   5.215  18.618  0.00  0.00    +0.000 A 
ATOM     12  H   UNL     1       8.383   6.014  15.216  0.00  0.00    +0.000 HD
ENDBRANCH   1   3
BRANCH   1  14
ATOM     13  S   UNL     1       1.151   3.835  20.137  0.00  0.00    +0.000 S 
ATOM     14  C   UNL     1       2.518   4.803  20.242  0.00  0.00    +0.000 C 
BRANCH  14  15
ATOM     15  N   UNL     1       2.555   6.123  20.607  0.00  0.00    +0.000 N 
ATOM     16  H   UNL     1       3.119   6.303  21.428  0.00  0.00    +0.000 HD
BRANCH  15  17
ATOM     17  C   UNL     1       2.178   7.250  19.847  0.00  0.00    +0.000 A 
ATOM     18  C   UNL     1       2.501   7.371  18.494  0.00  0.00    +0.000 A 
ATOM     19  C   UNL     1       2.060   8.471  17.756  0.00  0.00    +0.000 A 
ATOM     20  C   UNL     1       1.294   9.459  18.372  0.00  0.00    +0.000 A 
ATOM     21  C   UNL     1       0.955   9.339  19.717  0.00  0.00    +0.000 A 
ATOM     22  C   UNL     1       1.379   8.226  20.450  0.00  0.00    +0.000 A 
ENDBRANCH  15  17
ENDBRANCH  14  15
ENDBRANCH   1  14
TORSDOF 4
ENDMDL
MODEL 4
REMARK VINA RESULT:      -7.4      3.710      5.733
REMARK  Name = 
REMARK  4 active torsions:
REMARK  status: ('A' for Active; 'I' for Inactive)
REMARK    1  A    between atoms: C_2  and  N_3
REMARK    2  A    between atoms: C_2  and  N_10
REMARK    3  A    between atoms: N_3  and  C_4
REMARK    4  A    between atoms: N_10  and  C_11
REMARK                            x       y       z     vdW  Elec       q    Type
REMARK                         _______ _______ _______ _____ _____    ______ ____
ROOT
ATOM      1  N   UNL     1       3.645   4.129  19.588  0.00  0.00    +0.000 N 
ATOM      2  H   UNL     1       4.015   3.412  20.204  0.00  0.00    +0.000 HD
ENDROOT
BRANCH   1   3
ATOM      3  C   UNL     1       4.419   4.400  18.435  0.00  0.00    +0.000 A 
ATOM      4  C   UNL     1       3.967   3.749  17.230  0.00  0.00    +0.000 A 
ATOM      5  C   UNL     1       4.615   3.826  15.977  0.00  0.00    +0.000 A 
ATOM      6  C   UNL     1       5.753   4.610  16.066  0.00  0.00    +0.000 A 
ATOM      7  C   UNL     1       6.613   4.884  15.041  0.00  0.00    +0.000 A 
ATOM      8  N   UNL     1       7.576   5.673  15.603  0.00  0.00    +0.000 N 
ATOM      9  N   UNL     1       7.397   5.923  16.913  0.00  0.00    +0.000 NA
ATOM     10  C   UNL     1       6.264   5.276  17.236  0.00  0.00    +0.000 A 
ATOM     11  C   UNL     1       5.597   5.180  18.471  0.00  0.00    +0.000 A 
ATOM     12  H   UNL     1       8.390   6.076  15.148  0.00  0.00    +0.000 HD
ENDBRANCH   1   3
BRANCH   1  14
ATOM     13  S   UNL     1       1.155   3.972  20.299  0.00  0.00    +0.000 S 
ATOM     14  C   UNL     1       2.602   4.811  20.156  0.00  0.00    +0.000 C 
BRANCH  14  15
ATOM     15  N   UNL     1       2.802   6.140  20.420  0.00  0.00    +0.000 N 
ATOM     16  H   UNL     1       3.612   6.323  20.999  0.00  0.00    +0.000 HD
BRANCH  15  17
ATOM     17  C   UNL     1       2.232   7.254  19.769  0.00  0.00    +0.000 A 
ATOM     18  C   UNL     1       1.487   8.213  20.459  0.00  0.00    +0.000 A 
ATOM     19  C   UNL     1       0.989   9.335  19.795  0.00  0.00    +0.000 A 
ATOM     20  C   UNL     1       1.233   9.503  18.433  0.00  0.00    +0.000 A 
ATOM     21  C   UNL     1       1.988   8.560  17.741  0.00  0.00    +0.000 A 
ATOM     22  C   UNL     1       2.505   7.447  18.411  0.00  0.00    +0.000 A 
ENDBRANCH  15  17
ENDBRANCH  14  15
ENDBRANCH   1  14
TORSDOF 4
ENDMDL
MODEL 5
REMARK VINA RESULT:      -7.3      2.804      4.088
REMARK  Name = 
REMARK  4 active torsions:
REMARK  status: ('A' for Active; 'I' for Inactive)
REMARK    1  A    between atoms: C_2  and  N_3
REMARK    2  A    between atoms: C_2  and  N_10
REMARK    3  A    between atoms: N_3  and  C_4
REMARK    4  A    between atoms: N_10  and  C_11
REMARK                            x       y       z     vdW  Elec       q    Type
REMARK                         _______ _______ _______ _____ _____    ______ ____
ROOT
ATOM      1  N   UNL     1       5.382   5.877  16.973  0.00  0.00    +0.000 N 
ATOM      2  H   UNL     1       5.309   6.890  16.972  0.00  0.00    +0.000 HD
ENDROOT
BRANCH   1   3
ATOM      3  C   UNL     1       4.253   5.186  17.472  0.00  0.00    +0.000 A 
ATOM      4  C   UNL     1       3.511   5.885  18.491  0.00  0.00    +0.000 A 
ATOM      5  C   UNL     1       2.388   5.367  19.173  0.00  0.00    +0.000 A 
ATOM      6  C   UNL     1       2.099   4.086  18.731  0.00  0.00    +0.000 A 
ATOM      7  C   UNL     1       1.081   3.298  19.187  0.00  0.00    +0.000 A 
ATOM      8  N   UNL     1       1.201   2.138  18.475  0.00  0.00    +0.000 N 
ATOM      9  N   UNL     1       2.222   2.126  17.598  0.00  0.00    +0.000 NA
ATOM     10  C   UNL     1       2.804   3.331  17.729  0.00  0.00    +0.000 A 
ATOM     11  C   UNL     1       3.922   3.872  17.068  0.00  0.00    +0.000 A 
ATOM     12  H   UNL     1       0.618   1.309  18.539  0.00  0.00    +0.000 HD
ENDBRANCH   1   3
BRANCH   1  14
ATOM     13  S   UNL     1       7.521   4.814  17.986  0.00  0.00    +0.000 S 
ATOM     14  C   UNL     1       6.654   5.450  16.698  0.00  0.00    +0.000 C 
BRANCH  14  15
ATOM     15  N   UNL     1       7.135   5.711  15.442  0.00  0.00    +0.000 N 
ATOM     16  H   UNL     1       7.885   6.390  15.425  0.00  0.00    +0.000 HD
BRANCH  15  17
ATOM     17  C   UNL     1       6.940   4.965  14.261  0.00  0.00    +0.000 A 
ATOM     18  C   UNL     1       5.917   4.022  14.142  0.00  0.00    +0.000 A 
ATOM     19  C   UNL     1       5.714   3.344  12.938  0.00  0.00    +0.000 A 
ATOM     20  C   UNL     1       6.537   3.607  11.845  0.00  0.00    +0.000 A 
ATOM     21  C   UNL     1       7.550   4.557  11.950  0.00  0.00    +0.000 A 
ATOM     22  C   UNL     1       7.740   5.250  13.149  0.00  0.00    +0.000 A 
ENDBRANCH  15  17
ENDBRANCH  14  15
ENDBRANCH   1  14
TORSDOF 4
ENDMDL
MODEL 6
REMARK VINA RESULT:      -7.3      2.817      4.193
REMARK  Name = 
REMARK  4 active torsions:
REMARK  status: ('A' for Active; 'I' for Inactive)
REMARK    1  A    between atoms: C_2  and  N_3
REMARK    2  A    between atoms: C_2  and  N_10
REMARK    3  A    between atoms: N_3  and  C_4
REMARK    4  A    between atoms: N_10  and  C_11
REMARK                            x       y       z     vdW  Elec       q    Type
REMARK                         _______ _______ _______ _____ _____    ______ ____
ROOT
ATOM      1  N   UNL     1       5.485   5.812  16.671  0.00  0.00    +0.000 N 
ATOM      2  H   UNL     1       5.315   6.789  16.452  0.00  0.00    +0.000 HD
ENDROOT
BRANCH   1   3
ATOM      3  C   UNL     1       4.368   5.095  17.161  0.00  0.00    +0.000 A 
ATOM      4  C   UNL     1       3.359   5.900  17.801  0.00  0.00    +0.000 A 
ATOM      5  C   UNL     1       2.190   5.395  18.414  0.00  0.00    +0.000 A 
ATOM      6  C   UNL     1       2.150   4.014  18.320  0.00  0.00    +0.000 A 
ATOM      7  C   UNL     1       1.161   3.211  18.814  0.00  0.00    +0.000 A 
ATOM      8  N   UNL     1       1.558   1.944  18.497  0.00  0.00    +0.000 N 
ATOM      9  N   UNL     1       2.730   1.876  17.837  0.00  0.00    +0.000 NA
ATOM     10  C   UNL     1       3.126   3.154  17.706  0.00  0.00    +0.000 A 
ATOM     11  C   UNL     1       4.282   3.685  17.105  0.00  0.00    +0.000 A 
ATOM     12  H   UNL     1       1.076   1.074  18.703  0.00  0.00    +0.000 HD
ENDBRANCH   1   3
BRANCH   1  14
ATOM     13  S   UNL     1       7.536   5.189  18.133  0.00  0.00    +0.000 S 
ATOM     14  C   UNL     1       6.818   5.502  16.649  0.00  0.00    +0.000 C 
BRANCH  14  15
ATOM     15  N   UNL     1       7.458   5.614  15.442  0.00  0.00    +0.000 N 
ATOM     16  H   UNL     1       8.384   6.018  15.507  0.00  0.00    +0.000 HD
BRANCH  15  17
ATOM     17  C   UNL     1       7.133   4.986  14.221  0.00  0.00    +0.000 A 
ATOM     18  C   UNL     1       7.772   5.319  13.025  0.00  0.00    +0.000 A 
ATOM     19  C   UNL     1       7.467   4.636  11.846  0.00  0.00    +0.000 A 
ATOM     20  C   UNL     1       6.520   3.616  11.858  0.00  0.00    +0.000 A 
ATOM     21  C   UNL     1       5.889   3.266  13.050  0.00  0.00    +0.000 A 
ATOM     22  C   UNL     1       6.209   3.936  14.235  0.00  0.00    +0.000 A 
ENDBRANCH  15  17
ENDBRANCH  14  15
ENDBRANCH   1  14
TORSDOF 4
ENDMDL
MODEL 7
REMARK VINA RESULT:      -7.2      2.399      3.523
REMARK  Name = 
REMARK  4 active torsions:
REMARK  status: ('A' for Active; 'I' for Inactive)
REMARK    1  A    between atoms: C_2  and  N_3
REMARK    2  A    between atoms: C_2  and  N_10
REMARK    3  A    between atoms: N_3  and  C_4
REMARK    4  A    between atoms: N_10  and  C_11
REMARK                            x       y       z     vdW  Elec       q    Type
REMARK                         _______ _______ _______ _____ _____    ______ ____
ROOT
ATOM      1  N   UNL     1       5.638   3.809  17.287  0.00  0.00    +0.000 N 
ATOM      2  H   UNL     1       5.853   3.016  16.691  0.00  0.00    +0.000 HD
ENDROOT
BRANCH   1   3
ATOM      3  C   UNL     1       4.447   3.696  18.043  0.00  0.00    +0.000 A 
ATOM      4  C   UNL     1       3.266   4.217  17.401  0.00  0.00    +0.000 A 
ATOM      5  C   UNL     1       1.981   4.265  17.987  0.00  0.00    +0.000 A 
ATOM      6  C   UNL     1       2.013   3.747  19.271  0.00  0.00    +0.000 A 
ATOM      7  C   UNL     1       0.946   3.652  20.118  0.00  0.00    +0.000 A 
ATOM      8  N   UNL     1       1.459   3.099  21.256  0.00  0.00    +0.000 N 
ATOM      9  N   UNL     1       2.778   2.834  21.201  0.00  0.00    +0.000 NA
ATOM     10  C   UNL     1       3.157   3.225  19.972  0.00  0.00    +0.000 A 
ATOM     11  C   UNL     1       4.425   3.191  19.363  0.00  0.00    +0.000 A 
ATOM     12  H   UNL     1       0.964   2.875  22.114  0.00  0.00    +0.000 HD
ENDBRANCH   1   3
BRANCH   1  14
ATOM     13  S   UNL     1       7.378   5.438  18.312  0.00  0.00    +0.000 S 
ATOM     14  C   UNL     1       6.446   4.883  17.030  0.00  0.00    +0.000 C 
BRANCH  14  15
ATOM     15  N   UNL     1       6.312   5.479  15.804  0.00  0.00    +0.000 N 
ATOM     16  H   UNL     1       6.309   6.490  15.839  0.00  0.00    +0.000 HD
BRANCH  15  17
ATOM     17  C   UNL     1       6.478   4.897  14.529  0.00  0.00    +0.000 A 
ATOM     18  C   UNL     1       5.561   3.981  14.009  0.00  0.00    +0.000 A 
ATOM     19  C   UNL     1       5.724   3.471  12.719  0.00  0.00    +0.000 A 
ATOM     20  C   UNL     1       6.808   3.875  11.943  0.00  0.00    +0.000 A 
ATOM     21  C   UNL     1       7.718   4.800  12.449  0.00  0.00    +0.000 A 
ATOM     22  C   UNL     1       7.544   5.327  13.732  0.00  0.00    +0.000 A 
ENDBRANCH  15  17
ENDBRANCH  14  15
ENDBRANCH   1  14
TORSDOF 4
ENDMDL
MODEL 8
REMARK VINA RESULT:      -7.2      2.847      6.367
REMARK  Name = 
REMARK  4 active torsions:
REMARK  status: ('A' for Active; 'I' for Inactive)
REMARK    1  A    between atoms: C_2  and  N_3
REMARK    2  A    between atoms: C_2  and  N_10
REMARK    3  A    between atoms: N_3  and  C_4
REMARK    4  A    between atoms: N_10  and  C_11
REMARK                            x       y       z     vdW  Elec       q    Type
REMARK                         _______ _______ _______ _____ _____    ______ ____
ROOT
ATOM      1  N   UNL     1       4.057   6.667  18.902  0.00  0.00    +0.000 N 
ATOM      2  H   UNL     1       4.675   7.093  19.586  0.00  0.00    +0.000 HD
ENDROOT
BRANCH   1   3
ATOM      3  C   UNL     1       4.698   6.065  17.794  0.00  0.00    +0.000 A 
ATOM      4  C   UNL     1       4.033   4.902  17.262  0.00  0.00    +0.000 A 
ATOM      5  C   UNL     1       4.518   4.107  16.200  0.00  0.00    +0.000 A 
ATOM      6  C   UNL     1       5.730   4.596  15.741  0.00  0.00    +0.000 A 
ATOM      7  C   UNL     1       6.473   4.059  14.729  0.00  0.00    +0.000 A 
ATOM      8  N   UNL     1       7.574   4.864  14.648  0.00  0.00    +0.000 N 
ATOM      9  N   UNL     1       7.591   5.876  15.536  0.00  0.00    +0.000 NA
ATOM     10  C   UNL     1       6.450   5.740  16.235  0.00  0.00    +0.000 A 
ATOM     11  C   UNL     1       5.943   6.512  17.296  0.00  0.00    +0.000 A 
ATOM     12  H   UNL     1       8.358   4.779  14.008  0.00  0.00    +0.000 HD
ENDBRANCH   1   3
BRANCH   1  14
ATOM     13  S   UNL     1       2.115   8.232  18.184  0.00  0.00    +0.000 S 
ATOM     14  C   UNL     1       2.744   6.989  19.120  0.00  0.00    +0.000 C 
BRANCH  14  15
ATOM     15  N   UNL     1       2.120   6.363  20.167  0.00  0.00    +0.000 N 
ATOM     16  H   UNL     1       1.611   6.992  20.774  0.00  0.00    +0.000 HD
BRANCH  15  17
ATOM     17  C   UNL     1       1.855   4.987  20.328  0.00  0.00    +0.000 A 
ATOM     18  C   UNL     1       1.180   4.245  19.357  0.00  0.00    +0.000 A 
ATOM     19  C   UNL     1       0.987   2.872  19.521  0.00  0.00    +0.000 A 
ATOM     20  C   UNL     1       1.468   2.234  20.663  0.00  0.00    +0.000 A 
ATOM     21  C   UNL     1       2.156   2.963  21.629  0.00  0.00    +0.000 A 
ATOM     22  C   UNL     1       2.367   4.334  21.454  0.00  0.00    +0.000 A 
ENDBRANCH  15  17
ENDBRANCH  14  15
ENDBRANCH   1  14
TORSDOF 4
ENDMDL
MODEL 9
REMARK VINA RESULT:      -7.2      2.686      3.873
REMARK  Name = 
REMARK  4 active torsions:
REMARK  status: ('A' for Active; 'I' for Inactive)
REMARK    1  A    between atoms: C_2  and  N_3
REMARK    2  A    between atoms: C_2  and  N_10
REMARK    3  A    between atoms: N_3  and  C_4
REMARK    4  A    between atoms: N_10  and  C_11
REMARK                            x       y       z     vdW  Elec       q    Type
REMARK                         _______ _______ _______ _____ _____    ______ ____
ROOT
ATOM      1  N   UNL     1       5.178   5.738  16.975  0.00  0.00    +0.000 N 
ATOM      2  H   UNL     1       4.984   6.698  16.710  0.00  0.00    +0.000 HD
ENDROOT
BRANCH   1   3
ATOM      3  C   UNL     1       4.128   5.069  17.647  0.00  0.00    +0.000 A 
ATOM      4  C   UNL     1       3.678   3.853  17.017  0.00  0.00    +0.000 A 
ATOM      5  C   UNL     1       2.607   3.053  17.475  0.00  0.00    +0.000 A 
ATOM      6  C   UNL     1       2.042   3.603  18.613  0.00  0.00    +0.000 A 
ATOM      7  C   UNL     1       0.983   3.086  19.305  0.00  0.00    +0.000 A 
ATOM      8  N   UNL     1       0.779   3.969  20.327  0.00  0.00    +0.000 N 
ATOM      9  N   UNL     1       1.628   5.014  20.340  0.00  0.00    +0.000 NA
ATOM     10  C   UNL     1       2.434   4.815  19.282  0.00  0.00    +0.000 A 
ATOM     11  C   UNL     1       3.504   5.593  18.802  0.00  0.00    +0.000 A 
ATOM     12  H   UNL     1       0.073   3.920  21.056  0.00  0.00    +0.000 HD
ENDBRANCH   1   3
BRANCH   1  14
ATOM     13  S   UNL     1       7.306   4.871  18.179  0.00  0.00    +0.000 S 
ATOM     14  C   UNL     1       6.498   5.412  16.812  0.00  0.00    +0.000 C 
BRANCH  14  15
ATOM     15  N   UNL     1       7.056   5.689  15.592  0.00  0.00    +0.000 N 
ATOM     16  H   UNL     1       7.822   6.350  15.634  0.00  0.00    +0.000 HD
BRANCH  15  17
ATOM     17  C   UNL     1       6.912   4.976  14.384  0.00  0.00    +0.000 A 
ATOM     18  C   UNL     1       5.940   3.986  14.220  0.00  0.00    +0.000 A 
ATOM     19  C   UNL     1       5.785   3.342  12.991  0.00  0.00    +0.000 A 
ATOM     20  C   UNL     1       6.604   3.684  11.918  0.00  0.00    +0.000 A 
ATOM     21  C   UNL     1       7.566   4.681  12.068  0.00  0.00    +0.000 A 
ATOM     22  C   UNL     1       7.707   5.340  13.292  0.00  0.00    +0.000 A 
ENDBRANCH  15  17
ENDBRANCH  14  15
ENDBRANCH   1  14
TORSDOF 4
ENDMDL
