MODEL 1
REMARK VINA RESULT:      -7.0      0.000      0.000
REMARK  Name = 
REMARK  6 active torsions:
REMARK  status: ('A' for Active; 'I' for Inactive)
REMARK    1  A    between atoms: C_1  and  N_2
REMARK    2  A    between atoms: C_4  and  C_5
REMARK    3  A    between atoms: C_5  and  C_7
REMARK    4  A    between atoms: C_7  and  N_8
REMARK    5  A    between atoms: C_15  and  C_16
REMARK    6  A    between atoms: C_15  and  C_17
REMARK                            x       y       z     vdW  Elec       q    Type
REMARK                         _______ _______ _______ _____ _____    ______ ____
ROOT
ATOM      1  C   UNL     1       3.984   6.975  16.767  0.00  0.00    +0.000 C 
ATOM      2  N   UNL     1       3.844   5.860  17.696  0.00  0.00    +0.000 N 
ATOM      3  C   UNL     1       3.848   4.490  17.393  0.00  0.00    +0.000 C 
ATOM      4  C   UNL     1       4.487   3.833  16.408  0.00  0.00    +0.000 C 
ATOM      5  C   UNL     1       3.006   3.747  18.504  0.00  0.00    +0.000 C 
ATOM      6  C   UNL     1       3.933   2.872  19.364  0.00  0.00    +0.000 C 
ATOM      7  C   UNL     1       1.835   2.900  17.980  0.00  0.00    +0.000 C 
ATOM      8  C   UNL     1       2.501   4.914  19.337  0.00  0.00    +0.000 A 
ATOM      9  C   UNL     1       1.636   4.927  20.423  0.00  0.00    +0.000 A 
ATOM     10  C   UNL     1       1.290   6.154  20.991  0.00  0.00    +0.000 A 
ATOM     11  C   UNL     1       1.818   7.348  20.476  0.00  0.00    +0.000 A 
ATOM     12  C   UNL     1       2.697   7.324  19.392  0.00  0.00    +0.000 A 
ATOM     13  C   UNL     1       3.026   6.106  18.814  0.00  0.00    +0.000 A 
ENDROOT
BRANCH   4  14
ATOM     14  C   UNL     1       5.519   4.432  15.500  0.00  0.00    +0.000 C 
ATOM     15  O   UNL     1       5.222   5.054  14.478  0.00  0.00    +0.000 OA
BRANCH  14  16
ATOM     16  C   UNL     1       6.963   4.364  15.907  0.00  0.00    +0.000 C 
BRANCH  16  17
ATOM     17  N   UNL     1       7.424   5.173  17.050  0.00  0.00    +0.000 N 
ATOM     18  C   UNL     1       7.648   4.608  18.258  0.00  0.00    +0.000 A 
ATOM     19  C   UNL     1       7.992   5.393  19.358  0.00  0.00    +0.000 A 
ATOM     20  C   UNL     1       8.103   6.766  19.222  0.00  0.00    +0.000 A 
ATOM     21  C   UNL     1       7.876   7.333  17.979  0.00  0.00    +0.000 A 
ATOM     22 BR   UNL     1       7.994   9.202  17.746  0.00  0.00    +0.000 Br
ATOM     23  C   UNL     1       7.542   6.517  16.902  0.00  0.00    +0.000 A 
ENDBRANCH  16  17
ENDBRANCH  14  16
ENDBRANCH   4  14
TORSDOF 3
ENDMDL
MODEL 2
REMARK VINA RESULT:      -6.8      4.001      6.391
REMARK  Name = 
REMARK  6 active torsions:
REMARK  status: ('A' for Active; 'I' for Inactive)
REMARK    1  A    between atoms: C_1  and  N_2
REMARK    2  A    between atoms: C_4  and  C_5
REMARK    3  A    between atoms: C_5  and  C_7
REMARK    4  A    between atoms: C_7  and  N_8
REMARK    5  A    between atoms: C_15  and  C_16
REMARK    6  A    between atoms: C_15  and  C_17
REMARK                            x       y       z     vdW  Elec       q    Type
REMARK                         _______ _______ _______ _____ _____    ______ ____
ROOT
ATOM      1  C   UNL     1       1.940   7.587  21.187  0.00  0.00    +0.000 C 
ATOM      2  N   UNL     1       1.090   8.495  20.427  0.00  0.00    +0.000 N 
ATOM      3  C   UNL     1       1.351   9.059  19.169  0.00  0.00    +0.000 C 
ATOM      4  C   UNL     1       2.061   8.563  18.140  0.00  0.00    +0.000 C 
ATOM      5  C   UNL     1       0.565  10.426  19.080  0.00  0.00    +0.000 C 
ATOM      6  C   UNL     1      -0.566  10.311  18.045  0.00  0.00    +0.000 C 
ATOM      7  C   UNL     1       1.430  11.659  18.767  0.00  0.00    +0.000 C 
ATOM      8  C   UNL     1      -0.036  10.525  20.473  0.00  0.00    +0.000 A 
ATOM      9  C   UNL     1      -0.778  11.545  21.055  0.00  0.00    +0.000 A 
ATOM     10  C   UNL     1      -1.179  11.409  22.384  0.00  0.00    +0.000 A 
ATOM     11  C   UNL     1      -0.846  10.256  23.111  0.00  0.00    +0.000 A 
ATOM     12  C   UNL     1      -0.111   9.230  22.515  0.00  0.00    +0.000 A 
ATOM     13  C   UNL     1       0.306   9.374  21.198  0.00  0.00    +0.000 A 
ENDROOT
BRANCH   4  14
ATOM     14  C   UNL     1       2.590   7.162  18.053  0.00  0.00    +0.000 C 
ATOM     15  O   UNL     1       3.771   6.886  18.270  0.00  0.00    +0.000 OA
BRANCH  14  16
ATOM     16  C   UNL     1       1.624   6.042  17.795  0.00  0.00    +0.000 C 
BRANCH  16  17
ATOM     17  N   UNL     1       1.976   4.678  18.229  0.00  0.00    +0.000 N 
ATOM     18  C   UNL     1       2.409   3.754  17.342  0.00  0.00    +0.000 A 
ATOM     19  C   UNL     1       2.650   2.440  17.743  0.00  0.00    +0.000 A 
ATOM     20  C   UNL     1       2.442   2.069  19.059  0.00  0.00    +0.000 A 
ATOM     21  C   UNL     1       2.003   3.024  19.960  0.00  0.00    +0.000 A 
ATOM     22 BR   UNL     1       1.684   2.563  21.762  0.00  0.00    +0.000 Br
ATOM     23  C   UNL     1       1.780   4.328  19.526  0.00  0.00    +0.000 A 
ENDBRANCH  16  17
ENDBRANCH  14  16
ENDBRANCH   4  14
TORSDOF 3
ENDMDL
MODEL 3
REMARK VINA RESULT:      -6.8      2.898      4.341
REMARK  Name = 
REMARK  6 active torsions:
REMARK  status: ('A' for Active; 'I' for Inactive)
REMARK    1  A    between atoms: C_1  and  N_2
REMARK    2  A    between atoms: C_4  and  C_5
REMARK    3  A    between atoms: C_5  and  C_7
REMARK    4  A    between atoms: C_7  and  N_8
REMARK    5  A    between atoms: C_15  and  C_16
REMARK    6  A    between atoms: C_15  and  C_17
REMARK                            x       y       z     vdW  Elec       q    Type
REMARK                         _______ _______ _______ _____ _____    ______ ____
ROOT
ATOM      1  C   UNL     1       5.795   4.276  19.412  0.00  0.00    +0.000 C 
ATOM      2  N   UNL     1       4.418   4.324  18.934  0.00  0.00    +0.000 N 
ATOM      3  C   UNL     1       3.830   5.303  18.119  0.00  0.00    +0.000 C 
ATOM      4  C   UNL     1       4.386   6.067  17.161  0.00  0.00    +0.000 C 
ATOM      5  C   UNL     1       2.283   5.331  18.438  0.00  0.00    +0.000 C 
ATOM      6  C   UNL     1       1.490   4.809  17.228  0.00  0.00    +0.000 C 
ATOM      7  C   UNL     1       1.729   6.699  18.869  0.00  0.00    +0.000 C 
ATOM      8  C   UNL     1       2.186   4.325  19.574  0.00  0.00    +0.000 A 
ATOM      9  C   UNL     1       1.094   3.955  20.349  0.00  0.00    +0.000 A 
ATOM     10  C   UNL     1       1.282   3.028  21.374  0.00  0.00    +0.000 A 
ATOM     11  C   UNL     1       2.550   2.474  21.607  0.00  0.00    +0.000 A 
ATOM     12  C   UNL     1       3.640   2.842  20.815  0.00  0.00    +0.000 A 
ATOM     13  C   UNL     1       3.458   3.780  19.807  0.00  0.00    +0.000 A 
ENDROOT
BRANCH   4  14
ATOM     14  C   UNL     1       5.772   5.892  16.616  0.00  0.00    +0.000 C 
ATOM     15  O   UNL     1       6.627   6.777  16.685  0.00  0.00    +0.000 OA
BRANCH  14  16
ATOM     16  C   UNL     1       6.165   4.553  16.060  0.00  0.00    +0.000 C 
BRANCH  16  17
ATOM     17  N   UNL     1       6.477   4.438  14.624  0.00  0.00    +0.000 N 
ATOM     18  C   UNL     1       7.576   5.028  14.100  0.00  0.00    +0.000 A 
ATOM     19  C   UNL     1       7.814   4.996  12.727  0.00  0.00    +0.000 A 
ATOM     20  C   UNL     1       6.921   4.359  11.883  0.00  0.00    +0.000 A 
ATOM     21  C   UNL     1       5.802   3.754  12.431  0.00  0.00    +0.000 A 
ATOM     22 BR   UNL     1       4.543   2.892  11.321  0.00  0.00    +0.000 Br
ATOM     23  C   UNL     1       5.600   3.801  13.807  0.00  0.00    +0.000 A 
ENDBRANCH  16  17
ENDBRANCH  14  16
ENDBRANCH   4  14
TORSDOF 3
ENDMDL
MODEL 4
REMARK VINA RESULT:      -6.6      2.901      3.899
REMARK  Name = 
REMARK  6 active torsions:
REMARK  status: ('A' for Active; 'I' for Inactive)
REMARK    1  A    between atoms: C_1  and  N_2
REMARK    2  A    between atoms: C_4  and  C_5
REMARK    3  A    between atoms: C_5  and  C_7
REMARK    4  A    between atoms: C_7  and  N_8
REMARK    5  A    between atoms: C_15  and  C_16
REMARK    6  A    between atoms: C_15  and  C_17
REMARK                            x       y       z     vdW  Elec       q    Type
REMARK                         _______ _______ _______ _____ _____    ______ ____
ROOT
ATOM      1  C   UNL     1       4.565   6.561  17.609  0.00  0.00    +0.000 C 
ATOM      2  N   UNL     1       4.365   5.339  18.379  0.00  0.00    +0.000 N 
ATOM      3  C   UNL     1       4.699   4.029  18.005  0.00  0.00    +0.000 C 
ATOM      4  C   UNL     1       5.698   3.592  17.217  0.00  0.00    +0.000 C 
ATOM      5  C   UNL     1       3.720   3.046  18.761  0.00  0.00    +0.000 C 
ATOM      6  C   UNL     1       4.503   2.229  19.802  0.00  0.00    +0.000 C 
ATOM      7  C   UNL     1       2.916   2.098  17.856  0.00  0.00    +0.000 C 
ATOM      8  C   UNL     1       2.799   4.022  19.476  0.00  0.00    +0.000 A 
ATOM      9  C   UNL     1       1.672   3.781  20.251  0.00  0.00    +0.000 A 
ATOM     10  C   UNL     1       0.966   4.870  20.765  0.00  0.00    +0.000 A 
ATOM     11  C   UNL     1       1.399   6.180  20.511  0.00  0.00    +0.000 A 
ATOM     12  C   UNL     1       2.541   6.412  19.742  0.00  0.00    +0.000 A 
ATOM     13  C   UNL     1       3.232   5.331  19.213  0.00  0.00    +0.000 A 
ENDROOT
BRANCH   4  14
ATOM     14  C   UNL     1       6.823   4.439  16.703  0.00  0.00    +0.000 C 
ATOM     15  O   UNL     1       7.978   4.332  17.122  0.00  0.00    +0.000 OA
BRANCH  14  16
ATOM     16  C   UNL     1       6.556   5.378  15.562  0.00  0.00    +0.000 C 
BRANCH  16  17
ATOM     17  N   UNL     1       6.891   4.953  14.191  0.00  0.00    +0.000 N 
ATOM     18  C   UNL     1       7.820   5.613  13.463  0.00  0.00    +0.000 A 
ATOM     19  C   UNL     1       8.063   5.266  12.135  0.00  0.00    +0.000 A 
ATOM     20  C   UNL     1       7.348   4.238  11.546  0.00  0.00    +0.000 A 
ATOM     21  C   UNL     1       6.402   3.565  12.301  0.00  0.00    +0.000 A 
ATOM     22 BR   UNL     1       5.386   2.171  11.538  0.00  0.00    +0.000 Br
ATOM     23  C   UNL     1       6.191   3.935  13.626  0.00  0.00    +0.000 A 
ENDBRANCH  16  17
ENDBRANCH  14  16
ENDBRANCH   4  14
TORSDOF 3
ENDMDL
MODEL 5
REMARK VINA RESULT:      -6.5      2.565      6.056
REMARK  Name = 
REMARK  6 active torsions:
REMARK  status: ('A' for Active; 'I' for Inactive)
REMARK    1  A    between atoms: C_1  and  N_2
REMARK    2  A    between atoms: C_4  and  C_5
REMARK    3  A    between atoms: C_5  and  C_7
REMARK    4  A    between atoms: C_7  and  N_8
REMARK    5  A    between atoms: C_15  and  C_16
REMARK    6  A    between atoms: C_15  and  C_17
REMARK                            x       y       z     vdW  Elec       q    Type
REMARK                         _______ _______ _______ _____ _____    ______ ____
ROOT
ATOM      1  C   UNL     1       3.428   3.438  16.587  0.00  0.00    +0.000 C 
ATOM      2  N   UNL     1       4.806   3.853  16.819  0.00  0.00    +0.000 N 
ATOM      3  C   UNL     1       5.297   4.638  17.873  0.00  0.00    +0.000 C 
ATOM      4  C   UNL     1       4.856   4.743  19.140  0.00  0.00    +0.000 C 
ATOM      5  C   UNL     1       6.596   5.376  17.361  0.00  0.00    +0.000 C 
ATOM      6  C   UNL     1       7.833   4.823  18.091  0.00  0.00    +0.000 C 
ATOM      7  C   UNL     1       6.568   6.909  17.480  0.00  0.00    +0.000 C 
ATOM      8  C   UNL     1       6.639   4.946  15.903  0.00  0.00    +0.000 A 
ATOM      9  C   UNL     1       7.506   5.323  14.886  0.00  0.00    +0.000 A 
ATOM     10  C   UNL     1       7.300   4.811  13.605  0.00  0.00    +0.000 A 
ATOM     11  C   UNL     1       6.242   3.923  13.357  0.00  0.00    +0.000 A 
ATOM     12  C   UNL     1       5.383   3.539  14.389  0.00  0.00    +0.000 A 
ATOM     13  C   UNL     1       5.575   4.064  15.659  0.00  0.00    +0.000 A 
ENDROOT
BRANCH   4  14
ATOM     14  C   UNL     1       3.813   3.865  19.765  0.00  0.00    +0.000 C 
ATOM     15  O   UNL     1       4.049   2.710  20.125  0.00  0.00    +0.000 OA
BRANCH  14  16
ATOM     16  C   UNL     1       2.461   4.448  20.059  0.00  0.00    +0.000 C 
BRANCH  16  17
ATOM     17  N   UNL     1       2.199   5.857  19.717  0.00  0.00    +0.000 N 
ATOM     18  C   UNL     1       2.460   6.334  18.478  0.00  0.00    +0.000 A 
ATOM     19  C   UNL     1       2.300   7.689  18.189  0.00  0.00    +0.000 A 
ATOM     20  C   UNL     1       1.874   8.562  19.174  0.00  0.00    +0.000 A 
ATOM     21  C   UNL     1       1.605   8.063  20.437  0.00  0.00    +0.000 A 
ATOM     22 BR   UNL     1       1.042   9.216  21.821  0.00  0.00    +0.000 Br
ATOM     23  C   UNL     1       1.769   6.704  20.688  0.00  0.00    +0.000 A 
ENDBRANCH  16  17
ENDBRANCH  14  16
ENDBRANCH   4  14
TORSDOF 3
ENDMDL
MODEL 6
REMARK VINA RESULT:      -6.5      3.176      4.403
REMARK  Name = 
REMARK  6 active torsions:
REMARK  status: ('A' for Active; 'I' for Inactive)
REMARK    1  A    between atoms: C_1  and  N_2
REMARK    2  A    between atoms: C_4  and  C_5
REMARK    3  A    between atoms: C_5  and  C_7
REMARK    4  A    between atoms: C_7  and  N_8
REMARK    5  A    between atoms: C_15  and  C_16
REMARK    6  A    between atoms: C_15  and  C_17
REMARK                            x       y       z     vdW  Elec       q    Type
REMARK                         _______ _______ _______ _____ _____    ______ ____
ROOT
ATOM      1  C   UNL     1       4.567   6.710  16.999  0.00  0.00    +0.000 C 
ATOM      2  N   UNL     1       4.356   5.510  17.800  0.00  0.00    +0.000 N 
ATOM      3  C   UNL     1       4.486   4.174  17.390  0.00  0.00    +0.000 C 
ATOM      4  C   UNL     1       5.302   3.639  16.463  0.00  0.00    +0.000 C 
ATOM      5  C   UNL     1       3.534   3.297  18.293  0.00  0.00    +0.000 C 
ATOM      6  C   UNL     1       4.372   2.391  19.211  0.00  0.00    +0.000 C 
ATOM      7  C   UNL     1       2.505   2.447  17.529  0.00  0.00    +0.000 C 
ATOM      8  C   UNL     1       2.842   4.360  19.133  0.00  0.00    +0.000 A 
ATOM      9  C   UNL     1       1.826   4.235  20.071  0.00  0.00    +0.000 A 
ATOM     10  C   UNL     1       1.328   5.389  20.677  0.00  0.00    +0.000 A 
ATOM     11  C   UNL     1       1.855   6.647  20.350  0.00  0.00    +0.000 A 
ATOM     12  C   UNL     1       2.886   6.762  19.415  0.00  0.00    +0.000 A 
ATOM     13  C   UNL     1       3.368   5.616  18.796  0.00  0.00    +0.000 A 
ENDROOT
BRANCH   4  14
ATOM     14  C   UNL     1       6.420   4.364  15.777  0.00  0.00    +0.000 C 
ATOM     15  O   UNL     1       7.548   4.456  16.267  0.00  0.00    +0.000 OA
BRANCH  14  16
ATOM     16  C   UNL     1       6.188   4.907  14.397  0.00  0.00    +0.000 C 
BRANCH  16  17
ATOM     17  N   UNL     1       6.035   3.966  13.273  0.00  0.00    +0.000 N 
ATOM     18  C   UNL     1       7.082   3.235  12.828  0.00  0.00    +0.000 A 
ATOM     19  C   UNL     1       6.954   2.418  11.705  0.00  0.00    +0.000 A 
ATOM     20  C   UNL     1       5.748   2.352  11.030  0.00  0.00    +0.000 A 
ATOM     21  C   UNL     1       4.681   3.101  11.498  0.00  0.00    +0.000 A 
ATOM     22 BR   UNL     1       3.021   3.062  10.600  0.00  0.00    +0.000 Br
ATOM     23  C   UNL     1       4.843   3.900  12.626  0.00  0.00    +0.000 A 
ENDBRANCH  16  17
ENDBRANCH  14  16
ENDBRANCH   4  14
TORSDOF 3
ENDMDL
MODEL 7
REMARK VINA RESULT:      -6.3      3.804      6.002
REMARK  Name = 
REMARK  6 active torsions:
REMARK  status: ('A' for Active; 'I' for Inactive)
REMARK    1  A    between atoms: C_1  and  N_2
REMARK    2  A    between atoms: C_4  and  C_5
REMARK    3  A    between atoms: C_5  and  C_7
REMARK    4  A    between atoms: C_7  and  N_8
REMARK    5  A    between atoms: C_15  and  C_16
REMARK    6  A    between atoms: C_15  and  C_17
REMARK                            x       y       z     vdW  Elec       q    Type
REMARK                         _______ _______ _______ _____ _____    ______ ____
ROOT
ATOM      1  C   UNL     1       1.761   7.922  21.066  0.00  0.00    +0.000 C 
ATOM      2  N   UNL     1       0.874   8.861  20.390  0.00  0.00    +0.000 N 
ATOM      3  C   UNL     1       1.090   9.509  19.164  0.00  0.00    +0.000 C 
ATOM      4  C   UNL     1       1.779   9.094  18.086  0.00  0.00    +0.000 C 
ATOM      5  C   UNL     1       0.278  10.864  19.184  0.00  0.00    +0.000 C 
ATOM      6  C   UNL     1      -0.880  10.794  18.175  0.00  0.00    +0.000 C 
ATOM      7  C   UNL     1       1.112  12.130  18.928  0.00  0.00    +0.000 C 
ATOM      8  C   UNL     1      -0.285  10.862  20.597  0.00  0.00    +0.000 A 
ATOM      9  C   UNL     1      -1.029  11.829  21.262  0.00  0.00    +0.000 A 
ATOM     10  C   UNL     1      -1.390  11.599  22.590  0.00  0.00    +0.000 A 
ATOM     11  C   UNL     1      -1.017  10.409  23.233  0.00  0.00    +0.000 A 
ATOM     12  C   UNL     1      -0.280   9.438  22.551  0.00  0.00    +0.000 A 
ATOM     13  C   UNL     1       0.097   9.674  21.236  0.00  0.00    +0.000 A 
ENDROOT
BRANCH   4  14
ATOM     14  C   UNL     1       2.329   7.712  17.895  0.00  0.00    +0.000 C 
ATOM     15  O   UNL     1       1.606   6.718  17.801  0.00  0.00    +0.000 OA
BRANCH  14  16
ATOM     16  C   UNL     1       3.810   7.545  17.705  0.00  0.00    +0.000 C 
BRANCH  16  17
ATOM     17  N   UNL     1       4.324   6.273  17.167  0.00  0.00    +0.000 N 
ATOM     18  C   UNL     1       5.130   6.250  16.081  0.00  0.00    +0.000 A 
ATOM     19  C   UNL     1       5.535   5.039  15.522  0.00  0.00    +0.000 A 
ATOM     20  C   UNL     1       5.109   3.843  16.073  0.00  0.00    +0.000 A 
ATOM     21  C   UNL     1       4.287   3.878  17.188  0.00  0.00    +0.000 A 
ATOM     22 BR   UNL     1       3.662   2.276  17.964  0.00  0.00    +0.000 Br
ATOM     23  C   UNL     1       3.909   5.106  17.724  0.00  0.00    +0.000 A 
ENDBRANCH  16  17
ENDBRANCH  14  16
ENDBRANCH   4  14
TORSDOF 3
ENDMDL
MODEL 8
REMARK VINA RESULT:      -6.3      3.736      5.962
REMARK  Name = 
REMARK  6 active torsions:
REMARK  status: ('A' for Active; 'I' for Inactive)
REMARK    1  A    between atoms: C_1  and  N_2
REMARK    2  A    between atoms: C_4  and  C_5
REMARK    3  A    between atoms: C_5  and  C_7
REMARK    4  A    between atoms: C_7  and  N_8
REMARK    5  A    between atoms: C_15  and  C_16
REMARK    6  A    between atoms: C_15  and  C_17
REMARK                            x       y       z     vdW  Elec       q    Type
REMARK                         _______ _______ _______ _____ _____    ______ ____
ROOT
ATOM      1  C   UNL     1       1.560   7.973  20.938  0.00  0.00    +0.000 C 
ATOM      2  N   UNL     1       0.796   9.066  20.350  0.00  0.00    +0.000 N 
ATOM      3  C   UNL     1       1.121   9.824  19.215  0.00  0.00    +0.000 C 
ATOM      4  C   UNL     1       1.809   9.467  18.116  0.00  0.00    +0.000 C 
ATOM      5  C   UNL     1       0.443  11.242  19.371  0.00  0.00    +0.000 C 
ATOM      6  C   UNL     1      -0.676  11.403  18.327  0.00  0.00    +0.000 C 
ATOM      7  C   UNL     1       1.404  12.440  19.288  0.00  0.00    +0.000 C 
ATOM      8  C   UNL     1      -0.174  11.137  20.757  0.00  0.00    +0.000 A 
ATOM      9  C   UNL     1      -0.846  12.091  21.509  0.00  0.00    +0.000 A 
ATOM     10  C   UNL     1      -1.280  11.750  22.791  0.00  0.00    +0.000 A 
ATOM     11  C   UNL     1      -1.049  10.464  23.300  0.00  0.00    +0.000 A 
ATOM     12  C   UNL     1      -0.383   9.507  22.531  0.00  0.00    +0.000 A 
ATOM     13  C   UNL     1       0.067   9.851  21.264  0.00  0.00    +0.000 A 
ENDROOT
BRANCH   4  14
ATOM     14  C   UNL     1       2.231   8.067  17.781  0.00  0.00    +0.000 C 
ATOM     15  O   UNL     1       1.427   7.195  17.447  0.00  0.00    +0.000 OA
BRANCH  14  16
ATOM     16  C   UNL     1       3.698   7.745  17.747  0.00  0.00    +0.000 C 
BRANCH  16  17
ATOM     17  N   UNL     1       4.121   6.369  17.432  0.00  0.00    +0.000 N 
ATOM     18  C   UNL     1       3.857   5.347  18.278  0.00  0.00    +0.000 A 
ATOM     19  C   UNL     1       4.343   4.066  18.020  0.00  0.00    +0.000 A 
ATOM     20  C   UNL     1       5.108   3.829  16.891  0.00  0.00    +0.000 A 
ATOM     21  C   UNL     1       5.369   4.881  16.030  0.00  0.00    +0.000 A 
ATOM     22 BR   UNL     1       6.425   4.615  14.489  0.00  0.00    +0.000 Br
ATOM     23  C   UNL     1       4.861   6.146  16.315  0.00  0.00    +0.000 A 
ENDBRANCH  16  17
ENDBRANCH  14  16
ENDBRANCH   4  14
TORSDOF 3
ENDMDL
MODEL 9
REMARK VINA RESULT:      -6.2      7.726     11.269
REMARK  Name = 
REMARK  6 active torsions:
REMARK  status: ('A' for Active; 'I' for Inactive)
REMARK    1  A    between atoms: C_1  and  N_2
REMARK    2  A    between atoms: C_4  and  C_5
REMARK    3  A    between atoms: C_5  and  C_7
REMARK    4  A    between atoms: C_7  and  N_8
REMARK    5  A    between atoms: C_15  and  C_16
REMARK    6  A    between atoms: C_15  and  C_17
REMARK                            x       y       z     vdW  Elec       q    Type
REMARK                         _______ _______ _______ _____ _____    ______ ____
ROOT
ATOM      1  C   UNL     1      -0.219   9.354  22.512  0.00  0.00    +0.000 C 
ATOM      2  N   UNL     1       0.208  10.055  21.307  0.00  0.00    +0.000 N 
ATOM      3  C   UNL     1      -0.447  11.111  20.655  0.00  0.00    +0.000 C 
ATOM      4  C   UNL     1      -1.229  12.078  21.166  0.00  0.00    +0.000 C 
ATOM      5  C   UNL     1      -0.041  11.062  19.129  0.00  0.00    +0.000 C 
ATOM      6  C   UNL     1       0.831  12.280  18.782  0.00  0.00    +0.000 C 
ATOM      7  C   UNL     1      -1.216  10.969  18.142  0.00  0.00    +0.000 C 
ATOM      8  C   UNL     1       0.811   9.803  19.079  0.00  0.00    +0.000 A 
ATOM      9  C   UNL     1       1.403   9.169  17.994  0.00  0.00    +0.000 A 
ATOM     10  C   UNL     1       2.107   7.984  18.213  0.00  0.00    +0.000 A 
ATOM     11  C   UNL     1       2.219   7.453  19.507  0.00  0.00    +0.000 A 
ATOM     12  C   UNL     1       1.631   8.105  20.593  0.00  0.00    +0.000 A 
ATOM     13  C   UNL     1       0.914   9.273  20.374  0.00  0.00    +0.000 A 
ENDROOT
BRANCH   4  14
ATOM     14  C   UNL     1      -1.422  12.349  22.628  0.00  0.00    +0.000 C 
ATOM     15  O   UNL     1      -0.555  12.882  23.323  0.00  0.00    +0.000 OA
BRANCH  14  16
ATOM     16  C   UNL     1      -2.759  12.055  23.245  0.00  0.00    +0.000 C 
BRANCH  16  17
ATOM     17  N   UNL     1      -3.856  13.025  23.073  0.00  0.00    +0.000 N 
ATOM     18  C   UNL     1      -3.969  14.101  23.884  0.00  0.00    +0.000 A 
ATOM     19  C   UNL     1      -5.061  14.961  23.777  0.00  0.00    +0.000 A 
ATOM     20  C   UNL     1      -6.046  14.717  22.836  0.00  0.00    +0.000 A 
ATOM     21  C   UNL     1      -5.917  13.615  22.007  0.00  0.00    +0.000 A 
ATOM     22 BR   UNL     1      -7.244  13.226  20.722  0.00  0.00    +0.000 Br
ATOM     23  C   UNL     1      -4.810  12.782  22.138  0.00  0.00    +0.000 A 
ENDBRANCH  16  17
ENDBRANCH  14  16
ENDBRANCH   4  14
TORSDOF 3
ENDMDL
