MODEL 1
REMARK VINA RESULT:      -7.9      0.000      0.000
REMARK  Name = 
REMARK  13 active torsions:
REMARK  status: ('A' for Active; 'I' for Inactive)
REMARK    1  A    between atoms: C_1  and  C_2
REMARK    2  A    between atoms: C_2  and  C_3
REMARK    3  A    between atoms: C_3  and  N_4
REMARK    4  A    between atoms: N_4  and  C_5
REMARK    5  A    between atoms: N_4  and  C_22
REMARK    6  A    between atoms: C_5  and  C_6
REMARK    7  A    between atoms: C_6  and  C_7
REMARK    8  A    between atoms: C_7  and  C_8
REMARK    9  A    between atoms: C_8  and  O_9
REMARK   10  A    between atoms: O_9  and  C_10
REMARK   11  A    between atoms: C_16  and  C_17
REMARK   12  A    between atoms: N_18  and  O_19
REMARK   13  A    between atoms: C_26  and  O_27
REMARK                            x       y       z     vdW  Elec       q    Type
REMARK                         _______ _______ _______ _____ _____    ______ ____
ROOT
ATOM      1  C   UNL     1       4.849   6.650  17.152  0.00  0.00    +0.000 C 
ENDROOT
BRANCH   1   2
ATOM      2  N   UNL     1       4.733   5.325  16.520  0.00  0.00    +0.000 NA
BRANCH   2   3
ATOM      3  C   UNL     1       5.219   4.154  17.306  0.00  0.00    +0.000 C 
ATOM      4  C   UNL     1       5.745   4.395  18.731  0.00  0.00    +0.000 C 
ATOM      5  C   UNL     1       4.652   4.665  19.762  0.00  0.00    +0.000 C 
ATOM      6  C   UNL     1       3.335   3.964  19.525  0.00  0.00    +0.000 A 
ATOM      7  C   UNL     1       2.221   4.223  20.339  0.00  0.00    +0.000 A 
ATOM      8  C   UNL     1       0.979   3.651  20.071  0.00  0.00    +0.000 A 
ATOM      9  C   UNL     1       0.825   2.786  18.993  0.00  0.00    +0.000 A 
ATOM     10  C   UNL     1       1.913   2.504  18.174  0.00  0.00    +0.000 A 
ATOM     11  C   UNL     1       3.157   3.114  18.409  0.00  0.00    +0.000 A 
ATOM     12  C   UNL     1       4.258   2.936  17.388  0.00  0.00    +0.000 C 
BRANCH   7  13
ATOM     13  O   UNL     1       2.258   5.085  21.399  0.00  0.00    +0.000 OA
ATOM     14  H   UNL     1       1.993   5.970  21.109  0.00  0.00    +0.000 HD
ENDBRANCH   7  13
ENDBRANCH   2   3
BRANCH   2  15
ATOM     15  C   UNL     1       5.243   5.394  15.136  0.00  0.00    +0.000 C 
BRANCH  15  17
ATOM     16  C   UNL     1       6.340   3.926  13.413  0.00  0.00    +0.000 C 
ATOM     17  C   UNL     1       6.450   4.505  14.817  0.00  0.00    +0.000 C 
ENDBRANCH  15  17
ENDBRANCH   2  15
ENDBRANCH   1   2
BRANCH   1  18
ATOM     18  C   UNL     1       3.559   7.489  17.127  0.00  0.00    +0.000 C 
BRANCH  18  19
ATOM     19  C   UNL     1       2.527   7.082  18.192  0.00  0.00    +0.000 C 
BRANCH  19  20
ATOM     20  C   UNL     1       1.986   8.303  18.936  0.00  0.00    +0.000 C 
BRANCH  20  21
ATOM     21  O   UNL     1       1.485   9.296  18.034  0.00  0.00    +0.000 OA
BRANCH  21  22
ATOM     22  C   UNL     1       0.437  10.074  18.515  0.00  0.00    +0.000 A 
ATOM     23  C   UNL     1       0.680  11.028  19.593  0.00  0.00    +0.000 A 
ATOM     24  C   UNL     1      -0.323  11.806  20.027  0.00  0.00    +0.000 A 
ATOM     25  N   UNL     1      -1.580  11.718  19.446  0.00  0.00    +0.000 N 
ATOM     26  N   UNL     1      -2.658  12.461  19.774  0.00  0.00    +0.000 NA
ATOM     27  C   UNL     1      -3.613  12.047  18.946  0.00  0.00    +0.000 A 
ATOM     28  C   UNL     1      -3.199  11.015  18.075  0.00  0.00    +0.000 A 
ATOM     29  C   UNL     1      -1.862  10.824  18.410  0.00  0.00    +0.000 A 
ATOM     30  C   UNL     1      -0.791   9.985  17.951  0.00  0.00    +0.000 A 
BRANCH  28  31
ATOM     31  C   UNL     1      -3.935  10.332  17.038  0.00  0.00    +0.000 C 
ATOM     32  N   UNL     1      -3.914  10.590  15.760  0.00  0.00    +0.000 NA
BRANCH  32  33
ATOM     33  O   UNL     1      -3.131  11.699  15.423  0.00  0.00    +0.000 OA
ATOM     34  H   UNL     1      -3.793  12.407  15.318  0.00  0.00    +0.000 HD
ENDBRANCH  32  33
ENDBRANCH  28  31
ENDBRANCH  21  22
ENDBRANCH  20  21
ENDBRANCH  19  20
ENDBRANCH  18  19
ENDBRANCH   1  18
TORSDOF 12
ENDMDL
MODEL 2
REMARK VINA RESULT:      -7.7      2.883      5.009
REMARK  Name = 
REMARK  13 active torsions:
REMARK  status: ('A' for Active; 'I' for Inactive)
REMARK    1  A    between atoms: C_1  and  C_2
REMARK    2  A    between atoms: C_2  and  C_3
REMARK    3  A    between atoms: C_3  and  N_4
REMARK    4  A    between atoms: N_4  and  C_5
REMARK    5  A    between atoms: N_4  and  C_22
REMARK    6  A    between atoms: C_5  and  C_6
REMARK    7  A    between atoms: C_6  and  C_7
REMARK    8  A    between atoms: C_7  and  C_8
REMARK    9  A    between atoms: C_8  and  O_9
REMARK   10  A    between atoms: O_9  and  C_10
REMARK   11  A    between atoms: C_16  and  C_17
REMARK   12  A    between atoms: N_18  and  O_19
REMARK   13  A    between atoms: C_26  and  O_27
REMARK                            x       y       z     vdW  Elec       q    Type
REMARK                         _______ _______ _______ _____ _____    ______ ____
ROOT
ATOM      1  C   UNL     1       1.643   4.816  18.080  0.00  0.00    +0.000 C 
ENDROOT
BRANCH   1   2
ATOM      2  N   UNL     1       2.575   4.526  19.181  0.00  0.00    +0.000 NA
BRANCH   2   3
ATOM      3  C   UNL     1       3.580   3.447  18.954  0.00  0.00    +0.000 C 
ATOM      4  C   UNL     1       3.751   2.894  17.529  0.00  0.00    +0.000 C 
ATOM      5  C   UNL     1       4.502   3.827  16.583  0.00  0.00    +0.000 C 
ATOM      6  C   UNL     1       5.567   4.691  17.218  0.00  0.00    +0.000 A 
ATOM      7  C   UNL     1       6.244   5.670  16.473  0.00  0.00    +0.000 A 
ATOM      8  C   UNL     1       7.161   6.531  17.071  0.00  0.00    +0.000 A 
ATOM      9  C   UNL     1       7.441   6.421  18.429  0.00  0.00    +0.000 A 
ATOM     10  C   UNL     1       6.791   5.456  19.191  0.00  0.00    +0.000 A 
ATOM     11  C   UNL     1       5.831   4.615  18.605  0.00  0.00    +0.000 A 
ATOM     12  C   UNL     1       5.009   3.715  19.501  0.00  0.00    +0.000 C 
BRANCH   7  13
ATOM     13  O   UNL     1       6.014   5.883  15.142  0.00  0.00    +0.000 OA
ATOM     14  H   UNL     1       5.662   6.775  15.011  0.00  0.00    +0.000 HD
ENDBRANCH   7  13
ENDBRANCH   2   3
BRANCH   2  15
ATOM     15  C   UNL     1       1.821   4.410  20.445  0.00  0.00    +0.000 C 
BRANCH  15  17
ATOM     16  C   UNL     1       2.067   2.365  21.890  0.00  0.00    +0.000 C 
ATOM     17  C   UNL     1       1.265   3.020  20.774  0.00  0.00    +0.000 C 
ENDBRANCH  15  17
ENDBRANCH   2  15
ENDBRANCH   1   2
BRANCH   1  18
ATOM     18  C   UNL     1       1.680   6.268  17.572  0.00  0.00    +0.000 C 
BRANCH  18  19
ATOM     19  C   UNL     1       2.797   7.122  18.194  0.00  0.00    +0.000 C 
BRANCH  19  20
ATOM     20  C   UNL     1       2.709   8.576  17.731  0.00  0.00    +0.000 C 
BRANCH  20  21
ATOM     21  O   UNL     1       1.396   9.117  17.924  0.00  0.00    +0.000 OA
BRANCH  21  22
ATOM     22  C   UNL     1       1.329  10.279  18.684  0.00  0.00    +0.000 A 
ATOM     23  C   UNL     1       2.032  11.478  18.234  0.00  0.00    +0.000 A 
ATOM     24  C   UNL     1       1.931  12.610  18.947  0.00  0.00    +0.000 A 
ATOM     25  N   UNL     1       1.153  12.648  20.095  0.00  0.00    +0.000 N 
ATOM     26  N   UNL     1       0.952  13.728  20.881  0.00  0.00    +0.000 NA
ATOM     27  C   UNL     1       0.130  13.299  21.834  0.00  0.00    +0.000 A 
ATOM     28  C   UNL     1      -0.210  11.933  21.715  0.00  0.00    +0.000 A 
ATOM     29  C   UNL     1       0.459  11.531  20.565  0.00  0.00    +0.000 A 
ATOM     30  C   UNL     1       0.573  10.316  19.806  0.00  0.00    +0.000 A 
BRANCH  28  31
ATOM     31  C   UNL     1      -1.080  11.125  22.536  0.00  0.00    +0.000 C 
ATOM     32  N   UNL     1      -0.727  10.180  23.362  0.00  0.00    +0.000 NA
BRANCH  32  33
ATOM     33  O   UNL     1       0.647   9.918  23.362  0.00  0.00    +0.000 OA
ATOM     34  H   UNL     1       0.989  10.555  22.708  0.00  0.00    +0.000 HD
ENDBRANCH  32  33
ENDBRANCH  28  31
ENDBRANCH  21  22
ENDBRANCH  20  21
ENDBRANCH  19  20
ENDBRANCH  18  19
ENDBRANCH   1  18
TORSDOF 12
ENDMDL
MODEL 3
REMARK VINA RESULT:      -7.6      5.619      7.733
REMARK  Name = 
REMARK  13 active torsions:
REMARK  status: ('A' for Active; 'I' for Inactive)
REMARK    1  A    between atoms: C_1  and  C_2
REMARK    2  A    between atoms: C_2  and  C_3
REMARK    3  A    between atoms: C_3  and  N_4
REMARK    4  A    between atoms: N_4  and  C_5
REMARK    5  A    between atoms: N_4  and  C_22
REMARK    6  A    between atoms: C_5  and  C_6
REMARK    7  A    between atoms: C_6  and  C_7
REMARK    8  A    between atoms: C_7  and  C_8
REMARK    9  A    between atoms: C_8  and  O_9
REMARK   10  A    between atoms: O_9  and  C_10
REMARK   11  A    between atoms: C_16  and  C_17
REMARK   12  A    between atoms: N_18  and  O_19
REMARK   13  A    between atoms: C_26  and  O_27
REMARK                            x       y       z     vdW  Elec       q    Type
REMARK                         _______ _______ _______ _____ _____    ______ ____
ROOT
ATOM      1  C   UNL     1       5.745   6.138  17.933  0.00  0.00    +0.000 C 
ENDROOT
BRANCH   1   2
ATOM      2  N   UNL     1       4.274   6.086  17.947  0.00  0.00    +0.000 NA
BRANCH   2   3
ATOM      3  C   UNL     1       3.631   4.900  17.309  0.00  0.00    +0.000 C 
ATOM      4  C   UNL     1       4.430   3.589  17.228  0.00  0.00    +0.000 C 
ATOM      5  C   UNL     1       4.543   2.844  18.556  0.00  0.00    +0.000 C 
ATOM      6  C   UNL     1       3.365   2.984  19.492  0.00  0.00    +0.000 A 
ATOM      7  C   UNL     1       3.402   2.442  20.786  0.00  0.00    +0.000 A 
ATOM      8  C   UNL     1       2.358   2.644  21.687  0.00  0.00    +0.000 A 
ATOM      9  C   UNL     1       1.240   3.379  21.307  0.00  0.00    +0.000 A 
ATOM     10  C   UNL     1       1.172   3.922  20.028  0.00  0.00    +0.000 A 
ATOM     11  C   UNL     1       2.241   3.761  19.131  0.00  0.00    +0.000 A 
ATOM     12  C   UNL     1       2.216   4.527  17.827  0.00  0.00    +0.000 C 
BRANCH   7  13
ATOM     13  O   UNL     1       4.470   1.737  21.268  0.00  0.00    +0.000 OA
ATOM     14  H   UNL     1       4.356   1.581  22.217  0.00  0.00    +0.000 HD
ENDBRANCH   7  13
ENDBRANCH   2   3
BRANCH   2  15
ATOM     15  C   UNL     1       3.732   7.389  17.514  0.00  0.00    +0.000 C 
BRANCH  15  17
ATOM     16  C   UNL     1       2.091   9.277  17.783  0.00  0.00    +0.000 C 
ATOM     17  C   UNL     1       2.522   7.910  18.297  0.00  0.00    +0.000 C 
ENDBRANCH  15  17
ENDBRANCH   2  15
ENDBRANCH   1   2
BRANCH   1  18
ATOM     18  C   UNL     1       6.338   7.383  17.248  0.00  0.00    +0.000 C 
BRANCH  18  19
ATOM     19  C   UNL     1       7.768   7.724  17.697  0.00  0.00    +0.000 C 
BRANCH  19  20
ATOM     20  C   UNL     1       7.974   9.236  17.796  0.00  0.00    +0.000 C 
BRANCH  20  21
ATOM     21  O   UNL     1       9.024   9.571  18.710  0.00  0.00    +0.000 OA
BRANCH  21  22
ATOM     22  C   UNL     1       9.461  10.890  18.669  0.00  0.00    +0.000 A 
ATOM     23  C   UNL     1      10.874  11.190  18.887  0.00  0.00    +0.000 A 
ATOM     24  C   UNL     1      11.301  12.460  18.806  0.00  0.00    +0.000 A 
ATOM     25  N   UNL     1      10.412  13.480  18.502  0.00  0.00    +0.000 N 
ATOM     26  N   UNL     1      10.721  14.787  18.366  0.00  0.00    +0.000 NA
ATOM     27  C   UNL     1       9.569  15.372  18.053  0.00  0.00    +0.000 A 
ATOM     28  C   UNL     1       8.477  14.478  17.998  0.00  0.00    +0.000 A 
ATOM     29  C   UNL     1       9.053  13.245  18.281  0.00  0.00    +0.000 A 
ATOM     30  C   UNL     1       8.593  11.887  18.376  0.00  0.00    +0.000 A 
BRANCH  28  31
ATOM     31  C   UNL     1       7.093  14.732  17.676  0.00  0.00    +0.000 C 
ATOM     32  N   UNL     1       6.125  14.983  18.512  0.00  0.00    +0.000 NA
BRANCH  32  33
ATOM     33  O   UNL     1       6.511  14.919  19.854  0.00  0.00    +0.000 OA
ATOM     34  H   UNL     1       5.827  14.346  20.249  0.00  0.00    +0.000 HD
ENDBRANCH  32  33
ENDBRANCH  28  31
ENDBRANCH  21  22
ENDBRANCH  20  21
ENDBRANCH  19  20
ENDBRANCH  18  19
ENDBRANCH   1  18
TORSDOF 12
ENDMDL
MODEL 4
REMARK VINA RESULT:      -7.5      1.505      2.634
REMARK  Name = 
REMARK  13 active torsions:
REMARK  status: ('A' for Active; 'I' for Inactive)
REMARK    1  A    between atoms: C_1  and  C_2
REMARK    2  A    between atoms: C_2  and  C_3
REMARK    3  A    between atoms: C_3  and  N_4
REMARK    4  A    between atoms: N_4  and  C_5
REMARK    5  A    between atoms: N_4  and  C_22
REMARK    6  A    between atoms: C_5  and  C_6
REMARK    7  A    between atoms: C_6  and  C_7
REMARK    8  A    between atoms: C_7  and  C_8
REMARK    9  A    between atoms: C_8  and  O_9
REMARK   10  A    between atoms: O_9  and  C_10
REMARK   11  A    between atoms: C_16  and  C_17
REMARK   12  A    between atoms: N_18  and  O_19
REMARK   13  A    between atoms: C_26  and  O_27
REMARK                            x       y       z     vdW  Elec       q    Type
REMARK                         _______ _______ _______ _____ _____    ______ ____
ROOT
ATOM      1  C   UNL     1       4.513   6.876  17.085  0.00  0.00    +0.000 C 
ENDROOT
BRANCH   1   2
ATOM      2  N   UNL     1       4.682   5.583  16.402  0.00  0.00    +0.000 NA
BRANCH   2   3
ATOM      3  C   UNL     1       5.195   4.445  17.220  0.00  0.00    +0.000 C 
ATOM      4  C   UNL     1       5.747   4.743  18.624  0.00  0.00    +0.000 C 
ATOM      5  C   UNL     1       4.672   5.039  19.667  0.00  0.00    +0.000 C 
ATOM      6  C   UNL     1       3.357   4.318  19.482  0.00  0.00    +0.000 A 
ATOM      7  C   UNL     1       2.257   4.597  20.308  0.00  0.00    +0.000 A 
ATOM      8  C   UNL     1       1.015   4.004  20.087  0.00  0.00    +0.000 A 
ATOM      9  C   UNL     1       0.849   3.099  19.043  0.00  0.00    +0.000 A 
ATOM     10  C   UNL     1       1.924   2.798  18.213  0.00  0.00    +0.000 A 
ATOM     11  C   UNL     1       3.165   3.428  18.401  0.00  0.00    +0.000 A 
ATOM     12  C   UNL     1       4.247   3.223  17.365  0.00  0.00    +0.000 C 
BRANCH   7  13
ATOM     13  O   UNL     1       2.307   5.497  21.336  0.00  0.00    +0.000 OA
ATOM     14  H   UNL     1       3.228   5.734  21.517  0.00  0.00    +0.000 HD
ENDBRANCH   7  13
ENDBRANCH   2   3
BRANCH   2  15
ATOM     15  C   UNL     1       5.389   5.791  15.123  0.00  0.00    +0.000 C 
BRANCH  15  17
ATOM     16  C   UNL     1       5.934   3.849  13.620  0.00  0.00    +0.000 C 
ATOM     17  C   UNL     1       6.436   4.735  14.752  0.00  0.00    +0.000 C 
ENDBRANCH  15  17
ENDBRANCH   2  15
ENDBRANCH   1   2
BRANCH   1  18
ATOM     18  C   UNL     1       3.050   7.299  17.307  0.00  0.00    +0.000 C 
BRANCH  18  19
ATOM     19  C   UNL     1       2.889   8.682  17.960  0.00  0.00    +0.000 C 
BRANCH  19  20
ATOM     20  C   UNL     1       1.501   8.846  18.579  0.00  0.00    +0.000 C 
BRANCH  20  21
ATOM     21  O   UNL     1       0.530   9.247  17.607  0.00  0.00    +0.000 OA
BRANCH  21  22
ATOM     22  C   UNL     1      -0.499  10.054  18.079  0.00  0.00    +0.000 A 
ATOM     23  C   UNL     1      -1.759  10.125  17.343  0.00  0.00    +0.000 A 
ATOM     24  C   UNL     1      -2.765  10.872  17.823  0.00  0.00    +0.000 A 
ATOM     25  N   UNL     1      -2.617  11.562  19.018  0.00  0.00    +0.000 N 
ATOM     26  N   UNL     1      -3.559  12.322  19.615  0.00  0.00    +0.000 NA
ATOM     27  C   UNL     1      -2.980  12.755  20.731  0.00  0.00    +0.000 A 
ATOM     28  C   UNL     1      -1.647  12.314  20.885  0.00  0.00    +0.000 A 
ATOM     29  C   UNL     1      -1.435  11.524  19.760  0.00  0.00    +0.000 A 
ATOM     30  C   UNL     1      -0.355  10.731  19.243  0.00  0.00    +0.000 A 
BRANCH  28  31
ATOM     31  C   UNL     1      -0.714  12.555  21.959  0.00  0.00    +0.000 C 
ATOM     32  N   UNL     1      -0.489  11.792  22.992  0.00  0.00    +0.000 NA
BRANCH  32  33
ATOM     33  O   UNL     1      -1.317  10.666  23.049  0.00  0.00    +0.000 OA
ATOM     34  H   UNL     1      -1.460  10.454  22.108  0.00  0.00    +0.000 HD
ENDBRANCH  32  33
ENDBRANCH  28  31
ENDBRANCH  21  22
ENDBRANCH  20  21
ENDBRANCH  19  20
ENDBRANCH  18  19
ENDBRANCH   1  18
TORSDOF 12
ENDMDL
MODEL 5
REMARK VINA RESULT:      -7.5      2.660      4.696
REMARK  Name = 
REMARK  13 active torsions:
REMARK  status: ('A' for Active; 'I' for Inactive)
REMARK    1  A    between atoms: C_1  and  C_2
REMARK    2  A    between atoms: C_2  and  C_3
REMARK    3  A    between atoms: C_3  and  N_4
REMARK    4  A    between atoms: N_4  and  C_5
REMARK    5  A    between atoms: N_4  and  C_22
REMARK    6  A    between atoms: C_5  and  C_6
REMARK    7  A    between atoms: C_6  and  C_7
REMARK    8  A    between atoms: C_7  and  C_8
REMARK    9  A    between atoms: C_8  and  O_9
REMARK   10  A    between atoms: O_9  and  C_10
REMARK   11  A    between atoms: C_16  and  C_17
REMARK   12  A    between atoms: N_18  and  O_19
REMARK   13  A    between atoms: C_26  and  O_27
REMARK                            x       y       z     vdW  Elec       q    Type
REMARK                         _______ _______ _______ _____ _____    ______ ____
ROOT
ATOM      1  C   UNL     1       3.353   5.825  19.490  0.00  0.00    +0.000 C 
ENDROOT
BRANCH   1   2
ATOM      2  N   UNL     1       3.016   4.394  19.567  0.00  0.00    +0.000 NA
BRANCH   2   3
ATOM      3  C   UNL     1       4.002   3.433  18.990  0.00  0.00    +0.000 C 
ATOM      4  C   UNL     1       3.919   3.113  17.488  0.00  0.00    +0.000 C 
ATOM      5  C   UNL     1       4.439   4.228  16.584  0.00  0.00    +0.000 C 
ATOM      6  C   UNL     1       5.571   5.058  17.145  0.00  0.00    +0.000 A 
ATOM      7  C   UNL     1       6.054   6.181  16.456  0.00  0.00    +0.000 A 
ATOM      8  C   UNL     1       7.035   7.004  17.008  0.00  0.00    +0.000 A 
ATOM      9  C   UNL     1       7.572   6.710  18.257  0.00  0.00    +0.000 A 
ATOM     10  C   UNL     1       7.118   5.598  18.959  0.00  0.00    +0.000 A 
ATOM     11  C   UNL     1       6.097   4.792  18.429  0.00  0.00    +0.000 A 
ATOM     12  C   UNL     1       5.497   3.713  19.303  0.00  0.00    +0.000 C 
BRANCH   7  13
ATOM     13  O   UNL     1       5.567   6.576  15.241  0.00  0.00    +0.000 OA
ATOM     14  H   UNL     1       4.702   6.169  15.089  0.00  0.00    +0.000 HD
ENDBRANCH   7  13
ENDBRANCH   2   3
BRANCH   2  15
ATOM     15  C   UNL     1       1.624   4.191  19.121  0.00  0.00    +0.000 C 
BRANCH  15  17
ATOM     16  C   UNL     1       1.453   2.988  21.324  0.00  0.00    +0.000 C 
ATOM     17  C   UNL     1       0.676   3.548  20.140  0.00  0.00    +0.000 C 
ENDBRANCH  15  17
ENDBRANCH   2  15
ENDBRANCH   1   2
BRANCH   1  18
ATOM     18  C   UNL     1       2.439   6.650  18.567  0.00  0.00    +0.000 C 
BRANCH  18  19
ATOM     19  C   UNL     1       3.135   7.855  17.911  0.00  0.00    +0.000 C 
BRANCH  19  20
ATOM     20  C   UNL     1       2.365   9.150  18.169  0.00  0.00    +0.000 C 
BRANCH  20  21
ATOM     21  O   UNL     1       0.999   8.895  18.519  0.00  0.00    +0.000 OA
BRANCH  21  22
ATOM     22  C   UNL     1       0.546   9.519  19.676  0.00  0.00    +0.000 A 
ATOM     23  C   UNL     1       0.301   8.726  20.877  0.00  0.00    +0.000 A 
ATOM     24  C   UNL     1      -0.097   9.337  22.003  0.00  0.00    +0.000 A 
ATOM     25  N   UNL     1      -0.260  10.714  22.033  0.00  0.00    +0.000 N 
ATOM     26  N   UNL     1      -0.629  11.445  23.107  0.00  0.00    +0.000 NA
ATOM     27  C   UNL     1      -0.628  12.701  22.671  0.00  0.00    +0.000 A 
ATOM     28  C   UNL     1      -0.285  12.827  21.307  0.00  0.00    +0.000 A 
ATOM     29  C   UNL     1      -0.035  11.517  20.913  0.00  0.00    +0.000 A 
ATOM     30  C   UNL     1       0.383  10.863  19.704  0.00  0.00    +0.000 A 
BRANCH  28  31
ATOM     31  C   UNL     1      -0.159  14.013  20.493  0.00  0.00    +0.000 C 
ATOM     32  N   UNL     1      -1.036  14.486  19.653  0.00  0.00    +0.000 NA
BRANCH  32  33
ATOM     33  O   UNL     1      -2.173  13.683  19.515  0.00  0.00    +0.000 OA
ATOM     34  H   UNL     1      -2.190  13.495  18.558  0.00  0.00    +0.000 HD
ENDBRANCH  32  33
ENDBRANCH  28  31
ENDBRANCH  21  22
ENDBRANCH  20  21
ENDBRANCH  19  20
ENDBRANCH  18  19
ENDBRANCH   1  18
TORSDOF 12
ENDMDL
MODEL 6
REMARK VINA RESULT:      -7.4      1.459      1.683
REMARK  Name = 
REMARK  13 active torsions:
REMARK  status: ('A' for Active; 'I' for Inactive)
REMARK    1  A    between atoms: C_1  and  C_2
REMARK    2  A    between atoms: C_2  and  C_3
REMARK    3  A    between atoms: C_3  and  N_4
REMARK    4  A    between atoms: N_4  and  C_5
REMARK    5  A    between atoms: N_4  and  C_22
REMARK    6  A    between atoms: C_5  and  C_6
REMARK    7  A    between atoms: C_6  and  C_7
REMARK    8  A    between atoms: C_7  and  C_8
REMARK    9  A    between atoms: C_8  and  O_9
REMARK   10  A    between atoms: O_9  and  C_10
REMARK   11  A    between atoms: C_16  and  C_17
REMARK   12  A    between atoms: N_18  and  O_19
REMARK   13  A    between atoms: C_26  and  O_27
REMARK                            x       y       z     vdW  Elec       q    Type
REMARK                         _______ _______ _______ _____ _____    ______ ____
ROOT
ATOM      1  C   UNL     1       4.746   6.626  17.175  0.00  0.00    +0.000 C 
ENDROOT
BRANCH   1   2
ATOM      2  N   UNL     1       4.664   5.302  16.538  0.00  0.00    +0.000 NA
BRANCH   2   3
ATOM      3  C   UNL     1       5.129   4.132  17.340  0.00  0.00    +0.000 C 
ATOM      4  C   UNL     1       5.686   4.386  18.750  0.00  0.00    +0.000 C 
ATOM      5  C   UNL     1       4.619   4.709  19.793  0.00  0.00    +0.000 C 
ATOM      6  C   UNL     1       3.278   4.043  19.592  0.00  0.00    +0.000 A 
ATOM      7  C   UNL     1       2.186   4.352  20.419  0.00  0.00    +0.000 A 
ATOM      8  C   UNL     1       0.923   3.812  20.184  0.00  0.00    +0.000 A 
ATOM      9  C   UNL     1       0.726   2.930  19.126  0.00  0.00    +0.000 A 
ATOM     10  C   UNL     1       1.791   2.600  18.295  0.00  0.00    +0.000 A 
ATOM     11  C   UNL     1       3.056   3.177  18.498  0.00  0.00    +0.000 A 
ATOM     12  C   UNL     1       4.133   2.946  17.462  0.00  0.00    +0.000 C 
BRANCH   7  13
ATOM     13  O   UNL     1       2.267   5.234  21.460  0.00  0.00    +0.000 OA
ATOM     14  H   UNL     1       3.004   5.844  21.314  0.00  0.00    +0.000 HD
ENDBRANCH   7  13
ENDBRANCH   2   3
BRANCH   2  15
ATOM     15  C   UNL     1       5.226   5.377  15.174  0.00  0.00    +0.000 C 
BRANCH  15  17
ATOM     16  C   UNL     1       6.805   4.475  13.436  0.00  0.00    +0.000 C 
ATOM     17  C   UNL     1       6.030   4.158  14.708  0.00  0.00    +0.000 C 
ENDBRANCH  15  17
ENDBRANCH   2  15
ENDBRANCH   1   2
BRANCH   1  18
ATOM     18  C   UNL     1       3.456   7.461  17.089  0.00  0.00    +0.000 C 
BRANCH  18  19
ATOM     19  C   UNL     1       2.436   7.155  18.198  0.00  0.00    +0.000 C 
BRANCH  19  20
ATOM     20  C   UNL     1       2.387   8.278  19.234  0.00  0.00    +0.000 C 
BRANCH  20  21
ATOM     21  O   UNL     1       1.533   7.949  20.336  0.00  0.00    +0.000 OA
BRANCH  21  22
ATOM     22  C   UNL     1       0.675   8.959  20.757  0.00  0.00    +0.000 A 
ATOM     23  C   UNL     1       0.461   9.176  22.185  0.00  0.00    +0.000 A 
ATOM     24  C   UNL     1      -0.335  10.178  22.589  0.00  0.00    +0.000 A 
ATOM     25  N   UNL     1      -0.940  11.011  21.659  0.00  0.00    +0.000 N 
ATOM     26  N   UNL     1      -1.738  12.064  21.939  0.00  0.00    +0.000 NA
ATOM     27  C   UNL     1      -2.056  12.566  20.750  0.00  0.00    +0.000 A 
ATOM     28  C   UNL     1      -1.501  11.851  19.666  0.00  0.00    +0.000 A 
ATOM     29  C   UNL     1      -0.764  10.847  20.283  0.00  0.00    +0.000 A 
ATOM     30  C   UNL     1       0.082   9.770  19.850  0.00  0.00    +0.000 A 
BRANCH  28  31
ATOM     31  C   UNL     1      -1.603  12.100  18.248  0.00  0.00    +0.000 C 
ATOM     32  N   UNL     1      -2.475  11.593  17.422  0.00  0.00    +0.000 NA
BRANCH  32  33
ATOM     33  O   UNL     1      -3.334  10.662  18.013  0.00  0.00    +0.000 OA
ATOM     34  H   UNL     1      -3.022   9.815  17.646  0.00  0.00    +0.000 HD
ENDBRANCH  32  33
ENDBRANCH  28  31
ENDBRANCH  21  22
ENDBRANCH  20  21
ENDBRANCH  19  20
ENDBRANCH  18  19
ENDBRANCH   1  18
TORSDOF 12
ENDMDL
MODEL 7
REMARK VINA RESULT:      -7.4      2.967      4.964
REMARK  Name = 
REMARK  13 active torsions:
REMARK  status: ('A' for Active; 'I' for Inactive)
REMARK    1  A    between atoms: C_1  and  C_2
REMARK    2  A    between atoms: C_2  and  C_3
REMARK    3  A    between atoms: C_3  and  N_4
REMARK    4  A    between atoms: N_4  and  C_5
REMARK    5  A    between atoms: N_4  and  C_22
REMARK    6  A    between atoms: C_5  and  C_6
REMARK    7  A    between atoms: C_6  and  C_7
REMARK    8  A    between atoms: C_7  and  C_8
REMARK    9  A    between atoms: C_8  and  O_9
REMARK   10  A    between atoms: O_9  and  C_10
REMARK   11  A    between atoms: C_16  and  C_17
REMARK   12  A    between atoms: N_18  and  O_19
REMARK   13  A    between atoms: C_26  and  O_27
REMARK                            x       y       z     vdW  Elec       q    Type
REMARK                         _______ _______ _______ _____ _____    ______ ____
ROOT
ATOM      1  C   UNL     1       2.292   5.338  18.276  0.00  0.00    +0.000 C 
ENDROOT
BRANCH   1   2
ATOM      2  N   UNL     1       2.618   4.162  19.100  0.00  0.00    +0.000 NA
BRANCH   2   3
ATOM      3  C   UNL     1       3.638   3.216  18.558  0.00  0.00    +0.000 C 
ATOM      4  C   UNL     1       3.718   3.019  17.036  0.00  0.00    +0.000 C 
ATOM      5  C   UNL     1       4.366   4.182  16.290  0.00  0.00    +0.000 C 
ATOM      6  C   UNL     1       5.448   4.925  17.039  0.00  0.00    +0.000 A 
ATOM      7  C   UNL     1       6.036   6.082  16.503  0.00  0.00    +0.000 A 
ATOM      8  C   UNL     1       6.968   6.823  17.226  0.00  0.00    +0.000 A 
ATOM      9  C   UNL     1       7.352   6.413  18.499  0.00  0.00    +0.000 A 
ATOM     10  C   UNL     1       6.792   5.266  19.052  0.00  0.00    +0.000 A 
ATOM     11  C   UNL     1       5.817   4.540  18.348  0.00  0.00    +0.000 A 
ATOM     12  C   UNL     1       5.094   3.418  19.058  0.00  0.00    +0.000 C 
BRANCH   7  13
ATOM     13  O   UNL     1       5.700   6.588  15.278  0.00  0.00    +0.000 OA
ATOM     14  H   UNL     1       6.305   6.242  14.606  0.00  0.00    +0.000 HD
ENDBRANCH   7  13
ENDBRANCH   2   3
BRANCH   2  15
ATOM     15  C   UNL     1       1.370   3.525  19.564  0.00  0.00    +0.000 C 
BRANCH  15  17
ATOM     16  C   UNL     1       2.352   2.768  21.753  0.00  0.00    +0.000 C 
ATOM     17  C   UNL     1       1.171   3.457  21.082  0.00  0.00    +0.000 C 
ENDBRANCH  15  17
ENDBRANCH   2  15
ENDBRANCH   1   2
BRANCH   1  18
ATOM     18  C   UNL     1       2.698   6.688  18.894  0.00  0.00    +0.000 C 
BRANCH  18  19
ATOM     19  C   UNL     1       2.820   7.833  17.874  0.00  0.00    +0.000 C 
BRANCH  19  20
ATOM     20  C   UNL     1       1.584   8.732  17.899  0.00  0.00    +0.000 C 
BRANCH  20  21
ATOM     21  O   UNL     1       1.831   9.955  18.603  0.00  0.00    +0.000 OA
BRANCH  21  22
ATOM     22  C   UNL     1       1.087  10.145  19.762  0.00  0.00    +0.000 A 
ATOM     23  C   UNL     1       0.970   9.059  20.732  0.00  0.00    +0.000 A 
ATOM     24  C   UNL     1       0.286   9.259  21.869  0.00  0.00    +0.000 A 
ATOM     25  N   UNL     1      -0.295  10.492  22.130  0.00  0.00    +0.000 N 
ATOM     26  N   UNL     1      -0.983  10.824  23.243  0.00  0.00    +0.000 NA
ATOM     27  C   UNL     1      -1.322  12.096  23.058  0.00  0.00    +0.000 A 
ATOM     28  C   UNL     1      -0.890  12.624  21.821  0.00  0.00    +0.000 A 
ATOM     29  C   UNL     1      -0.209  11.562  21.236  0.00  0.00    +0.000 A 
ATOM     30  C   UNL     1       0.516  11.347  20.015  0.00  0.00    +0.000 A 
BRANCH  28  31
ATOM     31  C   UNL     1      -1.048  13.952  21.280  0.00  0.00    +0.000 C 
ATOM     32  N   UNL     1      -0.348  15.011  21.578  0.00  0.00    +0.000 NA
BRANCH  32  33
ATOM     33  O   UNL     1       0.597  14.795  22.586  0.00  0.00    +0.000 OA
ATOM     34  H   UNL     1       0.897  15.698  22.799  0.00  0.00    +0.000 HD
ENDBRANCH  32  33
ENDBRANCH  28  31
ENDBRANCH  21  22
ENDBRANCH  20  21
ENDBRANCH  19  20
ENDBRANCH  18  19
ENDBRANCH   1  18
TORSDOF 12
ENDMDL
MODEL 8
REMARK VINA RESULT:      -7.3      2.932      4.995
REMARK  Name = 
REMARK  13 active torsions:
REMARK  status: ('A' for Active; 'I' for Inactive)
REMARK    1  A    between atoms: C_1  and  C_2
REMARK    2  A    between atoms: C_2  and  C_3
REMARK    3  A    between atoms: C_3  and  N_4
REMARK    4  A    between atoms: N_4  and  C_5
REMARK    5  A    between atoms: N_4  and  C_22
REMARK    6  A    between atoms: C_5  and  C_6
REMARK    7  A    between atoms: C_6  and  C_7
REMARK    8  A    between atoms: C_7  and  C_8
REMARK    9  A    between atoms: C_8  and  O_9
REMARK   10  A    between atoms: O_9  and  C_10
REMARK   11  A    between atoms: C_16  and  C_17
REMARK   12  A    between atoms: N_18  and  O_19
REMARK   13  A    between atoms: C_26  and  O_27
REMARK                            x       y       z     vdW  Elec       q    Type
REMARK                         _______ _______ _______ _____ _____    ______ ____
ROOT
ATOM      1  C   UNL     1       2.456   6.140  18.506  0.00  0.00    +0.000 C 
ENDROOT
BRANCH   1   2
ATOM      2  N   UNL     1       2.758   5.151  19.553  0.00  0.00    +0.000 NA
BRANCH   2   3
ATOM      3  C   UNL     1       3.593   3.979  19.159  0.00  0.00    +0.000 C 
ATOM      4  C   UNL     1       3.552   3.509  17.696  0.00  0.00    +0.000 C 
ATOM      5  C   UNL     1       4.317   4.411  16.730  0.00  0.00    +0.000 C 
ATOM      6  C   UNL     1       5.539   5.097  17.296  0.00  0.00    +0.000 A 
ATOM      7  C   UNL     1       6.255   6.038  16.539  0.00  0.00    +0.000 A 
ATOM      8  C   UNL     1       7.328   6.742  17.084  0.00  0.00    +0.000 A 
ATOM      9  C   UNL     1       7.723   6.505  18.397  0.00  0.00    +0.000 A 
ATOM     10  C   UNL     1       7.037   5.573  19.168  0.00  0.00    +0.000 A 
ATOM     11  C   UNL     1       5.926   4.894  18.640  0.00  0.00    +0.000 A 
ATOM     12  C   UNL     1       5.091   4.038  19.566  0.00  0.00    +0.000 C 
BRANCH   7  13
ATOM     13  O   UNL     1       5.924   6.368  15.254  0.00  0.00    +0.000 OA
ATOM     14  H   UNL     1       5.070   5.972  15.026  0.00  0.00    +0.000 HD
ENDBRANCH   7  13
ENDBRANCH   2   3
BRANCH   2  15
ATOM     15  C   UNL     1       1.518   4.808  20.278  0.00  0.00    +0.000 C 
BRANCH  15  17
ATOM     16  C   UNL     1       1.450   2.738  21.705  0.00  0.00    +0.000 C 
ATOM     17  C   UNL     1       1.156   3.320  20.329  0.00  0.00    +0.000 C 
ENDBRANCH  15  17
ENDBRANCH   2  15
ENDBRANCH   1   2
BRANCH   1  18
ATOM     18  C   UNL     1       1.932   7.490  19.028  0.00  0.00    +0.000 C 
BRANCH  18  19
ATOM     19  C   UNL     1       2.102   8.654  18.038  0.00  0.00    +0.000 C 
BRANCH  19  20
ATOM     20  C   UNL     1       1.079   9.759  18.300  0.00  0.00    +0.000 C 
BRANCH  20  21
ATOM     21  O   UNL     1       0.494   9.645  19.602  0.00  0.00    +0.000 OA
BRANCH  21  22
ATOM     22  C   UNL     1       0.435  10.820  20.343  0.00  0.00    +0.000 A 
ATOM     23  C   UNL     1       1.419  11.874  20.106  0.00  0.00    +0.000 A 
ATOM     24  C   UNL     1       1.335  13.024  20.793  0.00  0.00    +0.000 A 
ATOM     25  N   UNL     1       0.313  13.218  21.711  0.00  0.00    +0.000 N 
ATOM     26  N   UNL     1       0.107  14.335  22.441  0.00  0.00    +0.000 NA
ATOM     27  C   UNL     1      -0.987  14.072  23.150  0.00  0.00    +0.000 A 
ATOM     28  C   UNL     1      -1.511  12.780  22.925  0.00  0.00    +0.000 A 
ATOM     29  C   UNL     1      -0.653  12.244  21.970  0.00  0.00    +0.000 A 
ATOM     30  C   UNL     1      -0.559  11.010  21.242  0.00  0.00    +0.000 A 
BRANCH  28  31
ATOM     31  C   UNL     1      -2.681  12.148  23.487  0.00  0.00    +0.000 C 
ATOM     32  N   UNL     1      -3.899  12.198  23.026  0.00  0.00    +0.000 NA
BRANCH  32  33
ATOM     33  O   UNL     1      -4.042  13.021  21.904  0.00  0.00    +0.000 OA
ATOM     34  H   UNL     1      -4.428  13.834  22.280  0.00  0.00    +0.000 HD
ENDBRANCH  32  33
ENDBRANCH  28  31
ENDBRANCH  21  22
ENDBRANCH  20  21
ENDBRANCH  19  20
ENDBRANCH  18  19
ENDBRANCH   1  18
TORSDOF 12
ENDMDL
MODEL 9
REMARK VINA RESULT:      -7.3      2.370      4.443
REMARK  Name = 
REMARK  13 active torsions:
REMARK  status: ('A' for Active; 'I' for Inactive)
REMARK    1  A    between atoms: C_1  and  C_2
REMARK    2  A    between atoms: C_2  and  C_3
REMARK    3  A    between atoms: C_3  and  N_4
REMARK    4  A    between atoms: N_4  and  C_5
REMARK    5  A    between atoms: N_4  and  C_22
REMARK    6  A    between atoms: C_5  and  C_6
REMARK    7  A    between atoms: C_6  and  C_7
REMARK    8  A    between atoms: C_7  and  C_8
REMARK    9  A    between atoms: C_8  and  O_9
REMARK   10  A    between atoms: O_9  and  C_10
REMARK   11  A    between atoms: C_16  and  C_17
REMARK   12  A    between atoms: N_18  and  O_19
REMARK   13  A    between atoms: C_26  and  O_27
REMARK                            x       y       z     vdW  Elec       q    Type
REMARK                         _______ _______ _______ _____ _____    ______ ____
ROOT
ATOM      1  C   UNL     1       1.643   8.184  20.847  0.00  0.00    +0.000 C 
ENDROOT
BRANCH   1   2
ATOM      2  N   UNL     1       2.140   7.008  20.115  0.00  0.00    +0.000 NA
BRANCH   2   3
ATOM      3  C   UNL     1       2.218   7.117  18.629  0.00  0.00    +0.000 C 
ATOM      4  C   UNL     1       3.583   7.411  17.987  0.00  0.00    +0.000 C 
ATOM      5  C   UNL     1       4.537   6.219  17.974  0.00  0.00    +0.000 C 
ATOM      6  C   UNL     1       3.890   4.860  17.845  0.00  0.00    +0.000 A 
ATOM      7  C   UNL     1       4.653   3.684  17.938  0.00  0.00    +0.000 A 
ATOM      8  C   UNL     1       4.053   2.427  17.911  0.00  0.00    +0.000 A 
ATOM      9  C   UNL     1       2.674   2.313  17.769  0.00  0.00    +0.000 A 
ATOM     10  C   UNL     1       1.893   3.460  17.667  0.00  0.00    +0.000 A 
ATOM     11  C   UNL     1       2.487   4.732  17.741  0.00  0.00    +0.000 A 
ATOM     12  C   UNL     1       1.590   5.947  17.822  0.00  0.00    +0.000 C 
BRANCH   7  13
ATOM     13  O   UNL     1       6.008   3.689  18.116  0.00  0.00    +0.000 OA
ATOM     14  H   UNL     1       6.424   4.245  17.440  0.00  0.00    +0.000 HD
ENDBRANCH   7  13
ENDBRANCH   2   3
BRANCH   2  15
ATOM     15  C   UNL     1       1.457   5.796  20.610  0.00  0.00    +0.000 C 
BRANCH  15  17
ATOM     16  C   UNL     1       1.640   3.377  21.275  0.00  0.00    +0.000 C 
ATOM     17  C   UNL     1       2.356   4.720  21.228  0.00  0.00    +0.000 C 
ENDBRANCH  15  17
ENDBRANCH   2  15
ENDBRANCH   1   2
BRANCH   1  18
ATOM     18  C   UNL     1       0.580   9.006  20.097  0.00  0.00    +0.000 C 
BRANCH  18  19
ATOM     19  C   UNL     1       1.040  10.422  19.710  0.00  0.00    +0.000 C 
BRANCH  19  20
ATOM     20  C   UNL     1       0.125  11.032  18.647  0.00  0.00    +0.000 C 
BRANCH  20  21
ATOM     21  O   UNL     1      -0.903  10.120  18.244  0.00  0.00    +0.000 OA
BRANCH  21  22
ATOM     22  C   UNL     1      -2.122  10.696  17.904  0.00  0.00    +0.000 A 
ATOM     23  C   UNL     1      -2.593  10.629  16.523  0.00  0.00    +0.000 A 
ATOM     24  C   UNL     1      -3.788  11.150  16.206  0.00  0.00    +0.000 A 
ATOM     25  N   UNL     1      -4.579  11.735  17.184  0.00  0.00    +0.000 N 
ATOM     26  N   UNL     1      -5.806  12.268  16.997  0.00  0.00    +0.000 NA
ATOM     27  C   UNL     1      -6.178  12.679  18.205  0.00  0.00    +0.000 A 
ATOM     28  C   UNL     1      -5.207  12.451  19.205  0.00  0.00    +0.000 A 
ATOM     29  C   UNL     1      -4.176  11.820  18.518  0.00  0.00    +0.000 A 
ATOM     30  C   UNL     1      -2.893  11.271  18.857  0.00  0.00    +0.000 A 
BRANCH  28  31
ATOM     31  C   UNL     1      -5.255  12.737  20.619  0.00  0.00    +0.000 C 
ATOM     32  N   UNL     1      -5.932  12.092  21.528  0.00  0.00    +0.000 NA
BRANCH  32  33
ATOM     33  O   UNL     1      -6.731  11.067  21.014  0.00  0.00    +0.000 OA
ATOM     34  H   UNL     1      -6.795  11.297  20.068  0.00  0.00    +0.000 HD
ENDBRANCH  32  33
ENDBRANCH  28  31
ENDBRANCH  21  22
ENDBRANCH  20  21
ENDBRANCH  19  20
ENDBRANCH  18  19
ENDBRANCH   1  18
TORSDOF 12
ENDMDL
