MODEL 1
REMARK VINA RESULT:      -7.7      0.000      0.000
REMARK  Name = 
REMARK  1 active torsions:
REMARK  status: ('A' for Active; 'I' for Inactive)
REMARK    1  A    between atoms: N_6  and  C_7
REMARK                            x       y       z     vdW  Elec       q    Type
REMARK                         _______ _______ _______ _____ _____    ______ ____
ROOT
ATOM      1  O   UNL     1       8.075   5.005  18.731  0.00  0.00    +0.000 OA
ATOM      2  C   UNL     1       6.959   4.661  18.359  0.00  0.00    +0.000 A 
ATOM      3  N   UNL     1       5.993   4.304  19.259  0.00  0.00    +0.000 N 
ATOM      4  C   UNL     1       4.733   3.852  18.988  0.00  0.00    +0.000 A 
ATOM      5  O   UNL     1       4.045   3.490  19.936  0.00  0.00    +0.000 OA
ATOM      6  N   UNL     1       4.339   3.839  17.663  0.00  0.00    +0.000 N 
ATOM      7  C   UNL     1       5.264   4.194  16.637  0.00  0.00    +0.000 A 
ATOM      8  N   UNL     1       4.878   4.124  15.336  0.00  0.00    +0.000 NA
ATOM      9  C   UNL     1       5.807   4.448  14.402  0.00  0.00    +0.000 A 
ATOM     10  C   UNL     1       7.092   4.834  14.733  0.00  0.00    +0.000 A 
ATOM     11  N   UNL     1       7.503   4.919  16.011  0.00  0.00    +0.000 NA
ATOM     12  C   UNL     1       6.564   4.592  16.943  0.00  0.00    +0.000 A 
ATOM     13  H   UNL     1       6.257   4.313  20.234  0.00  0.00    +0.000 HD
ENDROOT
BRANCH   6  14
ATOM     14  C   UNL     1       2.970   3.427  17.257  0.00  0.00    +0.000 C 
ATOM     15  C   UNL     1       1.871   4.379  17.698  0.00  0.00    +0.000 C 
ATOM     16  C   UNL     1       1.261   3.732  18.922  0.00  0.00    +0.000 C 
ATOM     17  O   UNL     1       1.544   2.331  18.862  0.00  0.00    +0.000 OA
ATOM     18  C   UNL     1       2.503   2.088  17.824  0.00  0.00    +0.000 C 
ENDBRANCH   6  14
TORSDOF 1
ENDMDL
MODEL 2
REMARK VINA RESULT:      -6.8      1.728      4.762
REMARK  Name = 
REMARK  1 active torsions:
REMARK  status: ('A' for Active; 'I' for Inactive)
REMARK    1  A    between atoms: N_6  and  C_7
REMARK                            x       y       z     vdW  Elec       q    Type
REMARK                         _______ _______ _______ _____ _____    ______ ____
ROOT
ATOM      1  O   UNL     1       4.316   2.027  20.971  0.00  0.00    +0.000 OA
ATOM      2  C   UNL     1       4.421   2.771  20.003  0.00  0.00    +0.000 A 
ATOM      3  N   UNL     1       5.638   3.260  19.614  0.00  0.00    +0.000 N 
ATOM      4  C   UNL     1       5.894   4.132  18.596  0.00  0.00    +0.000 A 
ATOM      5  O   UNL     1       7.047   4.528  18.466  0.00  0.00    +0.000 OA
ATOM      6  N   UNL     1       4.828   4.500  17.796  0.00  0.00    +0.000 N 
ATOM      7  C   UNL     1       3.511   4.048  18.106  0.00  0.00    +0.000 A 
ATOM      8  N   UNL     1       2.466   4.462  17.341  0.00  0.00    +0.000 NA
ATOM      9  C   UNL     1       1.233   4.022  17.698  0.00  0.00    +0.000 A 
ATOM     10  C   UNL     1       1.024   3.192  18.784  0.00  0.00    +0.000 A 
ATOM     11  N   UNL     1       2.038   2.760  19.555  0.00  0.00    +0.000 NA
ATOM     12  C   UNL     1       3.273   3.206  19.190  0.00  0.00    +0.000 A 
ATOM     13  H   UNL     1       6.432   2.998  20.180  0.00  0.00    +0.000 HD
ENDROOT
BRANCH   6  14
ATOM     14  C   UNL     1       5.001   5.394  16.621  0.00  0.00    +0.000 C 
ATOM     15  C   UNL     1       5.403   4.680  15.342  0.00  0.00    +0.000 C 
ATOM     16  C   UNL     1       6.894   4.906  15.220  0.00  0.00    +0.000 C 
ATOM     17  O   UNL     1       7.222   6.075  15.976  0.00  0.00    +0.000 OA
ATOM     18  C   UNL     1       6.091   6.454  16.772  0.00  0.00    +0.000 C 
ENDBRANCH   6  14
TORSDOF 1
ENDMDL
MODEL 3
REMARK VINA RESULT:      -6.7      1.927      3.180
REMARK  Name = 
REMARK  1 active torsions:
REMARK  status: ('A' for Active; 'I' for Inactive)
REMARK    1  A    between atoms: N_6  and  C_7
REMARK                            x       y       z     vdW  Elec       q    Type
REMARK                         _______ _______ _______ _____ _____    ______ ____
ROOT
ATOM      1  O   UNL     1       5.578   3.957  15.091  0.00  0.00    +0.000 OA
ATOM      2  C   UNL     1       5.081   4.060  16.207  0.00  0.00    +0.000 A 
ATOM      3  N   UNL     1       3.777   3.716  16.435  0.00  0.00    +0.000 N 
ATOM      4  C   UNL     1       3.083   3.828  17.605  0.00  0.00    +0.000 A 
ATOM      5  O   UNL     1       1.887   3.555  17.582  0.00  0.00    +0.000 OA
ATOM      6  N   UNL     1       3.786   4.244  18.720  0.00  0.00    +0.000 N 
ATOM      7  C   UNL     1       5.155   4.628  18.600  0.00  0.00    +0.000 A 
ATOM      8  N   UNL     1       5.818   5.086  19.695  0.00  0.00    +0.000 NA
ATOM      9  C   UNL     1       7.110   5.461  19.516  0.00  0.00    +0.000 A 
ATOM     10  C   UNL     1       7.743   5.390  18.290  0.00  0.00    +0.000 A 
ATOM     11  N   UNL     1       7.117   4.935  17.190  0.00  0.00    +0.000 NA
ATOM     12  C   UNL     1       5.820   4.561  17.377  0.00  0.00    +0.000 A 
ATOM     13  H   UNL     1       3.245   3.402  15.635  0.00  0.00    +0.000 HD
ENDROOT
BRANCH   6  14
ATOM     14  C   UNL     1       3.148   4.342  20.058  0.00  0.00    +0.000 C 
ATOM     15  C   UNL     1       2.869   3.004  20.720  0.00  0.00    +0.000 C 
ATOM     16  C   UNL     1       1.395   2.752  20.486  0.00  0.00    +0.000 C 
ATOM     17  O   UNL     1       0.768   4.016  20.255  0.00  0.00    +0.000 OA
ATOM     18  C   UNL     1       1.778   5.017  20.072  0.00  0.00    +0.000 C 
ENDBRANCH   6  14
TORSDOF 1
ENDMDL
MODEL 4
REMARK VINA RESULT:      -6.7      2.268      3.093
REMARK  Name = 
REMARK  1 active torsions:
REMARK  status: ('A' for Active; 'I' for Inactive)
REMARK    1  A    between atoms: N_6  and  C_7
REMARK                            x       y       z     vdW  Elec       q    Type
REMARK                         _______ _______ _______ _____ _____    ______ ____
ROOT
ATOM      1  O   UNL     1       5.880   3.534  15.964  0.00  0.00    +0.000 OA
ATOM      2  C   UNL     1       4.969   3.743  16.758  0.00  0.00    +0.000 A 
ATOM      3  N   UNL     1       4.359   2.714  17.421  0.00  0.00    +0.000 N 
ATOM      4  C   UNL     1       3.306   2.793  18.286  0.00  0.00    +0.000 A 
ATOM      5  O   UNL     1       2.837   1.741  18.706  0.00  0.00    +0.000 OA
ATOM      6  N   UNL     1       2.854   4.058  18.616  0.00  0.00    +0.000 N 
ATOM      7  C   UNL     1       3.418   5.207  17.986  0.00  0.00    +0.000 A 
ATOM      8  N   UNL     1       2.926   6.439  18.281  0.00  0.00    +0.000 NA
ATOM      9  C   UNL     1       3.484   7.493  17.633  0.00  0.00    +0.000 A 
ATOM     10  C   UNL     1       4.505   7.346  16.713  0.00  0.00    +0.000 A 
ATOM     11  N   UNL     1       5.018   6.141  16.405  0.00  0.00    +0.000 NA
ATOM     12  C   UNL     1       4.452   5.087  17.060  0.00  0.00    +0.000 A 
ATOM     13  H   UNL     1       4.679   1.781  17.201  0.00  0.00    +0.000 HD
ENDROOT
BRANCH   6  14
ATOM     14  C   UNL     1       1.756   4.267  19.595  0.00  0.00    +0.000 C 
ATOM     15  C   UNL     1       2.223   4.604  21.000  0.00  0.00    +0.000 C 
ATOM     16  C   UNL     1       2.113   3.306  21.770  0.00  0.00    +0.000 C 
ATOM     17  O   UNL     1       1.160   2.479  21.098  0.00  0.00    +0.000 OA
ATOM     18  C   UNL     1       0.853   3.056  19.821  0.00  0.00    +0.000 C 
ENDBRANCH   6  14
TORSDOF 1
ENDMDL
MODEL 5
REMARK VINA RESULT:      -6.7      2.152      2.600
REMARK  Name = 
REMARK  1 active torsions:
REMARK  status: ('A' for Active; 'I' for Inactive)
REMARK    1  A    between atoms: N_6  and  C_7
REMARK                            x       y       z     vdW  Elec       q    Type
REMARK                         _______ _______ _______ _____ _____    ______ ____
ROOT
ATOM      1  O   UNL     1       7.396   4.505  18.068  0.00  0.00    +0.000 OA
ATOM      2  C   UNL     1       6.204   4.464  18.352  0.00  0.00    +0.000 A 
ATOM      3  N   UNL     1       5.668   3.384  18.998  0.00  0.00    +0.000 N 
ATOM      4  C   UNL     1       4.359   3.182  19.327  0.00  0.00    +0.000 A 
ATOM      5  O   UNL     1       4.059   2.100  19.821  0.00  0.00    +0.000 OA
ATOM      6  N   UNL     1       3.476   4.215  19.073  0.00  0.00    +0.000 N 
ATOM      7  C   UNL     1       3.926   5.393  18.404  0.00  0.00    +0.000 A 
ATOM      8  N   UNL     1       3.035   6.377  18.113  0.00  0.00    +0.000 NA
ATOM      9  C   UNL     1       3.514   7.462  17.453  0.00  0.00    +0.000 A 
ATOM     10  C   UNL     1       4.840   7.583  17.084  0.00  0.00    +0.000 A 
ATOM     11  N   UNL     1       5.747   6.630  17.363  0.00  0.00    +0.000 NA
ATOM     12  C   UNL     1       5.258   5.543  18.026  0.00  0.00    +0.000 A 
ATOM     13  H   UNL     1       6.296   2.620  19.201  0.00  0.00    +0.000 HD
ENDROOT
BRANCH   6  14
ATOM     14  C   UNL     1       2.040   4.130  19.447  0.00  0.00    +0.000 C 
ATOM     15  C   UNL     1       1.753   4.433  20.907  0.00  0.00    +0.000 C 
ATOM     16  C   UNL     1       1.583   3.078  21.561  0.00  0.00    +0.000 C 
ATOM     17  O   UNL     1       1.223   2.144  20.540  0.00  0.00    +0.000 OA
ATOM     18  C   UNL     1       1.404   2.755  19.256  0.00  0.00    +0.000 C 
ENDBRANCH   6  14
TORSDOF 1
ENDMDL
MODEL 6
REMARK VINA RESULT:      -6.6      2.531      3.149
REMARK  Name = 
REMARK  1 active torsions:
REMARK  status: ('A' for Active; 'I' for Inactive)
REMARK    1  A    between atoms: N_6  and  C_7
REMARK                            x       y       z     vdW  Elec       q    Type
REMARK                         _______ _______ _______ _____ _____    ______ ____
ROOT
ATOM      1  O   UNL     1       3.397   8.184  17.666  0.00  0.00    +0.000 OA
ATOM      2  C   UNL     1       3.297   7.021  18.042  0.00  0.00    +0.000 A 
ATOM      3  N   UNL     1       2.507   6.687  19.107  0.00  0.00    +0.000 N 
ATOM      4  C   UNL     1       2.344   5.451  19.663  0.00  0.00    +0.000 A 
ATOM      5  O   UNL     1       1.664   5.373  20.681  0.00  0.00    +0.000 OA
ATOM      6  N   UNL     1       2.964   4.388  19.033  0.00  0.00    +0.000 N 
ATOM      7  C   UNL     1       3.812   4.618  17.909  0.00  0.00    +0.000 A 
ATOM      8  N   UNL     1       4.457   3.569  17.333  0.00  0.00    +0.000 NA
ATOM      9  C   UNL     1       5.270   3.851  16.284  0.00  0.00    +0.000 A 
ATOM     10  C   UNL     1       5.451   5.134  15.806  0.00  0.00    +0.000 A 
ATOM     11  N   UNL     1       4.822   6.192  16.349  0.00  0.00    +0.000 NA
ATOM     12  C   UNL     1       4.007   5.902  17.402  0.00  0.00    +0.000 A 
ATOM     13  H   UNL     1       2.039   7.448  19.579  0.00  0.00    +0.000 HD
ENDROOT
BRANCH   6  14
ATOM     14  C   UNL     1       2.805   2.991  19.513  0.00  0.00    +0.000 C 
ATOM     15  C   UNL     1       1.398   2.640  19.968  0.00  0.00    +0.000 C 
ATOM     16  C   UNL     1       1.444   2.722  21.478  0.00  0.00    +0.000 C 
ATOM     17  O   UNL     1       2.805   2.552  21.883  0.00  0.00    +0.000 OA
ATOM     18  C   UNL     1       3.653   2.625  20.729  0.00  0.00    +0.000 C 
ENDBRANCH   6  14
TORSDOF 1
ENDMDL
MODEL 7
REMARK VINA RESULT:      -6.6      1.836      3.140
REMARK  Name = 
REMARK  1 active torsions:
REMARK  status: ('A' for Active; 'I' for Inactive)
REMARK    1  A    between atoms: N_6  and  C_7
REMARK                            x       y       z     vdW  Elec       q    Type
REMARK                         _______ _______ _______ _____ _____    ______ ____
ROOT
ATOM      1  O   UNL     1       6.081   5.806  14.931  0.00  0.00    +0.000 OA
ATOM      2  C   UNL     1       5.681   5.302  15.975  0.00  0.00    +0.000 A 
ATOM      3  N   UNL     1       4.555   4.526  16.000  0.00  0.00    +0.000 N 
ATOM      4  C   UNL     1       3.969   3.950  17.091  0.00  0.00    +0.000 A 
ATOM      5  O   UNL     1       2.904   3.368  16.920  0.00  0.00    +0.000 OA
ATOM      6  N   UNL     1       4.626   4.075  18.301  0.00  0.00    +0.000 N 
ATOM      7  C   UNL     1       5.813   4.862  18.393  0.00  0.00    +0.000 A 
ATOM      8  N   UNL     1       6.418   5.019  19.600  0.00  0.00    +0.000 NA
ATOM      9  C   UNL     1       7.528   5.798  19.633  0.00  0.00    +0.000 A 
ATOM     10  C   UNL     1       8.039   6.414  18.506  0.00  0.00    +0.000 A 
ATOM     11  N   UNL     1       7.468   6.272  17.296  0.00  0.00    +0.000 NA
ATOM     12  C   UNL     1       6.353   5.488  17.271  0.00  0.00    +0.000 A 
ATOM     13  H   UNL     1       4.062   4.415  15.126  0.00  0.00    +0.000 HD
ENDROOT
BRANCH   6  14
ATOM     14  C   UNL     1       4.114   3.436  19.541  0.00  0.00    +0.000 C 
ATOM     15  C   UNL     1       3.667   1.995  19.366  0.00  0.00    +0.000 C 
ATOM     16  C   UNL     1       2.159   2.063  19.265  0.00  0.00    +0.000 C 
ATOM     17  O   UNL     1       1.734   3.278  19.888  0.00  0.00    +0.000 OA
ATOM     18  C   UNL     1       2.879   4.101  20.146  0.00  0.00    +0.000 C 
ENDBRANCH   6  14
TORSDOF 1
ENDMDL
MODEL 8
REMARK VINA RESULT:      -6.5      2.752      5.369
REMARK  Name = 
REMARK  1 active torsions:
REMARK  status: ('A' for Active; 'I' for Inactive)
REMARK    1  A    between atoms: N_6  and  C_7
REMARK                            x       y       z     vdW  Elec       q    Type
REMARK                         _______ _______ _______ _____ _____    ______ ____
ROOT
ATOM      1  O   UNL     1       1.373   6.589  20.740  0.00  0.00    +0.000 OA
ATOM      2  C   UNL     1       2.250   6.105  20.032  0.00  0.00    +0.000 A 
ATOM      3  N   UNL     1       2.801   6.816  19.002  0.00  0.00    +0.000 N 
ATOM      4  C   UNL     1       3.739   6.388  18.108  0.00  0.00    +0.000 A 
ATOM      5  O   UNL     1       4.037   7.146  17.192  0.00  0.00    +0.000 OA
ATOM      6  N   UNL     1       4.275   5.129  18.309  0.00  0.00    +0.000 N 
ATOM      7  C   UNL     1       3.777   4.297  19.356  0.00  0.00    +0.000 A 
ATOM      8  N   UNL     1       4.277   3.042  19.506  0.00  0.00    +0.000 NA
ATOM      9  C   UNL     1       3.748   2.287  20.502  0.00  0.00    +0.000 A 
ATOM     10  C   UNL     1       2.748   2.750  21.336  0.00  0.00    +0.000 A 
ATOM     11  N   UNL     1       2.238   3.989  21.217  0.00  0.00    +0.000 NA
ATOM     12  C   UNL     1       2.774   4.742  20.215  0.00  0.00    +0.000 A 
ATOM     13  H   UNL     1       2.430   7.741  18.842  0.00  0.00    +0.000 HD
ENDROOT
BRANCH   6  14
ATOM     14  C   UNL     1       5.348   4.585  17.435  0.00  0.00    +0.000 C 
ATOM     15  C   UNL     1       6.756   4.964  17.860  0.00  0.00    +0.000 C 
ATOM     16  C   UNL     1       7.148   6.102  16.942  0.00  0.00    +0.000 C 
ATOM     17  O   UNL     1       6.342   6.009  15.765  0.00  0.00    +0.000 OA
ATOM     18  C   UNL     1       5.296   5.053  15.982  0.00  0.00    +0.000 C 
ENDBRANCH   6  14
TORSDOF 1
ENDMDL
MODEL 9
REMARK VINA RESULT:      -6.5      2.337      5.175
REMARK  Name = 
REMARK  1 active torsions:
REMARK  status: ('A' for Active; 'I' for Inactive)
REMARK    1  A    between atoms: N_6  and  C_7
REMARK                            x       y       z     vdW  Elec       q    Type
REMARK                         _______ _______ _______ _____ _____    ______ ____
ROOT
ATOM      1  O   UNL     1       3.632   2.457  20.821  0.00  0.00    +0.000 OA
ATOM      2  C   UNL     1       4.005   3.377  20.101  0.00  0.00    +0.000 A 
ATOM      3  N   UNL     1       5.138   3.269  19.343  0.00  0.00    +0.000 N 
ATOM      4  C   UNL     1       5.695   4.225  18.544  0.00  0.00    +0.000 A 
ATOM      5  O   UNL     1       6.772   3.966  18.018  0.00  0.00    +0.000 OA
ATOM      6  N   UNL     1       4.998   5.409  18.396  0.00  0.00    +0.000 N 
ATOM      7  C   UNL     1       3.800   5.633  19.138  0.00  0.00    +0.000 A 
ATOM      8  N   UNL     1       3.155   6.824  19.022  0.00  0.00    +0.000 NA
ATOM      9  C   UNL     1       2.036   6.990  19.771  0.00  0.00    +0.000 A 
ATOM     10  C   UNL     1       1.554   6.009  20.618  0.00  0.00    +0.000 A 
ATOM     11  N   UNL     1       2.165   4.819  20.749  0.00  0.00    +0.000 NA
ATOM     12  C   UNL     1       3.289   4.659  19.994  0.00  0.00    +0.000 A 
ATOM     13  H   UNL     1       5.660   2.408  19.430  0.00  0.00    +0.000 HD
ENDROOT
BRANCH   6  14
ATOM     14  C   UNL     1       5.478   6.495  17.502  0.00  0.00    +0.000 C 
ATOM     15  C   UNL     1       5.059   6.344  16.050  0.00  0.00    +0.000 C 
ATOM     16  C   UNL     1       6.277   5.783  15.348  0.00  0.00    +0.000 C 
ATOM     17  O   UNL     1       7.425   6.119  16.131  0.00  0.00    +0.000 OA
ATOM     18  C   UNL     1       6.996   6.626  17.402  0.00  0.00    +0.000 C 
ENDBRANCH   6  14
TORSDOF 1
ENDMDL
