MODEL 1
REMARK VINA RESULT:      -7.7      0.000      0.000
REMARK  Name = 
REMARK  6 active torsions:
REMARK  status: ('A' for Active; 'I' for Inactive)
REMARK    1  A    between atoms: C_1  and  C_2
REMARK    2  A    between atoms: C_2  and  N_3
REMARK    3  A    between atoms: N_3  and  C_4
REMARK    4  A    between atoms: N_3  and  C_17
REMARK    5  A    between atoms: C_4  and  C_5
REMARK    6  A    between atoms: C_8  and  C_9
REMARK                            x       y       z     vdW  Elec       q    Type
REMARK                         _______ _______ _______ _____ _____    ______ ____
ROOT
ATOM      1  C   UNL     1       2.568   7.841  18.436  0.00  0.00    +0.000 A 
ATOM      2  C   UNL     1       2.297   7.390  19.734  0.00  0.00    +0.000 A 
ATOM      3  C   UNL     1       1.438   8.108  20.571  0.00  0.00    +0.000 A 
ATOM      4  C   UNL     1       0.843   9.312  20.155  0.00  0.00    +0.000 A 
ATOM      5  C   UNL     1       1.104   9.737  18.839  0.00  0.00    +0.000 A 
ATOM      6  C   UNL     1       1.956   9.018  17.991  0.00  0.00    +0.000 A 
ENDROOT
BRANCH   4   7
ATOM      7  C   UNL     1      -0.006  10.112  21.063  0.00  0.00    +0.000 A 
ATOM      8  C   UNL     1      -0.234   9.747  22.392  0.00  0.00    +0.000 A 
ATOM      9  C   UNL     1      -1.041  10.547  23.198  0.00  0.00    +0.000 A 
ATOM     10  C   UNL     1      -1.601  11.699  22.661  0.00  0.00    +0.000 A 
ATOM     11  C   UNL     1      -1.323  12.002  21.342  0.00  0.00    +0.000 A 
ATOM     12  N   UNL     1      -0.543  11.243  20.540  0.00  0.00    +0.000 NA
ENDBRANCH   4   7
BRANCH   1  13
ATOM     13  C   UNL     1       3.567   7.104  17.579  0.00  0.00    +0.000 C 
BRANCH  13  14
ATOM     14  N   UNL     1       4.155   5.846  18.126  0.00  0.00    +0.000 NA
BRANCH  14  15
ATOM     15  C   UNL     1       3.515   4.669  17.435  0.00  0.00    +0.000 C 
ATOM     16  C   UNL     1       2.158   4.194  18.021  0.00  0.00    +0.000 C 
ATOM     17  C   UNL     1       2.475   3.496  19.331  0.00  0.00    +0.000 C 
ATOM     18  S   UNL     1       3.851   2.451  18.916  0.00  0.00    +0.000 S 
ATOM     19  O   UNL     1       3.334   1.172  18.474  0.00  0.00    +0.000 OA
ATOM     20  O   UNL     1       4.862   2.555  19.950  0.00  0.00    +0.000 OA
ATOM     21  C   UNL     1       4.367   3.370  17.473  0.00  0.00    +0.000 C 
ENDBRANCH  14  15
BRANCH  14  23
ATOM     22  C   UNL     1       6.569   5.592  19.057  0.00  0.00    +0.000 C 
ATOM     23  C   UNL     1       5.628   5.820  17.873  0.00  0.00    +0.000 C 
ENDBRANCH  14  23
ENDBRANCH  13  14
ENDBRANCH   1  13
TORSDOF 5
ENDMDL
MODEL 2
REMARK VINA RESULT:      -7.6      0.665      1.116
REMARK  Name = 
REMARK  6 active torsions:
REMARK  status: ('A' for Active; 'I' for Inactive)
REMARK    1  A    between atoms: C_1  and  C_2
REMARK    2  A    between atoms: C_2  and  N_3
REMARK    3  A    between atoms: N_3  and  C_4
REMARK    4  A    between atoms: N_3  and  C_17
REMARK    5  A    between atoms: C_4  and  C_5
REMARK    6  A    between atoms: C_8  and  C_9
REMARK                            x       y       z     vdW  Elec       q    Type
REMARK                         _______ _______ _______ _____ _____    ______ ____
ROOT
ATOM      1  C   UNL     1       2.512   7.907  18.455  0.00  0.00    +0.000 A 
ATOM      2  C   UNL     1       2.228   7.446  19.747  0.00  0.00    +0.000 A 
ATOM      3  C   UNL     1       1.384   8.173  20.591  0.00  0.00    +0.000 A 
ATOM      4  C   UNL     1       0.817   9.395  20.188  0.00  0.00    +0.000 A 
ATOM      5  C   UNL     1       1.091   9.831  18.878  0.00  0.00    +0.000 A 
ATOM      6  C   UNL     1       1.928   9.103  18.023  0.00  0.00    +0.000 A 
ENDROOT
BRANCH   4   7
ATOM      7  C   UNL     1      -0.016  10.203  21.104  0.00  0.00    +0.000 A 
ATOM      8  C   UNL     1      -0.612  11.405  20.712  0.00  0.00    +0.000 A 
ATOM      9  C   UNL     1      -1.389  12.117  21.622  0.00  0.00    +0.000 A 
ATOM     10  C   UNL     1      -1.561  11.613  22.904  0.00  0.00    +0.000 A 
ATOM     11  C   UNL     1      -0.951  10.413  23.217  0.00  0.00    +0.000 A 
ATOM     12  N   UNL     1      -0.192   9.703  22.353  0.00  0.00    +0.000 NA
ENDBRANCH   4   7
BRANCH   1  13
ATOM     13  C   UNL     1       3.496   7.157  17.592  0.00  0.00    +0.000 C 
BRANCH  13  14
ATOM     14  N   UNL     1       4.097   5.910  18.148  0.00  0.00    +0.000 NA
BRANCH  14  15
ATOM     15  C   UNL     1       3.468   4.721  17.466  0.00  0.00    +0.000 C 
ATOM     16  C   UNL     1       2.129   4.222  18.072  0.00  0.00    +0.000 C 
ATOM     17  C   UNL     1       2.478   3.530  19.377  0.00  0.00    +0.000 C 
ATOM     18  S   UNL     1       3.866   2.510  18.942  0.00  0.00    +0.000 S 
ATOM     19  O   UNL     1       3.366   1.221  18.507  0.00  0.00    +0.000 OA
ATOM     20  O   UNL     1       4.891   2.632  19.960  0.00  0.00    +0.000 OA
ATOM     21  C   UNL     1       4.344   3.437  17.490  0.00  0.00    +0.000 C 
ENDBRANCH  14  15
BRANCH  14  23
ATOM     22  C   UNL     1       6.213   7.131  17.260  0.00  0.00    +0.000 C 
ATOM     23  C   UNL     1       5.570   5.896  17.893  0.00  0.00    +0.000 C 
ENDBRANCH  14  23
ENDBRANCH  13  14
ENDBRANCH   1  13
TORSDOF 5
ENDMDL
MODEL 3
REMARK VINA RESULT:      -7.5      2.808      3.730
REMARK  Name = 
REMARK  6 active torsions:
REMARK  status: ('A' for Active; 'I' for Inactive)
REMARK    1  A    between atoms: C_1  and  C_2
REMARK    2  A    between atoms: C_2  and  N_3
REMARK    3  A    between atoms: N_3  and  C_4
REMARK    4  A    between atoms: N_3  and  C_17
REMARK    5  A    between atoms: C_4  and  C_5
REMARK    6  A    between atoms: C_8  and  C_9
REMARK                            x       y       z     vdW  Elec       q    Type
REMARK                         _______ _______ _______ _____ _____    ______ ____
ROOT
ATOM      1  C   UNL     1       2.638   6.831  19.111  0.00  0.00    +0.000 A 
ATOM      2  C   UNL     1       2.690   7.552  17.912  0.00  0.00    +0.000 A 
ATOM      3  C   UNL     1       2.058   8.794  17.801  0.00  0.00    +0.000 A 
ATOM      4  C   UNL     1       1.330   9.345  18.870  0.00  0.00    +0.000 A 
ATOM      5  C   UNL     1       1.309   8.621  20.076  0.00  0.00    +0.000 A 
ATOM      6  C   UNL     1       1.949   7.381  20.198  0.00  0.00    +0.000 A 
ENDROOT
BRANCH   4   7
ATOM      7  C   UNL     1       0.598  10.622  18.733  0.00  0.00    +0.000 A 
ATOM      8  C   UNL     1      -0.781  10.676  18.518  0.00  0.00    +0.000 A 
ATOM      9  C   UNL     1      -1.413  11.912  18.401  0.00  0.00    +0.000 A 
ATOM     10  C   UNL     1      -0.655  13.071  18.508  0.00  0.00    +0.000 A 
ATOM     11  C   UNL     1       0.702  12.940  18.732  0.00  0.00    +0.000 A 
ATOM     12  N   UNL     1       1.338  11.753  18.849  0.00  0.00    +0.000 NA
ENDBRANCH   4   7
BRANCH   1  13
ATOM     13  C   UNL     1       3.249   5.453  19.184  0.00  0.00    +0.000 C 
BRANCH  13  14
ATOM     14  N   UNL     1       3.497   4.735  17.900  0.00  0.00    +0.000 NA
BRANCH  14  15
ATOM     15  C   UNL     1       4.939   4.296  17.859  0.00  0.00    +0.000 C 
ATOM     16  C   UNL     1       5.966   5.280  18.482  0.00  0.00    +0.000 C 
ATOM     17  C   UNL     1       6.092   6.442  17.514  0.00  0.00    +0.000 C 
ATOM     18  S   UNL     1       6.245   5.643  15.934  0.00  0.00    +0.000 S 
ATOM     19  O   UNL     1       7.651   5.406  15.678  0.00  0.00    +0.000 OA
ATOM     20  O   UNL     1       5.392   6.314  14.972  0.00  0.00    +0.000 OA
ATOM     21  C   UNL     1       5.500   4.094  16.424  0.00  0.00    +0.000 C 
ENDBRANCH  14  15
BRANCH  14  23
ATOM     22  C   UNL     1       1.269   3.556  18.534  0.00  0.00    +0.000 C 
ATOM     23  C   UNL     1       2.616   3.531  17.812  0.00  0.00    +0.000 C 
ENDBRANCH  14  23
ENDBRANCH  13  14
ENDBRANCH   1  13
TORSDOF 5
ENDMDL
MODEL 4
REMARK VINA RESULT:      -7.4      2.466      3.504
REMARK  Name = 
REMARK  6 active torsions:
REMARK  status: ('A' for Active; 'I' for Inactive)
REMARK    1  A    between atoms: C_1  and  C_2
REMARK    2  A    between atoms: C_2  and  N_3
REMARK    3  A    between atoms: N_3  and  C_4
REMARK    4  A    between atoms: N_3  and  C_17
REMARK    5  A    between atoms: C_4  and  C_5
REMARK    6  A    between atoms: C_8  and  C_9
REMARK                            x       y       z     vdW  Elec       q    Type
REMARK                         _______ _______ _______ _____ _____    ______ ____
ROOT
ATOM      1  C   UNL     1       2.375   7.334  19.087  0.00  0.00    +0.000 A 
ATOM      2  C   UNL     1       1.661   7.875  20.163  0.00  0.00    +0.000 A 
ATOM      3  C   UNL     1       1.103   9.154  20.076  0.00  0.00    +0.000 A 
ATOM      4  C   UNL     1       1.261   9.946  18.925  0.00  0.00    +0.000 A 
ATOM      5  C   UNL     1       1.957   9.378  17.842  0.00  0.00    +0.000 A 
ATOM      6  C   UNL     1       2.511   8.094  17.919  0.00  0.00    +0.000 A 
ENDROOT
BRANCH   4   7
ATOM      7  C   UNL     1       0.737  11.327  18.856  0.00  0.00    +0.000 A 
ATOM      8  C   UNL     1       1.567  12.436  18.680  0.00  0.00    +0.000 A 
ATOM      9  C   UNL     1       1.010  13.711  18.619  0.00  0.00    +0.000 A 
ATOM     10  C   UNL     1      -0.367  13.853  18.730  0.00  0.00    +0.000 A 
ATOM     11  C   UNL     1      -1.126  12.710  18.891  0.00  0.00    +0.000 A 
ATOM     12  N   UNL     1      -0.610  11.462  18.953  0.00  0.00    +0.000 NA
ENDBRANCH   4   7
BRANCH   1  13
ATOM     13  C   UNL     1       3.047   5.991  19.232  0.00  0.00    +0.000 C 
BRANCH  13  14
ATOM     14  N   UNL     1       3.313   5.210  17.989  0.00  0.00    +0.000 NA
BRANCH  14  15
ATOM     15  C   UNL     1       4.530   4.347  18.208  0.00  0.00    +0.000 C 
ATOM     16  C   UNL     1       5.696   5.004  18.994  0.00  0.00    +0.000 C 
ATOM     17  C   UNL     1       6.339   6.006  18.053  0.00  0.00    +0.000 C 
ATOM     18  S   UNL     1       6.493   5.099  16.533  0.00  0.00    +0.000 S 
ATOM     19  O   UNL     1       7.774   4.424  16.532  0.00  0.00    +0.000 OA
ATOM     20  O   UNL     1       6.065   5.936  15.428  0.00  0.00    +0.000 OA
ATOM     21  C   UNL     1       5.229   3.889  16.897  0.00  0.00    +0.000 C 
ENDBRANCH  14  15
BRANCH  14  23
ATOM     22  C   UNL     1       1.423   3.637  18.830  0.00  0.00    +0.000 C 
ATOM     23  C   UNL     1       2.142   4.335  17.676  0.00  0.00    +0.000 C 
ENDBRANCH  14  23
ENDBRANCH  13  14
ENDBRANCH   1  13
TORSDOF 5
ENDMDL
MODEL 5
REMARK VINA RESULT:      -7.4      2.684      3.663
REMARK  Name = 
REMARK  6 active torsions:
REMARK  status: ('A' for Active; 'I' for Inactive)
REMARK    1  A    between atoms: C_1  and  C_2
REMARK    2  A    between atoms: C_2  and  N_3
REMARK    3  A    between atoms: N_3  and  C_4
REMARK    4  A    between atoms: N_3  and  C_17
REMARK    5  A    between atoms: C_4  and  C_5
REMARK    6  A    between atoms: C_8  and  C_9
REMARK                            x       y       z     vdW  Elec       q    Type
REMARK                         _______ _______ _______ _____ _____    ______ ____
ROOT
ATOM      1  C   UNL     1       2.551   6.908  19.040  0.00  0.00    +0.000 A 
ATOM      2  C   UNL     1       2.692   7.656  17.866  0.00  0.00    +0.000 A 
ATOM      3  C   UNL     1       2.162   8.947  17.777  0.00  0.00    +0.000 A 
ATOM      4  C   UNL     1       1.451   9.523  18.845  0.00  0.00    +0.000 A 
ATOM      5  C   UNL     1       1.341   8.768  20.027  0.00  0.00    +0.000 A 
ATOM      6  C   UNL     1       1.878   7.478  20.126  0.00  0.00    +0.000 A 
ENDROOT
BRANCH   4   7
ATOM      7  C   UNL     1       0.825  10.857  18.729  0.00  0.00    +0.000 A 
ATOM      8  C   UNL     1       1.570  12.039  18.750  0.00  0.00    +0.000 A 
ATOM      9  C   UNL     1       0.920  13.265  18.632  0.00  0.00    +0.000 A 
ATOM     10  C   UNL     1      -0.461  13.288  18.490  0.00  0.00    +0.000 A 
ATOM     11  C   UNL     1      -1.130  12.079  18.466  0.00  0.00    +0.000 A 
ATOM     12  N   UNL     1      -0.524  10.877  18.578  0.00  0.00    +0.000 NA
ENDBRANCH   4   7
BRANCH   1  13
ATOM     13  C   UNL     1       3.050   5.484  19.086  0.00  0.00    +0.000 C 
BRANCH  13  14
ATOM     14  N   UNL     1       3.232   4.771  17.788  0.00  0.00    +0.000 NA
BRANCH  14  15
ATOM     15  C   UNL     1       4.574   4.084  17.795  0.00  0.00    +0.000 C 
ATOM     16  C   UNL     1       5.697   4.796  18.597  0.00  0.00    +0.000 C 
ATOM     17  C   UNL     1       6.106   6.009  17.781  0.00  0.00    +0.000 C 
ATOM     18  S   UNL     1       6.257   5.362  16.133  0.00  0.00    +0.000 S 
ATOM     19  O   UNL     1       7.618   4.901  15.948  0.00  0.00    +0.000 OA
ATOM     20  O   UNL     1       5.620   6.271  15.200  0.00  0.00    +0.000 OA
ATOM     21  C   UNL     1       5.217   3.932  16.388  0.00  0.00    +0.000 C 
ENDBRANCH  14  15
BRANCH  14  23
ATOM     22  C   UNL     1       2.443   2.309  18.057  0.00  0.00    +0.000 C 
ATOM     23  C   UNL     1       2.159   3.745  17.616  0.00  0.00    +0.000 C 
ENDBRANCH  14  23
ENDBRANCH  13  14
ENDBRANCH   1  13
TORSDOF 5
ENDMDL
MODEL 6
REMARK VINA RESULT:      -7.4      2.571      3.506
REMARK  Name = 
REMARK  6 active torsions:
REMARK  status: ('A' for Active; 'I' for Inactive)
REMARK    1  A    between atoms: C_1  and  C_2
REMARK    2  A    between atoms: C_2  and  N_3
REMARK    3  A    between atoms: N_3  and  C_4
REMARK    4  A    between atoms: N_3  and  C_17
REMARK    5  A    between atoms: C_4  and  C_5
REMARK    6  A    between atoms: C_8  and  C_9
REMARK                            x       y       z     vdW  Elec       q    Type
REMARK                         _______ _______ _______ _____ _____    ______ ____
ROOT
ATOM      1  C   UNL     1       2.425   7.219  19.064  0.00  0.00    +0.000 A 
ATOM      2  C   UNL     1       1.758   7.774  20.163  0.00  0.00    +0.000 A 
ATOM      3  C   UNL     1       1.166   9.037  20.071  0.00  0.00    +0.000 A 
ATOM      4  C   UNL     1       1.244   9.800  18.893  0.00  0.00    +0.000 A 
ATOM      5  C   UNL     1       1.895   9.217  17.790  0.00  0.00    +0.000 A 
ATOM      6  C   UNL     1       2.481   7.948  17.871  0.00  0.00    +0.000 A 
ENDROOT
BRANCH   4   7
ATOM      7  C   UNL     1       0.684  11.166  18.815  0.00  0.00    +0.000 A 
ATOM      8  C   UNL     1      -0.688  11.419  18.881  0.00  0.00    +0.000 A 
ATOM      9  C   UNL     1      -1.152  12.731  18.807  0.00  0.00    +0.000 A 
ATOM     10  C   UNL     1      -0.235  13.765  18.674  0.00  0.00    +0.000 A 
ATOM     11  C   UNL     1       1.108  13.440  18.627  0.00  0.00    +0.000 A 
ATOM     12  N   UNL     1       1.582  12.177  18.697  0.00  0.00    +0.000 NA
ENDBRANCH   4   7
BRANCH   1  13
ATOM     13  C   UNL     1       3.135   5.895  19.209  0.00  0.00    +0.000 C 
BRANCH  13  14
ATOM     14  N   UNL     1       3.402   5.112  17.968  0.00  0.00    +0.000 NA
BRANCH  14  15
ATOM     15  C   UNL     1       4.660   4.304  18.164  0.00  0.00    +0.000 C 
ATOM     16  C   UNL     1       5.807   5.010  18.935  0.00  0.00    +0.000 C 
ATOM     17  C   UNL     1       6.390   6.044  17.988  0.00  0.00    +0.000 C 
ATOM     18  S   UNL     1       6.560   5.151  16.462  0.00  0.00    +0.000 S 
ATOM     19  O   UNL     1       7.871   4.535  16.438  0.00  0.00    +0.000 OA
ATOM     20  O   UNL     1       6.078   5.973  15.368  0.00  0.00    +0.000 OA
ATOM     21  C   UNL     1       5.358   3.884  16.840  0.00  0.00    +0.000 C 
ENDBRANCH  14  15
BRANCH  14  23
ATOM     22  C   UNL     1       1.428   3.686  18.876  0.00  0.00    +0.000 C 
ATOM     23  C   UNL     1       2.262   4.184  17.696  0.00  0.00    +0.000 C 
ENDBRANCH  14  23
ENDBRANCH  13  14
ENDBRANCH   1  13
TORSDOF 5
ENDMDL
MODEL 7
REMARK VINA RESULT:      -7.4      0.719      1.541
REMARK  Name = 
REMARK  6 active torsions:
REMARK  status: ('A' for Active; 'I' for Inactive)
REMARK    1  A    between atoms: C_1  and  C_2
REMARK    2  A    between atoms: C_2  and  N_3
REMARK    3  A    between atoms: N_3  and  C_4
REMARK    4  A    between atoms: N_3  and  C_17
REMARK    5  A    between atoms: C_4  and  C_5
REMARK    6  A    between atoms: C_8  and  C_9
REMARK                            x       y       z     vdW  Elec       q    Type
REMARK                         _______ _______ _______ _____ _____    ______ ____
ROOT
ATOM      1  C   UNL     1       2.367   8.003  18.571  0.00  0.00    +0.000 A 
ATOM      2  C   UNL     1       1.845   9.209  18.088  0.00  0.00    +0.000 A 
ATOM      3  C   UNL     1       1.037  10.009  18.900  0.00  0.00    +0.000 A 
ATOM      4  C   UNL     1       0.699   9.622  20.209  0.00  0.00    +0.000 A 
ATOM      5  C   UNL     1       1.253   8.420  20.688  0.00  0.00    +0.000 A 
ATOM      6  C   UNL     1       2.072   7.618  19.883  0.00  0.00    +0.000 A 
ENDROOT
BRANCH   4   7
ATOM      7  C   UNL     1      -0.216  10.428  21.045  0.00  0.00    +0.000 A 
ATOM      8  C   UNL     1      -0.973  11.482  20.526  0.00  0.00    +0.000 A 
ATOM      9  C   UNL     1      -1.820  12.201  21.366  0.00  0.00    +0.000 A 
ATOM     10  C   UNL     1      -1.899  11.850  22.707  0.00  0.00    +0.000 A 
ATOM     11  C   UNL     1      -1.129  10.790  23.147  0.00  0.00    +0.000 A 
ATOM     12  N   UNL     1      -0.300  10.077  22.353  0.00  0.00    +0.000 NA
ENDBRANCH   4   7
BRANCH   1  13
ATOM     13  C   UNL     1       3.162   7.108  17.651  0.00  0.00    +0.000 C 
BRANCH  13  14
ATOM     14  N   UNL     1       3.791   5.891  18.241  0.00  0.00    +0.000 NA
BRANCH  14  15
ATOM     15  C   UNL     1       3.219   4.671  17.563  0.00  0.00    +0.000 C 
ATOM     16  C   UNL     1       1.953   4.060  18.221  0.00  0.00    +0.000 C 
ATOM     17  C   UNL     1       2.417   3.372  19.492  0.00  0.00    +0.000 C 
ATOM     18  S   UNL     1       3.853   2.468  18.966  0.00  0.00    +0.000 S 
ATOM     19  O   UNL     1       3.430   1.154  18.527  0.00  0.00    +0.000 OA
ATOM     20  O   UNL     1       4.916   2.648  19.937  0.00  0.00    +0.000 OA
ATOM     21  C   UNL     1       4.188   3.457  17.515  0.00  0.00    +0.000 C 
ENDBRANCH  14  15
BRANCH  14  23
ATOM     22  C   UNL     1       5.825   6.832  16.924  0.00  0.00    +0.000 C 
ATOM     23  C   UNL     1       5.269   5.924  18.022  0.00  0.00    +0.000 C 
ENDBRANCH  14  23
ENDBRANCH  13  14
ENDBRANCH   1  13
TORSDOF 5
ENDMDL
MODEL 8
REMARK VINA RESULT:      -7.4      0.812      1.330
REMARK  Name = 
REMARK  6 active torsions:
REMARK  status: ('A' for Active; 'I' for Inactive)
REMARK    1  A    between atoms: C_1  and  C_2
REMARK    2  A    between atoms: C_2  and  N_3
REMARK    3  A    between atoms: N_3  and  C_4
REMARK    4  A    between atoms: N_3  and  C_17
REMARK    5  A    between atoms: C_4  and  C_5
REMARK    6  A    between atoms: C_8  and  C_9
REMARK                            x       y       z     vdW  Elec       q    Type
REMARK                         _______ _______ _______ _____ _____    ______ ____
ROOT
ATOM      1  C   UNL     1       2.450   7.768  18.553  0.00  0.00    +0.000 A 
ATOM      2  C   UNL     1       1.899   8.964  18.078  0.00  0.00    +0.000 A 
ATOM      3  C   UNL     1       1.113   9.766  18.912  0.00  0.00    +0.000 A 
ATOM      4  C   UNL     1       0.827   9.389  20.236  0.00  0.00    +0.000 A 
ATOM      5  C   UNL     1       1.410   8.197  20.706  0.00  0.00    +0.000 A 
ATOM      6  C   UNL     1       2.206   7.394  19.880  0.00  0.00    +0.000 A 
ENDROOT
BRANCH   4   7
ATOM      7  C   UNL     1      -0.063  10.195  21.097  0.00  0.00    +0.000 A 
ATOM      8  C   UNL     1      -0.303   9.876  22.436  0.00  0.00    +0.000 A 
ATOM      9  C   UNL     1      -1.149  10.680  23.196  0.00  0.00    +0.000 A 
ATOM     10  C   UNL     1      -1.737  11.791  22.604  0.00  0.00    +0.000 A 
ATOM     11  C   UNL     1      -1.445  12.051  21.279  0.00  0.00    +0.000 A 
ATOM     12  N   UNL     1      -0.627  11.287  20.521  0.00  0.00    +0.000 NA
ENDBRANCH   4   7
BRANCH   1  13
ATOM     13  C   UNL     1       3.218   6.872  17.614  0.00  0.00    +0.000 C 
BRANCH  13  14
ATOM     14  N   UNL     1       3.844   5.643  18.183  0.00  0.00    +0.000 NA
BRANCH  14  15
ATOM     15  C   UNL     1       3.196   4.433  17.558  0.00  0.00    +0.000 C 
ATOM     16  C   UNL     1       1.652   4.341  17.698  0.00  0.00    +0.000 C 
ATOM     17  C   UNL     1       1.371   3.981  19.145  0.00  0.00    +0.000 C 
ATOM     18  S   UNL     1       2.524   2.669  19.472  0.00  0.00    +0.000 S 
ATOM     19  O   UNL     1       1.888   1.411  19.139  0.00  0.00    +0.000 OA
ATOM     20  O   UNL     1       3.156   2.894  20.758  0.00  0.00    +0.000 OA
ATOM     21  C   UNL     1       3.665   3.079  18.159  0.00  0.00    +0.000 C 
ENDBRANCH  14  15
BRANCH  14  23
ATOM     22  C   UNL     1       5.928   6.857  17.217  0.00  0.00    +0.000 C 
ATOM     23  C   UNL     1       5.307   5.627  17.878  0.00  0.00    +0.000 C 
ENDBRANCH  14  23
ENDBRANCH  13  14
ENDBRANCH   1  13
TORSDOF 5
ENDMDL
MODEL 9
REMARK VINA RESULT:      -7.3      2.341      3.462
REMARK  Name = 
REMARK  6 active torsions:
REMARK  status: ('A' for Active; 'I' for Inactive)
REMARK    1  A    between atoms: C_1  and  C_2
REMARK    2  A    between atoms: C_2  and  N_3
REMARK    3  A    between atoms: N_3  and  C_4
REMARK    4  A    between atoms: N_3  and  C_17
REMARK    5  A    between atoms: C_4  and  C_5
REMARK    6  A    between atoms: C_8  and  C_9
REMARK                            x       y       z     vdW  Elec       q    Type
REMARK                         _______ _______ _______ _____ _____    ______ ____
ROOT
ATOM      1  C   UNL     1       2.332   7.182  19.311  0.00  0.00    +0.000 A 
ATOM      2  C   UNL     1       1.726   7.840  20.388  0.00  0.00    +0.000 A 
ATOM      3  C   UNL     1       1.152   9.104  20.216  0.00  0.00    +0.000 A 
ATOM      4  C   UNL     1       1.188   9.764  18.975  0.00  0.00    +0.000 A 
ATOM      5  C   UNL     1       1.778   9.078  17.898  0.00  0.00    +0.000 A 
ATOM      6  C   UNL     1       2.346   7.808  18.060  0.00  0.00    +0.000 A 
ENDROOT
BRANCH   4   7
ATOM      7  C   UNL     1       0.649  11.130  18.808  0.00  0.00    +0.000 A 
ATOM      8  C   UNL     1       1.466  12.264  18.806  0.00  0.00    +0.000 A 
ATOM      9  C   UNL     1       0.897  13.524  18.640  0.00  0.00    +0.000 A 
ATOM     10  C   UNL     1      -0.478  13.627  18.473  0.00  0.00    +0.000 A 
ATOM     11  C   UNL     1      -1.222  12.462  18.474  0.00  0.00    +0.000 A 
ATOM     12  N   UNL     1      -0.693  11.229  18.633  0.00  0.00    +0.000 NA
ENDBRANCH   4   7
BRANCH   1  13
ATOM     13  C   UNL     1       3.026   5.861  19.535  0.00  0.00    +0.000 C 
BRANCH  13  14
ATOM     14  N   UNL     1       3.705   5.227  18.368  0.00  0.00    +0.000 NA
BRANCH  14  15
ATOM     15  C   UNL     1       5.178   5.543  18.432  0.00  0.00    +0.000 C 
ATOM     16  C   UNL     1       5.679   6.642  17.456  0.00  0.00    +0.000 C 
ATOM     17  C   UNL     1       5.677   6.021  16.071  0.00  0.00    +0.000 C 
ATOM     18  S   UNL     1       6.438   4.437  16.331  0.00  0.00    +0.000 S 
ATOM     19  O   UNL     1       7.868   4.585  16.155  0.00  0.00    +0.000 OA
ATOM     20  O   UNL     1       5.679   3.419  15.630  0.00  0.00    +0.000 OA
ATOM     21  C   UNL     1       6.101   4.342  18.083  0.00  0.00    +0.000 C 
ENDBRANCH  14  15
BRANCH  14  23
ATOM     22  C   UNL     1       2.481   3.108  17.492  0.00  0.00    +0.000 C 
ATOM     23  C   UNL     1       3.521   3.744  18.414  0.00  0.00    +0.000 C 
ENDBRANCH  14  23
ENDBRANCH  13  14
ENDBRANCH   1  13
TORSDOF 5
ENDMDL
