MODEL 1
REMARK VINA RESULT:      -7.5      0.000      0.000
REMARK  Name = 
REMARK  6 active torsions:
REMARK  status: ('A' for Active; 'I' for Inactive)
REMARK    1  A    between atoms: C_1  and  C_2
REMARK    2  A    between atoms: C_2  and  C_3
REMARK    3  A    between atoms: N_4  and  C_5
REMARK    4  A    between atoms: C_5  and  C_6
REMARK    5  A    between atoms: C_6  and  C_8
REMARK    6  A    between atoms: C_18  and  C_19
REMARK                            x       y       z     vdW  Elec       q    Type
REMARK                         _______ _______ _______ _____ _____    ______ ____
ROOT
ATOM      1  C   UNL     1       2.436   5.989  19.856  0.00  0.00    +0.000 C 
ATOM      2  N   UNL     1       3.192   5.750  18.822  0.00  0.00    +0.000 N 
ATOM      3  C   UNL     1       3.414   6.816  17.768  0.00  0.00    +0.000 C 
ATOM      4  C   UNL     1       2.595   8.097  17.897  0.00  0.00    +0.000 C 
ATOM      5  N   UNL     1       1.935   8.293  19.164  0.00  0.00    +0.000 N 
ATOM      6  C   UNL     1       1.275   9.416  19.590  0.00  0.00    +0.000 A 
ATOM      7  C   UNL     1       1.169  10.678  18.807  0.00  0.00    +0.000 C 
ATOM      8  C   UNL     1       0.729   9.112  20.822  0.00  0.00    +0.000 A 
ATOM      9  C   UNL     1       1.077   7.776  21.132  0.00  0.00    +0.000 A 
ATOM     10  C   UNL     1       1.839   7.285  20.088  0.00  0.00    +0.000 A 
ENDROOT
BRANCH   1  12
ATOM     11  C   UNL     1       1.005   4.017  20.536  0.00  0.00    +0.000 C 
ATOM     12  C   UNL     1       2.201   4.887  20.890  0.00  0.00    +0.000 C 
ENDBRANCH   1  12
BRANCH   2  13
ATOM     13  C   UNL     1       3.828   4.393  18.587  0.00  0.00    +0.000 C 
BRANCH  13  14
ATOM     14  C   UNL     1       5.310   4.434  18.267  0.00  0.00    +0.000 C 
ATOM     15  O   UNL     1       6.143   4.331  19.165  0.00  0.00    +0.000 OA
BRANCH  14  16
ATOM     16  C   UNL     1       5.781   4.516  16.845  0.00  0.00    +0.000 A 
ATOM     17  C   UNL     1       4.993   4.159  15.744  0.00  0.00    +0.000 A 
ATOM     18  C   UNL     1       5.502   4.256  14.444  0.00  0.00    +0.000 A 
ATOM     19  C   UNL     1       6.804   4.702  14.237  0.00  0.00    +0.000 A 
ATOM     20 BR   UNL     1       7.484   4.827  12.479  0.00  0.00    +0.000 Br
ATOM     21  C   UNL     1       7.603   5.057  15.319  0.00  0.00    +0.000 A 
ATOM     22  C   UNL     1       7.093   4.965  16.618  0.00  0.00    +0.000 A 
ENDBRANCH  14  16
ENDBRANCH  13  14
ENDBRANCH   2  13
TORSDOF 4
ENDMDL
MODEL 2
REMARK VINA RESULT:      -7.5      0.261      1.051
REMARK  Name = 
REMARK  6 active torsions:
REMARK  status: ('A' for Active; 'I' for Inactive)
REMARK    1  A    between atoms: C_1  and  C_2
REMARK    2  A    between atoms: C_2  and  C_3
REMARK    3  A    between atoms: N_4  and  C_5
REMARK    4  A    between atoms: C_5  and  C_6
REMARK    5  A    between atoms: C_6  and  C_8
REMARK    6  A    between atoms: C_18  and  C_19
REMARK                            x       y       z     vdW  Elec       q    Type
REMARK                         _______ _______ _______ _____ _____    ______ ____
ROOT
ATOM      1  C   UNL     1       2.528   6.027  19.839  0.00  0.00    +0.000 C 
ATOM      2  N   UNL     1       3.315   5.791  18.828  0.00  0.00    +0.000 N 
ATOM      3  C   UNL     1       3.533   6.843  17.759  0.00  0.00    +0.000 C 
ATOM      4  C   UNL     1       2.674   8.102  17.844  0.00  0.00    +0.000 C 
ATOM      5  N   UNL     1       1.977   8.303  19.089  0.00  0.00    +0.000 N 
ATOM      6  C   UNL     1       1.275   9.414  19.478  0.00  0.00    +0.000 A 
ATOM      7  C   UNL     1       1.153  10.657  18.668  0.00  0.00    +0.000 C 
ATOM      8  C   UNL     1       0.708   9.117  20.702  0.00  0.00    +0.000 A 
ATOM      9  C   UNL     1       1.087   7.798  21.046  0.00  0.00    +0.000 A 
ATOM     10  C   UNL     1       1.888   7.310  20.031  0.00  0.00    +0.000 A 
ENDROOT
BRANCH   1  12
ATOM     11  C   UNL     1       1.056   4.114  20.593  0.00  0.00    +0.000 C 
ATOM     12  C   UNL     1       2.299   4.939  20.888  0.00  0.00    +0.000 C 
ENDBRANCH   1  12
BRANCH   2  13
ATOM     13  C   UNL     1       3.996   4.449  18.635  0.00  0.00    +0.000 C 
BRANCH  13  14
ATOM     14  C   UNL     1       5.464   4.530  18.267  0.00  0.00    +0.000 C 
ATOM     15  O   UNL     1       6.325   4.556  19.145  0.00  0.00    +0.000 OA
BRANCH  14  16
ATOM     16  C   UNL     1       5.895   4.494  16.830  0.00  0.00    +0.000 A 
ATOM     17  C   UNL     1       7.112   5.014  16.371  0.00  0.00    +0.000 A 
ATOM     18  C   UNL     1       7.444   4.952  15.014  0.00  0.00    +0.000 A 
ATOM     19  C   UNL     1       6.561   4.377  14.106  0.00  0.00    +0.000 A 
ATOM     20 BR   UNL     1       7.018   4.300  12.274  0.00  0.00    +0.000 Br
ATOM     21  C   UNL     1       5.346   3.859  14.543  0.00  0.00    +0.000 A 
ATOM     22  C   UNL     1       5.015   3.917  15.900  0.00  0.00    +0.000 A 
ENDBRANCH  14  16
ENDBRANCH  13  14
ENDBRANCH   2  13
TORSDOF 4
ENDMDL
MODEL 3
REMARK VINA RESULT:      -6.9      0.945      1.390
REMARK  Name = 
REMARK  6 active torsions:
REMARK  status: ('A' for Active; 'I' for Inactive)
REMARK    1  A    between atoms: C_1  and  C_2
REMARK    2  A    between atoms: C_2  and  C_3
REMARK    3  A    between atoms: N_4  and  C_5
REMARK    4  A    between atoms: C_5  and  C_6
REMARK    5  A    between atoms: C_6  and  C_8
REMARK    6  A    between atoms: C_18  and  C_19
REMARK                            x       y       z     vdW  Elec       q    Type
REMARK                         _______ _______ _______ _____ _____    ______ ____
ROOT
ATOM      1  C   UNL     1       2.620   5.942  19.939  0.00  0.00    +0.000 C 
ATOM      2  N   UNL     1       3.480   5.708  18.988  0.00  0.00    +0.000 N 
ATOM      3  C   UNL     1       3.757   6.752  17.925  0.00  0.00    +0.000 C 
ATOM      4  C   UNL     1       2.875   7.998  17.935  0.00  0.00    +0.000 C 
ATOM      5  N   UNL     1       2.090   8.200  19.127  0.00  0.00    +0.000 N 
ATOM      6  C   UNL     1       1.345   9.304  19.452  0.00  0.00    +0.000 A 
ATOM      7  C   UNL     1       1.262  10.537  18.621  0.00  0.00    +0.000 C 
ATOM      8  C   UNL     1       0.698   9.011  20.637  0.00  0.00    +0.000 A 
ATOM      9  C   UNL     1       1.071   7.702  21.022  0.00  0.00    +0.000 A 
ATOM     10  C   UNL     1       1.949   7.216  20.070  0.00  0.00    +0.000 A 
ENDROOT
BRANCH   1  12
ATOM     11  C   UNL     1       1.133   4.007  20.605  0.00  0.00    +0.000 C 
ATOM     12  C   UNL     1       2.335   4.861  20.982  0.00  0.00    +0.000 C 
ENDBRANCH   1  12
BRANCH   2  13
ATOM     13  C   UNL     1       4.193   4.374  18.859  0.00  0.00    +0.000 C 
BRANCH  13  14
ATOM     14  C   UNL     1       4.126   3.751  17.479  0.00  0.00    +0.000 C 
ATOM     15  O   UNL     1       3.207   2.987  17.185  0.00  0.00    +0.000 OA
BRANCH  14  16
ATOM     16  C   UNL     1       5.128   4.119  16.425  0.00  0.00    +0.000 A 
ATOM     17  C   UNL     1       6.439   4.524  16.708  0.00  0.00    +0.000 A 
ATOM     18  C   UNL     1       7.319   4.859  15.673  0.00  0.00    +0.000 A 
ATOM     19  C   UNL     1       6.892   4.800  14.351  0.00  0.00    +0.000 A 
ATOM     20 BR   UNL     1       8.087   5.258  12.959  0.00  0.00    +0.000 Br
ATOM     21  C   UNL     1       5.593   4.405  14.050  0.00  0.00    +0.000 A 
ATOM     22  C   UNL     1       4.714   4.066  15.084  0.00  0.00    +0.000 A 
ENDBRANCH  14  16
ENDBRANCH  13  14
ENDBRANCH   2  13
TORSDOF 4
ENDMDL
MODEL 4
REMARK VINA RESULT:      -6.9      2.958      6.956
REMARK  Name = 
REMARK  6 active torsions:
REMARK  status: ('A' for Active; 'I' for Inactive)
REMARK    1  A    between atoms: C_1  and  C_2
REMARK    2  A    between atoms: C_2  and  C_3
REMARK    3  A    between atoms: N_4  and  C_5
REMARK    4  A    between atoms: C_5  and  C_6
REMARK    5  A    between atoms: C_6  and  C_8
REMARK    6  A    between atoms: C_18  and  C_19
REMARK                            x       y       z     vdW  Elec       q    Type
REMARK                         _______ _______ _______ _____ _____    ______ ____
ROOT
ATOM      1  C   UNL     1       6.415   5.318  17.116  0.00  0.00    +0.000 C 
ATOM      2  N   UNL     1       5.404   4.821  17.771  0.00  0.00    +0.000 N 
ATOM      3  C   UNL     1       4.396   3.931  17.072  0.00  0.00    +0.000 C 
ATOM      4  C   UNL     1       4.537   3.782  15.560  0.00  0.00    +0.000 C 
ATOM      5  N   UNL     1       5.782   4.243  14.998  0.00  0.00    +0.000 N 
ATOM      6  C   UNL     1       6.221   4.084  13.709  0.00  0.00    +0.000 A 
ATOM      7  C   UNL     1       5.477   3.343  12.654  0.00  0.00    +0.000 C 
ATOM      8  C   UNL     1       7.419   4.764  13.611  0.00  0.00    +0.000 A 
ATOM      9  C   UNL     1       7.696   5.338  14.874  0.00  0.00    +0.000 A 
ATOM     10  C   UNL     1       6.667   4.992  15.730  0.00  0.00    +0.000 A 
ENDROOT
BRANCH   1  12
ATOM     11  C   UNL     1       7.188   7.700  17.468  0.00  0.00    +0.000 C 
ATOM     12  C   UNL     1       7.401   6.240  17.835  0.00  0.00    +0.000 C 
ENDBRANCH   1  12
BRANCH   2  13
ATOM     13  C   UNL     1       5.148   5.154  19.229  0.00  0.00    +0.000 C 
BRANCH  13  14
ATOM     14  C   UNL     1       3.685   5.299  19.599  0.00  0.00    +0.000 C 
ATOM     15  O   UNL     1       3.101   4.395  20.194  0.00  0.00    +0.000 OA
BRANCH  14  16
ATOM     16  C   UNL     1       2.950   6.577  19.321  0.00  0.00    +0.000 A 
ATOM     17  C   UNL     1       3.061   7.291  18.121  0.00  0.00    +0.000 A 
ATOM     18  C   UNL     1       2.349   8.481  17.933  0.00  0.00    +0.000 A 
ATOM     19  C   UNL     1       1.529   8.969  18.945  0.00  0.00    +0.000 A 
ATOM     20 BR   UNL     1       0.574  10.579  18.684  0.00  0.00    +0.000 Br
ATOM     21  C   UNL     1       1.410   8.276  20.146  0.00  0.00    +0.000 A 
ATOM     22  C   UNL     1       2.117   7.085  20.332  0.00  0.00    +0.000 A 
ENDBRANCH  14  16
ENDBRANCH  13  14
ENDBRANCH   2  13
TORSDOF 4
ENDMDL
MODEL 5
REMARK VINA RESULT:      -6.8      2.931      6.931
REMARK  Name = 
REMARK  6 active torsions:
REMARK  status: ('A' for Active; 'I' for Inactive)
REMARK    1  A    between atoms: C_1  and  C_2
REMARK    2  A    between atoms: C_2  and  C_3
REMARK    3  A    between atoms: N_4  and  C_5
REMARK    4  A    between atoms: C_5  and  C_6
REMARK    5  A    between atoms: C_6  and  C_8
REMARK    6  A    between atoms: C_18  and  C_19
REMARK                            x       y       z     vdW  Elec       q    Type
REMARK                         _______ _______ _______ _____ _____    ______ ____
ROOT
ATOM      1  C   UNL     1       6.382   5.229  17.116  0.00  0.00    +0.000 C 
ATOM      2  N   UNL     1       5.359   4.738  17.757  0.00  0.00    +0.000 N 
ATOM      3  C   UNL     1       4.335   3.885  17.035  0.00  0.00    +0.000 C 
ATOM      4  C   UNL     1       4.476   3.771  15.519  0.00  0.00    +0.000 C 
ATOM      5  N   UNL     1       5.732   4.220  14.972  0.00  0.00    +0.000 N 
ATOM      6  C   UNL     1       6.169   4.084  13.680  0.00  0.00    +0.000 A 
ATOM      7  C   UNL     1       5.413   3.383  12.605  0.00  0.00    +0.000 C 
ATOM      8  C   UNL     1       7.382   4.741  13.600  0.00  0.00    +0.000 A 
ATOM      9  C   UNL     1       7.668   5.278  14.877  0.00  0.00    +0.000 A 
ATOM     10  C   UNL     1       6.630   4.933  15.723  0.00  0.00    +0.000 A 
ENDROOT
BRANCH   1  12
ATOM     11  C   UNL     1       7.236   7.581  17.488  0.00  0.00    +0.000 C 
ATOM     12  C   UNL     1       7.385   6.113  17.859  0.00  0.00    +0.000 C 
ENDBRANCH   1  12
BRANCH   2  13
ATOM     13  C   UNL     1       5.108   5.040  19.222  0.00  0.00    +0.000 C 
BRANCH  13  14
ATOM     14  C   UNL     1       3.645   5.158  19.603  0.00  0.00    +0.000 C 
ATOM     15  O   UNL     1       3.059   4.210  20.124  0.00  0.00    +0.000 OA
BRANCH  14  16
ATOM     16  C   UNL     1       2.912   6.456  19.428  0.00  0.00    +0.000 A 
ATOM     17  C   UNL     1       2.131   7.047  20.428  0.00  0.00    +0.000 A 
ATOM     18  C   UNL     1       1.470   8.258  20.191  0.00  0.00    +0.000 A 
ATOM     19  C   UNL     1       1.579   8.880  18.952  0.00  0.00    +0.000 A 
ATOM     20 BR   UNL     1       0.681  10.513  18.640  0.00  0.00    +0.000 Br
ATOM     21  C   UNL     1       2.348   8.305  17.945  0.00  0.00    +0.000 A 
ATOM     22  C   UNL     1       3.012   7.098  18.182  0.00  0.00    +0.000 A 
ENDBRANCH  14  16
ENDBRANCH  13  14
ENDBRANCH   2  13
TORSDOF 4
ENDMDL
MODEL 6
REMARK VINA RESULT:      -6.6      1.953      3.837
REMARK  Name = 
REMARK  6 active torsions:
REMARK  status: ('A' for Active; 'I' for Inactive)
REMARK    1  A    between atoms: C_1  and  C_2
REMARK    2  A    between atoms: C_2  and  C_3
REMARK    3  A    between atoms: N_4  and  C_5
REMARK    4  A    between atoms: C_5  and  C_6
REMARK    5  A    between atoms: C_6  and  C_8
REMARK    6  A    between atoms: C_18  and  C_19
REMARK                            x       y       z     vdW  Elec       q    Type
REMARK                         _______ _______ _______ _____ _____    ______ ____
ROOT
ATOM      1  C   UNL     1       3.270   5.952  18.304  0.00  0.00    +0.000 C 
ATOM      2  N   UNL     1       4.531   5.820  18.003  0.00  0.00    +0.000 N 
ATOM      3  C   UNL     1       5.366   4.733  18.649  0.00  0.00    +0.000 C 
ATOM      4  C   UNL     1       4.707   3.924  19.762  0.00  0.00    +0.000 C 
ATOM      5  N   UNL     1       3.276   4.061  19.874  0.00  0.00    +0.000 N 
ATOM      6  C   UNL     1       2.433   3.336  20.675  0.00  0.00    +0.000 A 
ATOM      7  C   UNL     1       2.867   2.218  21.557  0.00  0.00    +0.000 C 
ATOM      8  C   UNL     1       1.172   3.876  20.515  0.00  0.00    +0.000 A 
ATOM      9  C   UNL     1       1.272   4.946  19.595  0.00  0.00    +0.000 A 
ATOM     10  C   UNL     1       2.593   5.039  19.198  0.00  0.00    +0.000 A 
ENDROOT
BRANCH   1  12
ATOM     11  C   UNL     1       2.263   8.252  18.611  0.00  0.00    +0.000 C 
ATOM     12  C   UNL     1       2.455   7.077  17.664  0.00  0.00    +0.000 C 
ENDBRANCH   1  12
BRANCH   2  13
ATOM     13  C   UNL     1       5.236   6.773  17.055  0.00  0.00    +0.000 C 
BRANCH  13  14
ATOM     14  C   UNL     1       6.441   6.186  16.348  0.00  0.00    +0.000 C 
ATOM     15  O   UNL     1       7.576   6.404  16.767  0.00  0.00    +0.000 OA
BRANCH  14  16
ATOM     16  C   UNL     1       6.265   5.264  15.177  0.00  0.00    +0.000 A 
ATOM     17  C   UNL     1       5.142   4.447  14.994  0.00  0.00    +0.000 A 
ATOM     18  C   UNL     1       5.048   3.606  13.880  0.00  0.00    +0.000 A 
ATOM     19  C   UNL     1       6.079   3.570  12.946  0.00  0.00    +0.000 A 
ATOM     20 BR   UNL     1       5.945   2.429  11.446  0.00  0.00    +0.000 Br
ATOM     21  C   UNL     1       7.204   4.371  13.113  0.00  0.00    +0.000 A 
ATOM     22  C   UNL     1       7.296   5.214  14.224  0.00  0.00    +0.000 A 
ENDBRANCH  14  16
ENDBRANCH  13  14
ENDBRANCH   2  13
TORSDOF 4
ENDMDL
MODEL 7
REMARK VINA RESULT:      -6.6      2.879      6.655
REMARK  Name = 
REMARK  6 active torsions:
REMARK  status: ('A' for Active; 'I' for Inactive)
REMARK    1  A    between atoms: C_1  and  C_2
REMARK    2  A    between atoms: C_2  and  C_3
REMARK    3  A    between atoms: N_4  and  C_5
REMARK    4  A    between atoms: C_5  and  C_6
REMARK    5  A    between atoms: C_6  and  C_8
REMARK    6  A    between atoms: C_18  and  C_19
REMARK                            x       y       z     vdW  Elec       q    Type
REMARK                         _______ _______ _______ _____ _____    ______ ____
ROOT
ATOM      1  C   UNL     1       5.638   4.950  18.052  0.00  0.00    +0.000 C 
ATOM      2  N   UNL     1       4.608   4.256  18.446  0.00  0.00    +0.000 N 
ATOM      3  C   UNL     1       3.853   3.376  17.470  0.00  0.00    +0.000 C 
ATOM      4  C   UNL     1       4.256   3.470  16.001  0.00  0.00    +0.000 C 
ATOM      5  N   UNL     1       5.504   4.140  15.735  0.00  0.00    +0.000 N 
ATOM      6  C   UNL     1       6.163   4.221  14.536  0.00  0.00    +0.000 A 
ATOM      7  C   UNL     1       5.705   3.569  13.279  0.00  0.00    +0.000 C 
ATOM      8  C   UNL     1       7.262   5.033  14.742  0.00  0.00    +0.000 A 
ATOM      9  C   UNL     1       7.253   5.439  16.097  0.00  0.00    +0.000 A 
ATOM     10  C   UNL     1       6.152   4.862  16.704  0.00  0.00    +0.000 A 
ENDROOT
BRANCH   1  12
ATOM     11  C   UNL     1       7.803   5.415  19.274  0.00  0.00    +0.000 C 
ATOM     12  C   UNL     1       6.364   5.855  19.047  0.00  0.00    +0.000 C 
ENDBRANCH   1  12
BRANCH   2  13
ATOM     13  C   UNL     1       4.077   4.340  19.865  0.00  0.00    +0.000 C 
BRANCH  13  14
ATOM     14  C   UNL     1       2.646   4.827  19.979  0.00  0.00    +0.000 C 
ATOM     15  O   UNL     1       1.771   4.088  20.425  0.00  0.00    +0.000 OA
BRANCH  14  16
ATOM     16  C   UNL     1       2.292   6.243  19.629  0.00  0.00    +0.000 A 
ATOM     17  C   UNL     1       2.490   6.802  18.361  0.00  0.00    +0.000 A 
ATOM     18  C   UNL     1       2.141   8.133  18.108  0.00  0.00    +0.000 A 
ATOM     19  C   UNL     1       1.599   8.915  19.122  0.00  0.00    +0.000 A 
ATOM     20 BR   UNL     1       1.133  10.713  18.772  0.00  0.00    +0.000 Br
ATOM     21  C   UNL     1       1.398   8.378  20.390  0.00  0.00    +0.000 A 
ATOM     22  C   UNL     1       1.743   7.047  20.642  0.00  0.00    +0.000 A 
ENDBRANCH  14  16
ENDBRANCH  13  14
ENDBRANCH   2  13
TORSDOF 4
ENDMDL
MODEL 8
REMARK VINA RESULT:      -6.5      5.467      8.235
REMARK  Name = 
REMARK  6 active torsions:
REMARK  status: ('A' for Active; 'I' for Inactive)
REMARK    1  A    between atoms: C_1  and  C_2
REMARK    2  A    between atoms: C_2  and  C_3
REMARK    3  A    between atoms: N_4  and  C_5
REMARK    4  A    between atoms: C_5  and  C_6
REMARK    5  A    between atoms: C_6  and  C_8
REMARK    6  A    between atoms: C_18  and  C_19
REMARK                            x       y       z     vdW  Elec       q    Type
REMARK                         _______ _______ _______ _____ _____    ______ ____
ROOT
ATOM      1  C   UNL     1      -3.058  11.724  18.365  0.00  0.00    +0.000 C 
ATOM      2  N   UNL     1      -2.338  12.070  19.394  0.00  0.00    +0.000 N 
ATOM      3  C   UNL     1      -2.998  12.580  20.660  0.00  0.00    +0.000 C 
ATOM      4  C   UNL     1      -4.505  12.814  20.606  0.00  0.00    +0.000 C 
ATOM      5  N   UNL     1      -5.189  12.237  19.476  0.00  0.00    +0.000 N 
ATOM      6  C   UNL     1      -6.543  12.167  19.273  0.00  0.00    +0.000 A 
ATOM      7  C   UNL     1      -7.565  12.649  20.243  0.00  0.00    +0.000 C 
ATOM      8  C   UNL     1      -6.728  11.615  18.020  0.00  0.00    +0.000 A 
ATOM      9  C   UNL     1      -5.451  11.352  17.470  0.00  0.00    +0.000 A 
ATOM     10  C   UNL     1      -4.503  11.738  18.399  0.00  0.00    +0.000 A 
ENDROOT
BRANCH   1  12
ATOM     11  C   UNL     1      -2.278   9.724  17.026  0.00  0.00    +0.000 C 
ATOM     12  C   UNL     1      -2.368  11.242  17.088  0.00  0.00    +0.000 C 
ENDBRANCH   1  12
BRANCH   2  13
ATOM     13  C   UNL     1      -0.821  12.042  19.361  0.00  0.00    +0.000 C 
BRANCH  13  14
ATOM     14  C   UNL     1      -0.186  10.990  20.248  0.00  0.00    +0.000 C 
ATOM     15  O   UNL     1      -0.441  10.954  21.450  0.00  0.00    +0.000 OA
BRANCH  14  16
ATOM     16  C   UNL     1       0.696   9.928  19.661  0.00  0.00    +0.000 A 
ATOM     17  C   UNL     1       1.151   9.941  18.336  0.00  0.00    +0.000 A 
ATOM     18  C   UNL     1       1.967   8.911  17.854  0.00  0.00    +0.000 A 
ATOM     19  C   UNL     1       2.326   7.859  18.690  0.00  0.00    +0.000 A 
ATOM     20 BR   UNL     1       3.426   6.471  18.030  0.00  0.00    +0.000 Br
ATOM     21  C   UNL     1       1.881   7.827  20.008  0.00  0.00    +0.000 A 
ATOM     22  C   UNL     1       1.069   8.857  20.491  0.00  0.00    +0.000 A 
ENDBRANCH  14  16
ENDBRANCH  13  14
ENDBRANCH   2  13
TORSDOF 4
ENDMDL
MODEL 9
REMARK VINA RESULT:      -6.5      1.948      3.933
REMARK  Name = 
REMARK  6 active torsions:
REMARK  status: ('A' for Active; 'I' for Inactive)
REMARK    1  A    between atoms: C_1  and  C_2
REMARK    2  A    between atoms: C_2  and  C_3
REMARK    3  A    between atoms: N_4  and  C_5
REMARK    4  A    between atoms: C_5  and  C_6
REMARK    5  A    between atoms: C_6  and  C_8
REMARK    6  A    between atoms: C_18  and  C_19
REMARK                            x       y       z     vdW  Elec       q    Type
REMARK                         _______ _______ _______ _____ _____    ______ ____
ROOT
ATOM      1  C   UNL     1       3.276   5.895  18.319  0.00  0.00    +0.000 C 
ATOM      2  N   UNL     1       4.542   5.749  18.046  0.00  0.00    +0.000 N 
ATOM      3  C   UNL     1       5.354   4.660  18.718  0.00  0.00    +0.000 C 
ATOM      4  C   UNL     1       4.665   3.868  19.826  0.00  0.00    +0.000 C 
ATOM      5  N   UNL     1       3.234   4.019  19.907  0.00  0.00    +0.000 N 
ATOM      6  C   UNL     1       2.368   3.310  20.698  0.00  0.00    +0.000 A 
ATOM      7  C   UNL     1       2.773   2.196  21.599  0.00  0.00    +0.000 C 
ATOM      8  C   UNL     1       1.115   3.859  20.507  0.00  0.00    +0.000 A 
ATOM      9  C   UNL     1       1.244   4.920  19.579  0.00  0.00    +0.000 A 
ATOM     10  C   UNL     1       2.574   4.997  19.208  0.00  0.00    +0.000 A 
ENDROOT
BRANCH   1  12
ATOM     11  C   UNL     1       2.328   8.227  18.566  0.00  0.00    +0.000 C 
ATOM     12  C   UNL     1       2.485   7.021  17.653  0.00  0.00    +0.000 C 
ENDBRANCH   1  12
BRANCH   2  13
ATOM     13  C   UNL     1       5.274   6.686  17.103  0.00  0.00    +0.000 C 
BRANCH  13  14
ATOM     14  C   UNL     1       6.517   6.098  16.465  0.00  0.00    +0.000 C 
ATOM     15  O   UNL     1       7.620   6.260  16.985  0.00  0.00    +0.000 OA
BRANCH  14  16
ATOM     16  C   UNL     1       6.413   5.241  15.238  0.00  0.00    +0.000 A 
ATOM     17  C   UNL     1       7.393   5.193  14.239  0.00  0.00    +0.000 A 
ATOM     18  C   UNL     1       7.226   4.374  13.117  0.00  0.00    +0.000 A 
ATOM     19  C   UNL     1       6.075   3.604  12.982  0.00  0.00    +0.000 A 
ATOM     20 BR   UNL     1       5.855   2.503  11.463  0.00  0.00    +0.000 Br
ATOM     21  C   UNL     1       5.088   3.642  13.963  0.00  0.00    +0.000 A 
ATOM     22  C   UNL     1       5.257   4.457  15.086  0.00  0.00    +0.000 A 
ENDBRANCH  14  16
ENDBRANCH  13  14
ENDBRANCH   2  13
TORSDOF 4
ENDMDL
