MODEL 1
REMARK VINA RESULT:      -8.6      0.000      0.000
REMARK  Name = 
REMARK  5 active torsions:
REMARK  status: ('A' for Active; 'I' for Inactive)
REMARK    1  A    between atoms: C_1  and  C_2
REMARK    2  A    between atoms: C_2  and  C_3
REMARK    3  A    between atoms: N_5  and  C_6
REMARK    4  A    between atoms: C_6  and  C_7
REMARK    5  A    between atoms: C_14  and  C_15
REMARK                            x       y       z     vdW  Elec       q    Type
REMARK                         _______ _______ _______ _____ _____    ______ ____
ROOT
ATOM      1  C   UNL     1       7.536   6.384  18.551  0.00  0.00    +0.000 C 
ATOM      2  C   UNL     1       6.480   5.929  17.540  0.00  0.00    +0.000 C 
ATOM      3  C   UNL     1       5.374   5.083  18.208  0.00  0.00    +0.000 C 
ATOM      4  C   UNL     1       4.211   6.000  18.123  0.00  0.00    +0.000 A 
ATOM      5  C   UNL     1       2.906   5.901  18.609  0.00  0.00    +0.000 A 
ATOM      6  C   UNL     1       2.076   7.003  18.317  0.00  0.00    +0.000 A 
ATOM      7  C   UNL     1       2.565   8.090  17.592  0.00  0.00    +0.000 A 
ATOM      8  N   UNL     1       3.819   8.172  17.117  0.00  0.00    +0.000 NA
ATOM      9  C   UNL     1       4.590   7.121  17.408  0.00  0.00    +0.000 A 
ATOM     10  O   UNL     1       5.889   7.105  16.948  0.00  0.00    +0.000 OA
ENDROOT
BRANCH   5  11
ATOM     11  C   UNL     1       2.363   4.742  19.368  0.00  0.00    +0.000 A 
ATOM     12  C   UNL     1       2.587   4.609  20.754  0.00  0.00    +0.000 A 
ATOM     13  C   UNL     1       2.024   3.564  21.498  0.00  0.00    +0.000 A 
ATOM     14  C   UNL     1       1.242   2.604  20.870  0.00  0.00    +0.000 A 
ATOM     15  C   UNL     1       1.017   2.695  19.503  0.00  0.00    +0.000 A 
ATOM     16  C   UNL     1       1.558   3.758  18.768  0.00  0.00    +0.000 A 
ENDBRANCH   5  11
BRANCH   2  17
ATOM     17  C   UNL     1       7.157   5.096  16.431  0.00  0.00    +0.000 C 
ATOM     18  O   UNL     1       7.902   4.147  16.684  0.00  0.00    +0.000 OA
ATOM     19  N   UNL     1       6.783   5.409  15.141  0.00  0.00    +0.000 N 
ATOM     20  H   UNL     1       6.428   6.348  14.982  0.00  0.00    +0.000 HD
BRANCH  19  21
ATOM     21  C   UNL     1       7.426   4.752  14.025  0.00  0.00    +0.000 C 
BRANCH  21  22
ATOM     22  C   UNL     1       6.404   4.074  13.194  0.00  0.00    +0.000 A 
ATOM     23  C   UNL     1       5.024   4.065  13.216  0.00  0.00    +0.000 A 
ATOM     24  C   UNL     1       4.612   3.174  12.197  0.00  0.00    +0.000 A 
ATOM     25  C   UNL     1       5.764   2.704  11.612  0.00  0.00    +0.000 A 
ATOM     26  O   UNL     1       6.857   3.248  12.206  0.00  0.00    +0.000 OA
ENDBRANCH  21  22
ENDBRANCH  19  21
ENDBRANCH   2  17
TORSDOF 4
ENDMDL
MODEL 2
REMARK VINA RESULT:      -8.5      0.388      1.002
REMARK  Name = 
REMARK  5 active torsions:
REMARK  status: ('A' for Active; 'I' for Inactive)
REMARK    1  A    between atoms: C_1  and  C_2
REMARK    2  A    between atoms: C_2  and  C_3
REMARK    3  A    between atoms: N_5  and  C_6
REMARK    4  A    between atoms: C_6  and  C_7
REMARK    5  A    between atoms: C_14  and  C_15
REMARK                            x       y       z     vdW  Elec       q    Type
REMARK                         _______ _______ _______ _____ _____    ______ ____
ROOT
ATOM      1  C   UNL     1       7.420   6.092  18.609  0.00  0.00    +0.000 C 
ATOM      2  C   UNL     1       6.402   5.798  17.503  0.00  0.00    +0.000 C 
ATOM      3  C   UNL     1       5.223   4.946  18.022  0.00  0.00    +0.000 C 
ATOM      4  C   UNL     1       4.110   5.925  17.975  0.00  0.00    +0.000 A 
ATOM      5  C   UNL     1       2.776   5.845  18.381  0.00  0.00    +0.000 A 
ATOM      6  C   UNL     1       2.015   7.012  18.165  0.00  0.00    +0.000 A 
ATOM      7  C   UNL     1       2.594   8.141  17.584  0.00  0.00    +0.000 A 
ATOM      8  N   UNL     1       3.875   8.207  17.184  0.00  0.00    +0.000 NA
ATOM      9  C   UNL     1       4.579   7.093  17.401  0.00  0.00    +0.000 A 
ATOM     10  O   UNL     1       5.900   7.057  17.009  0.00  0.00    +0.000 OA
ENDROOT
BRANCH   5  11
ATOM     11  C   UNL     1       2.139   4.644  18.986  0.00  0.00    +0.000 A 
ATOM     12  C   UNL     1       1.798   3.525  18.197  0.00  0.00    +0.000 A 
ATOM     13  C   UNL     1       1.265   2.358  18.760  0.00  0.00    +0.000 A 
ATOM     14  C   UNL     1       1.029   2.288  20.126  0.00  0.00    +0.000 A 
ATOM     15  C   UNL     1       1.335   3.380  20.928  0.00  0.00    +0.000 A 
ATOM     16  C   UNL     1       1.896   4.533  20.366  0.00  0.00    +0.000 A 
ENDBRANCH   5  11
BRANCH   2  17
ATOM     17  C   UNL     1       7.101   5.049  16.349  0.00  0.00    +0.000 C 
ATOM     18  O   UNL     1       7.866   4.102  16.547  0.00  0.00    +0.000 OA
ATOM     19  N   UNL     1       6.724   5.432  15.079  0.00  0.00    +0.000 N 
ATOM     20  H   UNL     1       6.349   6.371  14.975  0.00  0.00    +0.000 HD
BRANCH  19  21
ATOM     21  C   UNL     1       7.385   4.858  13.928  0.00  0.00    +0.000 C 
BRANCH  21  22
ATOM     22  C   UNL     1       6.399   4.111  13.113  0.00  0.00    +0.000 A 
ATOM     23  C   UNL     1       5.020   4.095  13.080  0.00  0.00    +0.000 A 
ATOM     24  C   UNL     1       4.652   3.123  12.119  0.00  0.00    +0.000 A 
ATOM     25  C   UNL     1       5.828   2.615  11.621  0.00  0.00    +0.000 A 
ATOM     26  O   UNL     1       6.895   3.211  12.213  0.00  0.00    +0.000 OA
ENDBRANCH  21  22
ENDBRANCH  19  21
ENDBRANCH   2  17
TORSDOF 4
ENDMDL
MODEL 3
REMARK VINA RESULT:      -7.5      2.701      5.563
REMARK  Name = 
REMARK  5 active torsions:
REMARK  status: ('A' for Active; 'I' for Inactive)
REMARK    1  A    between atoms: C_1  and  C_2
REMARK    2  A    between atoms: C_2  and  C_3
REMARK    3  A    between atoms: N_5  and  C_6
REMARK    4  A    between atoms: C_6  and  C_7
REMARK    5  A    between atoms: C_14  and  C_15
REMARK                            x       y       z     vdW  Elec       q    Type
REMARK                         _______ _______ _______ _____ _____    ______ ____
ROOT
ATOM      1  C   UNL     1       4.885   4.349  16.373  0.00  0.00    +0.000 C 
ATOM      2  C   UNL     1       5.176   4.855  17.789  0.00  0.00    +0.000 C 
ATOM      3  C   UNL     1       4.322   6.092  18.142  0.00  0.00    +0.000 C 
ATOM      4  C   UNL     1       3.404   5.533  19.164  0.00  0.00    +0.000 A 
ATOM      5  C   UNL     1       2.320   6.085  19.849  0.00  0.00    +0.000 A 
ATOM      6  C   UNL     1       1.686   5.218  20.763  0.00  0.00    +0.000 A 
ATOM      7  C   UNL     1       2.144   3.912  20.938  0.00  0.00    +0.000 A 
ATOM      8  N   UNL     1       3.197   3.390  20.285  0.00  0.00    +0.000 NA
ATOM      9  C   UNL     1       3.780   4.227  19.422  0.00  0.00    +0.000 A 
ATOM     10  O   UNL     1       4.879   3.789  18.716  0.00  0.00    +0.000 OA
ENDROOT
BRANCH   5  11
ATOM     11  C   UNL     1       1.829   7.480  19.687  0.00  0.00    +0.000 A 
ATOM     12  C   UNL     1       1.321   8.206  20.785  0.00  0.00    +0.000 A 
ATOM     13  C   UNL     1       0.923   9.544  20.667  0.00  0.00    +0.000 A 
ATOM     14  C   UNL     1       0.994  10.186  19.438  0.00  0.00    +0.000 A 
ATOM     15  C   UNL     1       1.470   9.494  18.333  0.00  0.00    +0.000 A 
ATOM     16  C   UNL     1       1.896   8.166  18.462  0.00  0.00    +0.000 A 
ENDBRANCH   5  11
BRANCH   2  17
ATOM     17  C   UNL     1       6.672   5.219  17.906  0.00  0.00    +0.000 C 
ATOM     18  O   UNL     1       7.566   4.454  17.538  0.00  0.00    +0.000 OA
ATOM     19  N   UNL     1       6.937   6.501  18.339  0.00  0.00    +0.000 N 
ATOM     20  H   UNL     1       6.218   6.957  18.894  0.00  0.00    +0.000 HD
BRANCH  19  21
ATOM     21  C   UNL     1       8.304   6.914  18.571  0.00  0.00    +0.000 C 
BRANCH  21  22
ATOM     22  C   UNL     1       8.404   8.387  18.448  0.00  0.00    +0.000 A 
ATOM     23  C   UNL     1       7.863   9.298  17.565  0.00  0.00    +0.000 A 
ATOM     24  C   UNL     1       8.376  10.566  17.932  0.00  0.00    +0.000 A 
ATOM     25  C   UNL     1       9.187  10.349  19.020  0.00  0.00    +0.000 A 
ATOM     26  O   UNL     1       9.207   9.030  19.346  0.00  0.00    +0.000 OA
ENDBRANCH  21  22
ENDBRANCH  19  21
ENDBRANCH   2  17
TORSDOF 4
ENDMDL
MODEL 4
REMARK VINA RESULT:      -7.4      2.745      5.684
REMARK  Name = 
REMARK  5 active torsions:
REMARK  status: ('A' for Active; 'I' for Inactive)
REMARK    1  A    between atoms: C_1  and  C_2
REMARK    2  A    between atoms: C_2  and  C_3
REMARK    3  A    between atoms: N_5  and  C_6
REMARK    4  A    between atoms: C_6  and  C_7
REMARK    5  A    between atoms: C_14  and  C_15
REMARK                            x       y       z     vdW  Elec       q    Type
REMARK                         _______ _______ _______ _____ _____    ______ ____
ROOT
ATOM      1  C   UNL     1       5.186   4.831  16.055  0.00  0.00    +0.000 C 
ATOM      2  C   UNL     1       5.408   5.211  17.522  0.00  0.00    +0.000 C 
ATOM      3  C   UNL     1       4.519   6.400  17.947  0.00  0.00    +0.000 C 
ATOM      4  C   UNL     1       3.567   5.739  18.873  0.00  0.00    +0.000 A 
ATOM      5  C   UNL     1       2.445   6.213  19.556  0.00  0.00    +0.000 A 
ATOM      6  C   UNL     1       1.788   5.259  20.359  0.00  0.00    +0.000 A 
ATOM      7  C   UNL     1       2.260   3.948  20.437  0.00  0.00    +0.000 A 
ATOM      8  N   UNL     1       3.349   3.502  19.787  0.00  0.00    +0.000 NA
ATOM      9  C   UNL     1       3.953   4.420  19.029  0.00  0.00    +0.000 A 
ATOM     10  O   UNL     1       5.090   4.062  18.336  0.00  0.00    +0.000 OA
ENDROOT
BRANCH   5  11
ATOM     11  C   UNL     1       1.938   7.611  19.498  0.00  0.00    +0.000 A 
ATOM     12  C   UNL     1       1.981   8.353  18.299  0.00  0.00    +0.000 A 
ATOM     13  C   UNL     1       1.443   9.642  18.207  0.00  0.00    +0.000 A 
ATOM     14  C   UNL     1       0.872  10.240  19.322  0.00  0.00    +0.000 A 
ATOM     15  C   UNL     1       0.833   9.545  20.524  0.00  0.00    +0.000 A 
ATOM     16  C   UNL     1       1.345   8.245  20.603  0.00  0.00    +0.000 A 
ENDBRANCH   5  11
BRANCH   2  17
ATOM     17  C   UNL     1       6.890   5.583  17.737  0.00  0.00    +0.000 C 
ATOM     18  O   UNL     1       7.812   4.854  17.364  0.00  0.00    +0.000 OA
ATOM     19  N   UNL     1       7.117   6.836  18.266  0.00  0.00    +0.000 N 
ATOM     20  H   UNL     1       6.364   7.246  18.814  0.00  0.00    +0.000 HD
BRANCH  19  21
ATOM     21  C   UNL     1       8.464   7.247  18.592  0.00  0.00    +0.000 C 
BRANCH  21  22
ATOM     22  C   UNL     1       8.573   8.720  18.481  0.00  0.00    +0.000 A 
ATOM     23  C   UNL     1       8.099   9.634  17.563  0.00  0.00    +0.000 A 
ATOM     24  C   UNL     1       8.584  10.901  17.970  0.00  0.00    +0.000 A 
ATOM     25  C   UNL     1       9.312  10.681  19.115  0.00  0.00    +0.000 A 
ATOM     26  O   UNL     1       9.307   9.361  19.437  0.00  0.00    +0.000 OA
ENDBRANCH  21  22
ENDBRANCH  19  21
ENDBRANCH   2  17
TORSDOF 4
ENDMDL
MODEL 5
REMARK VINA RESULT:      -7.4      1.066      1.753
REMARK  Name = 
REMARK  5 active torsions:
REMARK  status: ('A' for Active; 'I' for Inactive)
REMARK    1  A    between atoms: C_1  and  C_2
REMARK    2  A    between atoms: C_2  and  C_3
REMARK    3  A    between atoms: N_5  and  C_6
REMARK    4  A    between atoms: C_6  and  C_7
REMARK    5  A    between atoms: C_14  and  C_15
REMARK                            x       y       z     vdW  Elec       q    Type
REMARK                         _______ _______ _______ _____ _____    ______ ____
ROOT
ATOM      1  C   UNL     1       7.510   5.949  18.594  0.00  0.00    +0.000 C 
ATOM      2  C   UNL     1       6.377   5.551  17.645  0.00  0.00    +0.000 C 
ATOM      3  C   UNL     1       5.230   4.835  18.390  0.00  0.00    +0.000 C 
ATOM      4  C   UNL     1       4.150   5.848  18.311  0.00  0.00    +0.000 A 
ATOM      5  C   UNL     1       2.862   5.887  18.850  0.00  0.00    +0.000 A 
ATOM      6  C   UNL     1       2.121   7.047  18.543  0.00  0.00    +0.000 A 
ATOM      7  C   UNL     1       2.674   8.056  17.754  0.00  0.00    +0.000 A 
ATOM      8  N   UNL     1       3.909   8.006  17.228  0.00  0.00    +0.000 NA
ATOM      9  C   UNL     1       4.595   6.902  17.534  0.00  0.00    +0.000 A 
ATOM     10  O   UNL     1       5.868   6.752  17.026  0.00  0.00    +0.000 OA
ENDROOT
BRANCH   5  11
ATOM     11  C   UNL     1       2.251   4.812  19.678  0.00  0.00    +0.000 A 
ATOM     12  C   UNL     1       1.280   3.941  19.141  0.00  0.00    +0.000 A 
ATOM     13  C   UNL     1       0.748   2.879  19.882  0.00  0.00    +0.000 A 
ATOM     14  C   UNL     1       1.150   2.675  21.196  0.00  0.00    +0.000 A 
ATOM     15  C   UNL     1       2.089   3.528  21.761  0.00  0.00    +0.000 A 
ATOM     16  C   UNL     1       2.641   4.570  21.006  0.00  0.00    +0.000 A 
ENDBRANCH   5  11
BRANCH   2  17
ATOM     17  C   UNL     1       6.931   4.617  16.548  0.00  0.00    +0.000 C 
ATOM     18  O   UNL     1       8.056   4.118  16.615  0.00  0.00    +0.000 OA
ATOM     19  N   UNL     1       6.042   4.286  15.546  0.00  0.00    +0.000 N 
ATOM     20  H   UNL     1       5.277   4.933  15.379  0.00  0.00    +0.000 HD
BRANCH  19  21
ATOM     21  C   UNL     1       6.488   3.492  14.422  0.00  0.00    +0.000 C 
BRANCH  21  22
ATOM     22  C   UNL     1       7.031   4.384  13.372  0.00  0.00    +0.000 A 
ATOM     23  C   UNL     1       6.887   4.423  12.000  0.00  0.00    +0.000 A 
ATOM     24  C   UNL     1       7.708   5.481  11.540  0.00  0.00    +0.000 A 
ATOM     25  C   UNL     1       8.292   6.025  12.659  0.00  0.00    +0.000 A 
ATOM     26  O   UNL     1       7.884   5.371  13.777  0.00  0.00    +0.000 OA
ENDBRANCH  21  22
ENDBRANCH  19  21
ENDBRANCH   2  17
TORSDOF 4
ENDMDL
MODEL 6
REMARK VINA RESULT:      -7.2      6.760     10.319
REMARK  Name = 
REMARK  5 active torsions:
REMARK  status: ('A' for Active; 'I' for Inactive)
REMARK    1  A    between atoms: C_1  and  C_2
REMARK    2  A    between atoms: C_2  and  C_3
REMARK    3  A    between atoms: N_5  and  C_6
REMARK    4  A    between atoms: C_6  and  C_7
REMARK    5  A    between atoms: C_14  and  C_15
REMARK                            x       y       z     vdW  Elec       q    Type
REMARK                         _______ _______ _______ _____ _____    ______ ____
ROOT
ATOM      1  C   UNL     1      -0.691  12.598  18.346  0.00  0.00    +0.000 C 
ATOM      2  C   UNL     1      -1.260  11.293  18.910  0.00  0.00    +0.000 C 
ATOM      3  C   UNL     1      -0.325  10.095  18.635  0.00  0.00    +0.000 C 
ATOM      4  C   UNL     1       0.164   9.785  20.001  0.00  0.00    +0.000 A 
ATOM      5  C   UNL     1       1.103   8.864  20.471  0.00  0.00    +0.000 A 
ATOM      6  C   UNL     1       1.297   8.871  21.867  0.00  0.00    +0.000 A 
ATOM      7  C   UNL     1       0.582   9.749  22.682  0.00  0.00    +0.000 A 
ATOM      8  N   UNL     1      -0.330  10.624  22.223  0.00  0.00    +0.000 NA
ATOM      9  C   UNL     1      -0.496  10.604  20.898  0.00  0.00    +0.000 A 
ATOM     10  O   UNL     1      -1.423  11.455  20.335  0.00  0.00    +0.000 OA
ENDROOT
BRANCH   5  11
ATOM     11  C   UNL     1       1.862   7.909  19.619  0.00  0.00    +0.000 A 
ATOM     12  C   UNL     1       2.415   8.313  18.386  0.00  0.00    +0.000 A 
ATOM     13  C   UNL     1       3.194   7.449  17.606  0.00  0.00    +0.000 A 
ATOM     14  C   UNL     1       3.417   6.144  18.023  0.00  0.00    +0.000 A 
ATOM     15  C   UNL     1       2.870   5.708  19.223  0.00  0.00    +0.000 A 
ATOM     16  C   UNL     1       2.118   6.585  20.014  0.00  0.00    +0.000 A 
ENDBRANCH   5  11
BRANCH   2  17
ATOM     17  C   UNL     1      -2.639  11.019  18.275  0.00  0.00    +0.000 C 
ATOM     18  O   UNL     1      -2.897   9.963  17.693  0.00  0.00    +0.000 OA
ATOM     19  N   UNL     1      -3.599  11.983  18.503  0.00  0.00    +0.000 N 
ATOM     20  H   UNL     1      -3.267  12.922  18.708  0.00  0.00    +0.000 HD
BRANCH  19  21
ATOM     21  C   UNL     1      -4.897  11.868  17.876  0.00  0.00    +0.000 C 
BRANCH  21  22
ATOM     22  C   UNL     1      -5.896  11.437  18.882  0.00  0.00    +0.000 A 
ATOM     23  C   UNL     1      -6.747  10.354  18.964  0.00  0.00    +0.000 A 
ATOM     24  C   UNL     1      -7.506  10.528  20.146  0.00  0.00    +0.000 A 
ATOM     25  C   UNL     1      -7.064  11.698  20.715  0.00  0.00    +0.000 A 
ATOM     26  O   UNL     1      -6.083  12.256  19.959  0.00  0.00    +0.000 OA
ENDBRANCH  21  22
ENDBRANCH  19  21
ENDBRANCH   2  17
TORSDOF 4
ENDMDL
MODEL 7
REMARK VINA RESULT:      -7.2      5.491      8.568
REMARK  Name = 
REMARK  5 active torsions:
REMARK  status: ('A' for Active; 'I' for Inactive)
REMARK    1  A    between atoms: C_1  and  C_2
REMARK    2  A    between atoms: C_2  and  C_3
REMARK    3  A    between atoms: N_5  and  C_6
REMARK    4  A    between atoms: C_6  and  C_7
REMARK    5  A    between atoms: C_14  and  C_15
REMARK                            x       y       z     vdW  Elec       q    Type
REMARK                         _______ _______ _______ _____ _____    ______ ____
ROOT
ATOM      1  C   UNL     1      -0.015   8.527  22.204  0.00  0.00    +0.000 C 
ATOM      2  C   UNL     1       0.504   9.246  20.955  0.00  0.00    +0.000 C 
ATOM      3  C   UNL     1      -0.648   9.686  20.026  0.00  0.00    +0.000 C 
ATOM      4  C   UNL     1      -0.600  11.161  20.177  0.00  0.00    +0.000 A 
ATOM      5  C   UNL     1      -1.414  12.179  19.677  0.00  0.00    +0.000 A 
ATOM      6  C   UNL     1      -1.034  13.484  20.050  0.00  0.00    +0.000 A 
ATOM      7  C   UNL     1       0.082  13.697  20.860  0.00  0.00    +0.000 A 
ATOM      8  N   UNL     1       0.869  12.713  21.327  0.00  0.00    +0.000 NA
ATOM      9  C   UNL     1       0.489  11.484  20.966  0.00  0.00    +0.000 A 
ATOM     10  O   UNL     1       1.244  10.409  21.383  0.00  0.00    +0.000 OA
ENDROOT
BRANCH   5  11
ATOM     11  C   UNL     1      -2.597  11.972  18.798  0.00  0.00    +0.000 A 
ATOM     12  C   UNL     1      -2.450  11.492  17.479  0.00  0.00    +0.000 A 
ATOM     13  C   UNL     1      -3.555  11.222  16.663  0.00  0.00    +0.000 A 
ATOM     14  C   UNL     1      -4.841  11.453  17.132  0.00  0.00    +0.000 A 
ATOM     15  C   UNL     1      -5.020  11.944  18.419  0.00  0.00    +0.000 A 
ATOM     16  C   UNL     1      -3.913  12.184  19.242  0.00  0.00    +0.000 A 
ENDBRANCH   5  11
BRANCH   2  17
ATOM     17  C   UNL     1       1.452   8.306  20.180  0.00  0.00    +0.000 C 
ATOM     18  O   UNL     1       1.953   8.621  19.099  0.00  0.00    +0.000 OA
ATOM     19  N   UNL     1       1.792   7.139  20.832  0.00  0.00    +0.000 N 
ATOM     20  H   UNL     1       1.144   6.802  21.540  0.00  0.00    +0.000 HD
BRANCH  19  21
ATOM     21  C   UNL     1       2.599   6.146  20.157  0.00  0.00    +0.000 C 
BRANCH  21  22
ATOM     22  C   UNL     1       2.018   4.802  20.378  0.00  0.00    +0.000 A 
ATOM     23  C   UNL     1       2.051   3.923  21.440  0.00  0.00    +0.000 A 
ATOM     24  C   UNL     1       1.351   2.764  21.026  0.00  0.00    +0.000 A 
ATOM     25  C   UNL     1       0.927   3.014  19.742  0.00  0.00    +0.000 A 
ATOM     26  O   UNL     1       1.322   4.250  19.341  0.00  0.00    +0.000 OA
ENDBRANCH  21  22
ENDBRANCH  19  21
ENDBRANCH   2  17
TORSDOF 4
ENDMDL
MODEL 8
REMARK VINA RESULT:      -7.2      6.819     10.381
REMARK  Name = 
REMARK  5 active torsions:
REMARK  status: ('A' for Active; 'I' for Inactive)
REMARK    1  A    between atoms: C_1  and  C_2
REMARK    2  A    between atoms: C_2  and  C_3
REMARK    3  A    between atoms: N_5  and  C_6
REMARK    4  A    between atoms: C_6  and  C_7
REMARK    5  A    between atoms: C_14  and  C_15
REMARK                            x       y       z     vdW  Elec       q    Type
REMARK                         _______ _______ _______ _____ _____    ______ ____
ROOT
ATOM      1  C   UNL     1      -0.442  12.999  18.594  0.00  0.00    +0.000 C 
ATOM      2  C   UNL     1      -1.110  11.675  18.975  0.00  0.00    +0.000 C 
ATOM      3  C   UNL     1      -0.194  10.467  18.685  0.00  0.00    +0.000 C 
ATOM      4  C   UNL     1       0.141  10.016  20.058  0.00  0.00    +0.000 A 
ATOM      5  C   UNL     1       0.995   9.017  20.531  0.00  0.00    +0.000 A 
ATOM      6  C   UNL     1       1.044   8.891  21.935  0.00  0.00    +0.000 A 
ATOM      7  C   UNL     1       0.278   9.723  22.752  0.00  0.00    +0.000 A 
ATOM      8  N   UNL     1      -0.551  10.674  22.288  0.00  0.00    +0.000 NA
ATOM      9  C   UNL     1      -0.580  10.780  20.957  0.00  0.00    +0.000 A 
ATOM     10  O   UNL     1      -1.414  11.716  20.386  0.00  0.00    +0.000 OA
ENDROOT
BRANCH   5  11
ATOM     11  C   UNL     1       1.805   8.110  19.675  0.00  0.00    +0.000 A 
ATOM     12  C   UNL     1       2.084   6.786  20.075  0.00  0.00    +0.000 A 
ATOM     13  C   UNL     1       2.782   5.895  19.250  0.00  0.00    +0.000 A 
ATOM     14  C   UNL     1       3.249   6.313  18.011  0.00  0.00    +0.000 A 
ATOM     15  C   UNL     1       3.009   7.616  17.595  0.00  0.00    +0.000 A 
ATOM     16  C   UNL     1       2.284   8.494  18.410  0.00  0.00    +0.000 A 
ENDBRANCH   5  11
BRANCH   2  17
ATOM     17  C   UNL     1      -2.426  11.518  18.183  0.00  0.00    +0.000 C 
ATOM     18  O   UNL     1      -2.472  10.945  17.093  0.00  0.00    +0.000 OA
ATOM     19  N   UNL     1      -3.562  11.958  18.828  0.00  0.00    +0.000 N 
ATOM     20  H   UNL     1      -3.438  12.664  19.548  0.00  0.00    +0.000 HD
BRANCH  19  21
ATOM     21  C   UNL     1      -4.834  11.941  18.138  0.00  0.00    +0.000 C 
BRANCH  21  22
ATOM     22  C   UNL     1      -5.883  11.424  19.048  0.00  0.00    +0.000 A 
ATOM     23  C   UNL     1      -6.708  10.319  19.005  0.00  0.00    +0.000 A 
ATOM     24  C   UNL     1      -7.546  10.399  20.143  0.00  0.00    +0.000 A 
ATOM     25  C   UNL     1      -7.173  11.540  20.812  0.00  0.00    +0.000 A 
ATOM     26  O   UNL     1      -6.161  12.167  20.159  0.00  0.00    +0.000 OA
ENDBRANCH  21  22
ENDBRANCH  19  21
ENDBRANCH   2  17
TORSDOF 4
ENDMDL
MODEL 9
REMARK VINA RESULT:      -7.1      2.710      5.665
REMARK  Name = 
REMARK  5 active torsions:
REMARK  status: ('A' for Active; 'I' for Inactive)
REMARK    1  A    between atoms: C_1  and  C_2
REMARK    2  A    between atoms: C_2  and  C_3
REMARK    3  A    between atoms: N_5  and  C_6
REMARK    4  A    between atoms: C_6  and  C_7
REMARK    5  A    between atoms: C_14  and  C_15
REMARK                            x       y       z     vdW  Elec       q    Type
REMARK                         _______ _______ _______ _____ _____    ______ ____
ROOT
ATOM      1  C   UNL     1       5.154   5.675  15.407  0.00  0.00    +0.000 C 
ATOM      2  C   UNL     1       5.438   5.906  16.894  0.00  0.00    +0.000 C 
ATOM      3  C   UNL     1       4.493   6.966  17.500  0.00  0.00    +0.000 C 
ATOM      4  C   UNL     1       3.652   6.132  18.393  0.00  0.00    +0.000 A 
ATOM      5  C   UNL     1       2.543   6.437  19.185  0.00  0.00    +0.000 A 
ATOM      6  C   UNL     1       2.008   5.350  19.907  0.00  0.00    +0.000 A 
ATOM      7  C   UNL     1       2.578   4.080  19.807  0.00  0.00    +0.000 A 
ATOM      8  N   UNL     1       3.653   3.797  19.052  0.00  0.00    +0.000 NA
ATOM      9  C   UNL     1       4.142   4.839  18.375  0.00  0.00    +0.000 A 
ATOM     10  O   UNL     1       5.256   4.651  17.585  0.00  0.00    +0.000 OA
ENDROOT
BRANCH   5  11
ATOM     11  C   UNL     1       1.933   7.788  19.317  0.00  0.00    +0.000 A 
ATOM     12  C   UNL     1       1.764   8.624  18.194  0.00  0.00    +0.000 A 
ATOM     13  C   UNL     1       1.127   9.868  18.286  0.00  0.00    +0.000 A 
ATOM     14  C   UNL     1       0.666  10.325  19.513  0.00  0.00    +0.000 A 
ATOM     15  C   UNL     1       0.836   9.536  20.643  0.00  0.00    +0.000 A 
ATOM     16  C   UNL     1       1.446   8.280  20.541  0.00  0.00    +0.000 A 
ENDBRANCH   5  11
BRANCH   2  17
ATOM     17  C   UNL     1       6.901   6.367  17.070  0.00  0.00    +0.000 C 
ATOM     18  O   UNL     1       7.763   6.165  16.213  0.00  0.00    +0.000 OA
ATOM     19  N   UNL     1       7.152   7.123  18.197  0.00  0.00    +0.000 N 
ATOM     20  H   UNL     1       6.517   7.003  18.981  0.00  0.00    +0.000 HD
BRANCH  19  21
ATOM     21  C   UNL     1       8.506   7.528  18.504  0.00  0.00    +0.000 C 
BRANCH  21  22
ATOM     22  C   UNL     1       8.604   9.006  18.450  0.00  0.00    +0.000 A 
ATOM     23  C   UNL     1       9.325   9.930  19.176  0.00  0.00    +0.000 A 
ATOM     24  C   UNL     1       8.949  11.205  18.689  0.00  0.00    +0.000 A 
ATOM     25  C   UNL     1       8.032  10.977  17.692  0.00  0.00    +0.000 A 
ATOM     26  O   UNL     1       7.819   9.645  17.534  0.00  0.00    +0.000 OA
ENDBRANCH  21  22
ENDBRANCH  19  21
ENDBRANCH   2  17
TORSDOF 4
ENDMDL
