MODEL 1
REMARK VINA RESULT:      -8.0      0.000      0.000
REMARK  Name = 
REMARK  10 active torsions:
REMARK  status: ('A' for Active; 'I' for Inactive)
REMARK    1  A    between atoms: C_1  and  O_2
REMARK    2  A    between atoms: O_2  and  C_3
REMARK    3  A    between atoms: C_6  and  C_7
REMARK    4  A    between atoms: C_7  and  N_8
REMARK    5  A    between atoms: C_9  and  C_11
REMARK    6  A    between atoms: C_11  and  C_12
REMARK    7  A    between atoms: C_11  and  N_18
REMARK    8  A    between atoms: N_18  and  C_27
REMARK    9  A    between atoms: C_19  and  C_21
REMARK   10  A    between atoms: C_21  and  C_22
REMARK                            x       y       z     vdW  Elec       q    Type
REMARK                         _______ _______ _______ _____ _____    ______ ____
ROOT
ATOM      1  C   UNL     1       3.999   5.723  18.798  0.00  0.00    +0.000 C 
ENDROOT
BRANCH   1   2
ATOM      2  C   UNL     1       3.438   4.623  19.709  0.00  0.00    +0.000 A 
ATOM      3  C   UNL     1       2.352   4.868  20.558  0.00  0.00    +0.000 A 
ATOM      4  C   UNL     1       1.897   3.842  21.373  0.00  0.00    +0.000 A 
ATOM      5  N   UNL     1       2.446   2.610  21.409  0.00  0.00    +0.000 NA
ATOM      6  C   UNL     1       3.519   2.402  20.619  0.00  0.00    +0.000 A 
ATOM      7  C   UNL     1       4.050   3.362  19.771  0.00  0.00    +0.000 A 
ENDBRANCH   1   2
BRANCH   1   9
ATOM      8  N   UNL     1       2.788   7.842  18.265  0.00  0.00    +0.000 N 
ATOM      9  C   UNL     1       2.772   6.459  18.149  0.00  0.00    +0.000 C 
ATOM     10  O   UNL     1       1.837   5.854  17.633  0.00  0.00    +0.000 OA
ATOM     11  H   UNL     1       3.481   8.303  18.836  0.00  0.00    +0.000 HD
BRANCH   8  12
ATOM     12  C   UNL     1       1.708   8.652  17.741  0.00  0.00    +0.000 C 
BRANCH  12  16
ATOM     13  C   UNL     1      -0.534  10.687  20.841  0.00  0.00    +0.000 A 
ATOM     14  C   UNL     1       0.427   9.730  21.178  0.00  0.00    +0.000 A 
ATOM     15  C   UNL     1       1.153   9.065  20.184  0.00  0.00    +0.000 A 
ATOM     16  C   UNL     1       0.919   9.340  18.830  0.00  0.00    +0.000 A 
ATOM     17  C   UNL     1      -0.062  10.285  18.500  0.00  0.00    +0.000 A 
ATOM     18  C   UNL     1      -0.780  10.957  19.498  0.00  0.00    +0.000 A 
BRANCH  13  20
ATOM     19  C   UNL     1      -0.696  12.526  22.327  0.00  0.00    +0.000 C 
ATOM     20  O   UNL     1      -1.185  11.259  21.901  0.00  0.00    +0.000 OA
ENDBRANCH  13  20
ENDBRANCH  12  16
ENDBRANCH   8  12
ENDBRANCH   1   9
BRANCH   1  21
ATOM     21  N   UNL     1       5.136   5.240  17.933  0.00  0.00    +0.000 N 
ATOM     22  C   UNL     1       4.968   4.309  16.878  0.00  0.00    +0.000 C 
ATOM     23  O   UNL     1       3.874   3.857  16.551  0.00  0.00    +0.000 OA
BRANCH  21  24
ATOM     24  C   UNL     1       6.310   6.063  17.952  0.00  0.00    +0.000 A 
ATOM     25  C   UNL     1       7.318   5.832  18.896  0.00  0.00    +0.000 A 
ATOM     26  C   UNL     1       8.341   6.760  19.062  0.00  0.00    +0.000 A 
ATOM     27  C   UNL     1       8.347   7.879  18.246  0.00  0.00    +0.000 A 
ATOM     28  N   UNL     1       7.426   8.108  17.287  0.00  0.00    +0.000 NA
ATOM     29  C   UNL     1       6.427   7.201  17.159  0.00  0.00    +0.000 A 
ENDBRANCH  21  24
BRANCH  22  30
ATOM     30  C   UNL     1       6.250   3.936  16.102  0.00  0.00    +0.000 C 
BRANCH  30  31
ATOM     31  C   UNL     1       6.191   3.992  14.601  0.00  0.00    +0.000 A 
ATOM     32  C   UNL     1       5.362   3.366  13.693  0.00  0.00    +0.000 A 
ATOM     33  C   UNL     1       5.764   3.593  12.340  0.00  0.00    +0.000 A 
ATOM     34  C   UNL     1       6.881   4.394  12.254  0.00  0.00    +0.000 A 
ATOM     35  S   UNL     1       7.435   4.875  13.793  0.00  0.00    +0.000 S 
ENDBRANCH  30  31
ENDBRANCH  22  30
ENDBRANCH   1  21
TORSDOF 9
ENDMDL
MODEL 2
REMARK VINA RESULT:      -7.8      1.077      1.162
REMARK  Name = 
REMARK  10 active torsions:
REMARK  status: ('A' for Active; 'I' for Inactive)
REMARK    1  A    between atoms: C_1  and  O_2
REMARK    2  A    between atoms: O_2  and  C_3
REMARK    3  A    between atoms: C_6  and  C_7
REMARK    4  A    between atoms: C_7  and  N_8
REMARK    5  A    between atoms: C_9  and  C_11
REMARK    6  A    between atoms: C_11  and  C_12
REMARK    7  A    between atoms: C_11  and  N_18
REMARK    8  A    between atoms: N_18  and  C_27
REMARK    9  A    between atoms: C_19  and  C_21
REMARK   10  A    between atoms: C_21  and  C_22
REMARK                            x       y       z     vdW  Elec       q    Type
REMARK                         _______ _______ _______ _____ _____    ______ ____
ROOT
ATOM      1  C   UNL     1       4.013   5.761  18.586  0.00  0.00    +0.000 C 
ENDROOT
BRANCH   1   2
ATOM      2  C   UNL     1       3.035   4.630  18.924  0.00  0.00    +0.000 A 
ATOM      3  C   UNL     1       1.799   4.521  18.276  0.00  0.00    +0.000 A 
ATOM      4  C   UNL     1       0.945   3.488  18.634  0.00  0.00    +0.000 A 
ATOM      5  N   UNL     1       1.227   2.575  19.587  0.00  0.00    +0.000 NA
ATOM      6  C   UNL     1       2.401   2.719  20.235  0.00  0.00    +0.000 A 
ATOM      7  C   UNL     1       3.321   3.718  19.951  0.00  0.00    +0.000 A 
ENDBRANCH   1   2
BRANCH   1   9
ATOM      8  N   UNL     1       2.417   7.618  19.084  0.00  0.00    +0.000 N 
ATOM      9  C   UNL     1       3.158   6.985  18.096  0.00  0.00    +0.000 C 
ATOM     10  O   UNL     1       3.098   7.318  16.915  0.00  0.00    +0.000 OA
ATOM     11  H   UNL     1       2.353   7.224  20.011  0.00  0.00    +0.000 HD
BRANCH   8  12
ATOM     12  C   UNL     1       1.558   8.742  18.775  0.00  0.00    +0.000 C 
BRANCH  12  16
ATOM     13  C   UNL     1      -0.408  10.385  22.270  0.00  0.00    +0.000 A 
ATOM     14  C   UNL     1       0.456   9.294  22.395  0.00  0.00    +0.000 A 
ATOM     15  C   UNL     1       1.092   8.754  21.271  0.00  0.00    +0.000 A 
ATOM     16  C   UNL     1       0.864   9.293  19.998  0.00  0.00    +0.000 A 
ATOM     17  C   UNL     1      -0.022  10.373  19.879  0.00  0.00    +0.000 A 
ATOM     18  C   UNL     1      -0.649  10.919  21.007  0.00  0.00    +0.000 A 
BRANCH  13  20
ATOM     19  C   UNL     1      -1.966  11.831  23.318  0.00  0.00    +0.000 C 
ATOM     20  O   UNL     1      -0.977  10.814  23.438  0.00  0.00    +0.000 OA
ENDBRANCH  13  20
ENDBRANCH  12  16
ENDBRANCH   8  12
ENDBRANCH   1   9
BRANCH   1  21
ATOM     21  N   UNL     1       5.193   5.290  17.773  0.00  0.00    +0.000 N 
ATOM     22  C   UNL     1       5.075   4.398  16.678  0.00  0.00    +0.000 C 
ATOM     23  O   UNL     1       3.996   3.975  16.272  0.00  0.00    +0.000 OA
BRANCH  21  24
ATOM     24  C   UNL     1       6.376   6.093  17.890  0.00  0.00    +0.000 A 
ATOM     25  C   UNL     1       7.307   5.834  18.903  0.00  0.00    +0.000 A 
ATOM     26  C   UNL     1       8.329   6.742  19.156  0.00  0.00    +0.000 A 
ATOM     27  C   UNL     1       8.414   7.871  18.359  0.00  0.00    +0.000 A 
ATOM     28  N   UNL     1       7.570   8.127  17.336  0.00  0.00    +0.000 NA
ATOM     29  C   UNL     1       6.569   7.239  17.123  0.00  0.00    +0.000 A 
ENDBRANCH  21  24
BRANCH  22  30
ATOM     30  C   UNL     1       6.395   4.031  15.967  0.00  0.00    +0.000 C 
BRANCH  30  31
ATOM     31  C   UNL     1       6.409   4.078  14.465  0.00  0.00    +0.000 A 
ATOM     32  C   UNL     1       5.682   3.382  13.520  0.00  0.00    +0.000 A 
ATOM     33  C   UNL     1       6.132   3.639  12.188  0.00  0.00    +0.000 A 
ATOM     34  C   UNL     1       7.181   4.531  12.153  0.00  0.00    +0.000 A 
ATOM     35  S   UNL     1       7.614   5.060  13.714  0.00  0.00    +0.000 S 
ENDBRANCH  30  31
ENDBRANCH  22  30
ENDBRANCH   1  21
TORSDOF 9
ENDMDL
MODEL 3
REMARK VINA RESULT:      -7.8      0.843      1.424
REMARK  Name = 
REMARK  10 active torsions:
REMARK  status: ('A' for Active; 'I' for Inactive)
REMARK    1  A    between atoms: C_1  and  O_2
REMARK    2  A    between atoms: O_2  and  C_3
REMARK    3  A    between atoms: C_6  and  C_7
REMARK    4  A    between atoms: C_7  and  N_8
REMARK    5  A    between atoms: C_9  and  C_11
REMARK    6  A    between atoms: C_11  and  C_12
REMARK    7  A    between atoms: C_11  and  N_18
REMARK    8  A    between atoms: N_18  and  C_27
REMARK    9  A    between atoms: C_19  and  C_21
REMARK   10  A    between atoms: C_21  and  C_22
REMARK                            x       y       z     vdW  Elec       q    Type
REMARK                         _______ _______ _______ _____ _____    ______ ____
ROOT
ATOM      1  C   UNL     1       3.845   5.656  19.019  0.00  0.00    +0.000 C 
ENDROOT
BRANCH   1   2
ATOM      2  C   UNL     1       2.993   4.566  19.681  0.00  0.00    +0.000 A 
ATOM      3  C   UNL     1       3.583   3.512  20.388  0.00  0.00    +0.000 A 
ATOM      4  C   UNL     1       2.764   2.544  20.951  0.00  0.00    +0.000 A 
ATOM      5  N   UNL     1       1.419   2.545  20.851  0.00  0.00    +0.000 NA
ATOM      6  C   UNL     1       0.866   3.541  20.129  0.00  0.00    +0.000 A 
ATOM      7  C   UNL     1       1.598   4.554  19.526  0.00  0.00    +0.000 A 
ENDBRANCH   1   2
BRANCH   1   9
ATOM      8  N   UNL     1       2.420   7.681  19.356  0.00  0.00    +0.000 N 
ATOM      9  C   UNL     1       2.856   6.732  18.442  0.00  0.00    +0.000 C 
ATOM     10  O   UNL     1       2.447   6.699  17.284  0.00  0.00    +0.000 OA
ATOM     11  H   UNL     1       2.638   7.589  20.337  0.00  0.00    +0.000 HD
BRANCH   8  12
ATOM     12  C   UNL     1       1.483   8.717  18.974  0.00  0.00    +0.000 C 
BRANCH  12  16
ATOM     13  C   UNL     1      -0.420  10.557  22.405  0.00  0.00    +0.000 A 
ATOM     14  C   UNL     1      -0.412  11.210  21.170  0.00  0.00    +0.000 A 
ATOM     15  C   UNL     1       0.204  10.624  20.057  0.00  0.00    +0.000 A 
ATOM     16  C   UNL     1       0.833   9.377  20.168  0.00  0.00    +0.000 A 
ATOM     17  C   UNL     1       0.840   8.741  21.417  0.00  0.00    +0.000 A 
ATOM     18  C   UNL     1       0.213   9.324  22.526  0.00  0.00    +0.000 A 
BRANCH  13  20
ATOM     19  C   UNL     1      -1.744  12.416  23.044  0.00  0.00    +0.000 C 
ATOM     20  O   UNL     1      -1.042  11.236  23.419  0.00  0.00    +0.000 OA
ENDBRANCH  13  20
ENDBRANCH  12  16
ENDBRANCH   8  12
ENDBRANCH   1   9
BRANCH   1  21
ATOM     21  N   UNL     1       4.941   5.093  18.150  0.00  0.00    +0.000 N 
ATOM     22  C   UNL     1       4.714   4.114  17.150  0.00  0.00    +0.000 C 
ATOM     23  O   UNL     1       3.598   3.682  16.878  0.00  0.00    +0.000 OA
BRANCH  21  24
ATOM     24  C   UNL     1       6.140   5.879  18.094  0.00  0.00    +0.000 A 
ATOM     25  C   UNL     1       7.161   5.674  19.029  0.00  0.00    +0.000 A 
ATOM     26  C   UNL     1       8.215   6.578  19.115  0.00  0.00    +0.000 A 
ATOM     27  C   UNL     1       8.237   7.643  18.232  0.00  0.00    +0.000 A 
ATOM     28  N   UNL     1       7.302   7.842  17.279  0.00  0.00    +0.000 NA
ATOM     29  C   UNL     1       6.273   6.961  17.229  0.00  0.00    +0.000 A 
ENDBRANCH  21  24
BRANCH  22  30
ATOM     30  C   UNL     1       5.961   3.661  16.360  0.00  0.00    +0.000 C 
BRANCH  30  31
ATOM     31  C   UNL     1       5.962   3.893  14.876  0.00  0.00    +0.000 A 
ATOM     32  C   UNL     1       5.158   3.394  13.870  0.00  0.00    +0.000 A 
ATOM     33  C   UNL     1       5.617   3.770  12.569  0.00  0.00    +0.000 A 
ATOM     34  C   UNL     1       6.748   4.552  12.619  0.00  0.00    +0.000 A 
ATOM     35  S   UNL     1       7.250   4.839  14.223  0.00  0.00    +0.000 S 
ENDBRANCH  30  31
ENDBRANCH  22  30
ENDBRANCH   1  21
TORSDOF 9
ENDMDL
MODEL 4
REMARK VINA RESULT:      -7.6      0.810      1.312
REMARK  Name = 
REMARK  10 active torsions:
REMARK  status: ('A' for Active; 'I' for Inactive)
REMARK    1  A    between atoms: C_1  and  O_2
REMARK    2  A    between atoms: O_2  and  C_3
REMARK    3  A    between atoms: C_6  and  C_7
REMARK    4  A    between atoms: C_7  and  N_8
REMARK    5  A    between atoms: C_9  and  C_11
REMARK    6  A    between atoms: C_11  and  C_12
REMARK    7  A    between atoms: C_11  and  N_18
REMARK    8  A    between atoms: N_18  and  C_27
REMARK    9  A    between atoms: C_19  and  C_21
REMARK   10  A    between atoms: C_21  and  C_22
REMARK                            x       y       z     vdW  Elec       q    Type
REMARK                         _______ _______ _______ _____ _____    ______ ____
ROOT
ATOM      1  C   UNL     1       3.927   5.688  18.827  0.00  0.00    +0.000 C 
ENDROOT
BRANCH   1   2
ATOM      2  C   UNL     1       3.328   4.596  19.723  0.00  0.00    +0.000 A 
ATOM      3  C   UNL     1       3.955   3.354  19.873  0.00  0.00    +0.000 A 
ATOM      4  C   UNL     1       3.359   2.397  20.682  0.00  0.00    +0.000 A 
ATOM      5  N   UNL     1       2.193   2.585  21.335  0.00  0.00    +0.000 NA
ATOM      6  C   UNL     1       1.577   3.770  21.146  0.00  0.00    +0.000 A 
ATOM      7  C   UNL     1       2.090   4.788  20.356  0.00  0.00    +0.000 A 
ENDBRANCH   1   2
BRANCH   1   9
ATOM      8  N   UNL     1       2.783   7.846  18.305  0.00  0.00    +0.000 N 
ATOM      9  C   UNL     1       2.726   6.466  18.178  0.00  0.00    +0.000 C 
ATOM     10  O   UNL     1       1.774   5.893  17.653  0.00  0.00    +0.000 OA
ATOM     11  H   UNL     1       3.486   8.282  18.883  0.00  0.00    +0.000 HD
BRANCH   8  12
ATOM     12  C   UNL     1       1.730   8.693  17.782  0.00  0.00    +0.000 C 
BRANCH  12  16
ATOM     13  C   UNL     1       0.498  11.777  20.565  0.00  0.00    +0.000 A 
ATOM     14  C   UNL     1       1.127  12.121  19.366  0.00  0.00    +0.000 A 
ATOM     15  C   UNL     1       1.532  11.131  18.463  0.00  0.00    +0.000 A 
ATOM     16  C   UNL     1       1.323   9.776  18.753  0.00  0.00    +0.000 A 
ATOM     17  C   UNL     1       0.712   9.441  19.969  0.00  0.00    +0.000 A 
ATOM     18  C   UNL     1       0.297  10.434  20.866  0.00  0.00    +0.000 A 
BRANCH  13  20
ATOM     19  C   UNL     1      -0.194  14.040  20.704  0.00  0.00    +0.000 C 
ATOM     20  O   UNL     1       0.160  12.833  21.369  0.00  0.00    +0.000 OA
ENDBRANCH  13  20
ENDBRANCH  12  16
ENDBRANCH   8  12
ENDBRANCH   1   9
BRANCH   1  21
ATOM     21  N   UNL     1       5.054   5.180  17.963  0.00  0.00    +0.000 N 
ATOM     22  C   UNL     1       4.871   4.236  16.922  0.00  0.00    +0.000 C 
ATOM     23  O   UNL     1       3.771   3.792  16.607  0.00  0.00    +0.000 OA
BRANCH  21  24
ATOM     24  C   UNL     1       6.237   5.991  17.966  0.00  0.00    +0.000 A 
ATOM     25  C   UNL     1       7.244   5.767  18.912  0.00  0.00    +0.000 A 
ATOM     26  C   UNL     1       8.278   6.687  19.059  0.00  0.00    +0.000 A 
ATOM     27  C   UNL     1       8.294   7.790  18.223  0.00  0.00    +0.000 A 
ATOM     28  N   UNL     1       7.374   8.011  17.260  0.00  0.00    +0.000 NA
ATOM     29  C   UNL     1       6.365   7.113  17.151  0.00  0.00    +0.000 A 
ENDBRANCH  21  24
BRANCH  22  30
ATOM     30  C   UNL     1       6.145   3.839  16.146  0.00  0.00    +0.000 C 
BRANCH  30  31
ATOM     31  C   UNL     1       6.109   3.958  14.649  0.00  0.00    +0.000 A 
ATOM     32  C   UNL     1       5.286   3.379  13.703  0.00  0.00    +0.000 A 
ATOM     33  C   UNL     1       5.710   3.659  12.367  0.00  0.00    +0.000 A 
ATOM     34  C   UNL     1       6.835   4.451  12.330  0.00  0.00    +0.000 A 
ATOM     35  S   UNL     1       7.372   4.862  13.895  0.00  0.00    +0.000 S 
ENDBRANCH  30  31
ENDBRANCH  22  30
ENDBRANCH   1  21
TORSDOF 9
ENDMDL
MODEL 5
REMARK VINA RESULT:      -7.2      4.464      9.841
REMARK  Name = 
REMARK  10 active torsions:
REMARK  status: ('A' for Active; 'I' for Inactive)
REMARK    1  A    between atoms: C_1  and  O_2
REMARK    2  A    between atoms: O_2  and  C_3
REMARK    3  A    between atoms: C_6  and  C_7
REMARK    4  A    between atoms: C_7  and  N_8
REMARK    5  A    between atoms: C_9  and  C_11
REMARK    6  A    between atoms: C_11  and  C_12
REMARK    7  A    between atoms: C_11  and  N_18
REMARK    8  A    between atoms: N_18  and  C_27
REMARK    9  A    between atoms: C_19  and  C_21
REMARK   10  A    between atoms: C_21  and  C_22
REMARK                            x       y       z     vdW  Elec       q    Type
REMARK                         _______ _______ _______ _____ _____    ______ ____
ROOT
ATOM      1  C   UNL     1      -1.173  11.256  21.349  0.00  0.00    +0.000 C 
ENDROOT
BRANCH   1   2
ATOM      2  C   UNL     1      -1.617  12.247  22.432  0.00  0.00    +0.000 A 
ATOM      3  C   UNL     1      -2.855  12.116  23.073  0.00  0.00    +0.000 A 
ATOM      4  C   UNL     1      -3.212  13.052  24.033  0.00  0.00    +0.000 A 
ATOM      5  N   UNL     1      -2.440  14.099  24.387  0.00  0.00    +0.000 NA
ATOM      6  C   UNL     1      -1.270  14.239  23.730  0.00  0.00    +0.000 A 
ATOM      7  C   UNL     1      -0.824  13.359  22.754  0.00  0.00    +0.000 A 
ENDBRANCH   1   2
BRANCH   1   9
ATOM      8  N   UNL     1       0.439   9.357  21.155  0.00  0.00    +0.000 N 
ATOM      9  C   UNL     1      -0.182  10.241  22.025  0.00  0.00    +0.000 C 
ATOM     10  O   UNL     1      -0.017  10.192  23.241  0.00  0.00    +0.000 OA
ATOM     11  H   UNL     1       0.161   9.308  20.186  0.00  0.00    +0.000 HD
BRANCH   8  12
ATOM     12  C   UNL     1       1.355   8.345  21.639  0.00  0.00    +0.000 C 
BRANCH  12  16
ATOM     13  C   UNL     1       2.526   5.486  18.601  0.00  0.00    +0.000 A 
ATOM     14  C   UNL     1       2.578   6.857  18.336  0.00  0.00    +0.000 A 
ATOM     15  C   UNL     1       2.198   7.787  19.310  0.00  0.00    +0.000 A 
ATOM     16  C   UNL     1       1.747   7.358  20.565  0.00  0.00    +0.000 A 
ATOM     17  C   UNL     1       1.677   5.980  20.814  0.00  0.00    +0.000 A 
ATOM     18  C   UNL     1       2.069   5.051  19.841  0.00  0.00    +0.000 A 
BRANCH  13  20
ATOM     19  C   UNL     1       3.398   3.389  17.924  0.00  0.00    +0.000 C 
ATOM     20  O   UNL     1       2.912   4.677  17.566  0.00  0.00    +0.000 OA
ENDBRANCH  13  20
ENDBRANCH  12  16
ENDBRANCH   8  12
ENDBRANCH   1   9
BRANCH   1  21
ATOM     21  N   UNL     1      -0.794  11.936  20.056  0.00  0.00    +0.000 N 
ATOM     22  C   UNL     1       0.466  12.546  19.839  0.00  0.00    +0.000 C 
ATOM     23  O   UNL     1       1.370  12.527  20.670  0.00  0.00    +0.000 OA
BRANCH  21  24
ATOM     24  C   UNL     1      -1.600  11.583  18.923  0.00  0.00    +0.000 A 
ATOM     25  C   UNL     1      -2.888  12.113  18.781  0.00  0.00    +0.000 A 
ATOM     26  C   UNL     1      -3.747  11.602  17.813  0.00  0.00    +0.000 A 
ATOM     27  C   UNL     1      -3.275  10.598  16.985  0.00  0.00    +0.000 A 
ATOM     28  N   UNL     1      -2.022  10.102  17.053  0.00  0.00    +0.000 NA
ATOM     29  C   UNL     1      -1.210  10.599  18.018  0.00  0.00    +0.000 A 
ENDBRANCH  21  24
BRANCH  22  30
ATOM     30  C   UNL     1       0.669  13.189  18.451  0.00  0.00    +0.000 C 
BRANCH  30  31
ATOM     31  C   UNL     1       1.595  14.370  18.364  0.00  0.00    +0.000 A 
ATOM     32  C   UNL     1       2.925  14.467  18.007  0.00  0.00    +0.000 A 
ATOM     33  C   UNL     1       3.450  15.781  18.213  0.00  0.00    +0.000 A 
ATOM     34  C   UNL     1       2.505  16.650  18.710  0.00  0.00    +0.000 A 
ATOM     35  S   UNL     1       0.994  15.890  18.919  0.00  0.00    +0.000 S 
ENDBRANCH  30  31
ENDBRANCH  22  30
ENDBRANCH   1  21
TORSDOF 9
ENDMDL
MODEL 6
REMARK VINA RESULT:      -7.2      0.793      1.311
REMARK  Name = 
REMARK  10 active torsions:
REMARK  status: ('A' for Active; 'I' for Inactive)
REMARK    1  A    between atoms: C_1  and  O_2
REMARK    2  A    between atoms: O_2  and  C_3
REMARK    3  A    between atoms: C_6  and  C_7
REMARK    4  A    between atoms: C_7  and  N_8
REMARK    5  A    between atoms: C_9  and  C_11
REMARK    6  A    between atoms: C_11  and  C_12
REMARK    7  A    between atoms: C_11  and  N_18
REMARK    8  A    between atoms: N_18  and  C_27
REMARK    9  A    between atoms: C_19  and  C_21
REMARK   10  A    between atoms: C_21  and  C_22
REMARK                            x       y       z     vdW  Elec       q    Type
REMARK                         _______ _______ _______ _____ _____    ______ ____
ROOT
ATOM      1  C   UNL     1       3.559   5.597  18.870  0.00  0.00    +0.000 C 
ENDROOT
BRANCH   1   2
ATOM      2  C   UNL     1       2.850   4.441  19.585  0.00  0.00    +0.000 A 
ATOM      3  C   UNL     1       2.166   4.641  20.790  0.00  0.00    +0.000 A 
ATOM      4  C   UNL     1       1.558   3.555  21.402  0.00  0.00    +0.000 A 
ATOM      5  N   UNL     1       1.592   2.299  20.911  0.00  0.00    +0.000 NA
ATOM      6  C   UNL     1       2.292   2.111  19.774  0.00  0.00    +0.000 A 
ATOM      7  C   UNL     1       2.935   3.131  19.088  0.00  0.00    +0.000 A 
ENDBRANCH   1   2
BRANCH   1   9
ATOM      8  N   UNL     1       2.607   7.833  18.288  0.00  0.00    +0.000 N 
ATOM      9  C   UNL     1       2.449   6.460  18.168  0.00  0.00    +0.000 C 
ATOM     10  O   UNL     1       1.477   5.957  17.610  0.00  0.00    +0.000 OA
ATOM     11  H   UNL     1       3.319   8.218  18.891  0.00  0.00    +0.000 HD
BRANCH   8  12
ATOM     12  C   UNL     1       1.645   8.753  17.718  0.00  0.00    +0.000 C 
BRANCH  12  16
ATOM     13  C   UNL     1      -0.631  10.823  20.770  0.00  0.00    +0.000 A 
ATOM     14  C   UNL     1      -0.848  11.103  19.418  0.00  0.00    +0.000 A 
ATOM     15  C   UNL     1      -0.115  10.442  18.426  0.00  0.00    +0.000 A 
ATOM     16  C   UNL     1       0.859   9.495  18.773  0.00  0.00    +0.000 A 
ATOM     17  C   UNL     1       1.085   9.239  20.132  0.00  0.00    +0.000 A 
ATOM     18  C   UNL     1       0.342   9.893  21.124  0.00  0.00    +0.000 A 
BRANCH  13  20
ATOM     19  C   UNL     1      -1.268  11.206  23.020  0.00  0.00    +0.000 C 
ATOM     20  O   UNL     1      -1.401  11.542  21.644  0.00  0.00    +0.000 OA
ENDBRANCH  13  20
ENDBRANCH  12  16
ENDBRANCH   8  12
ENDBRANCH   1   9
BRANCH   1  21
ATOM     21  N   UNL     1       4.771   5.148  18.093  0.00  0.00    +0.000 N 
ATOM     22  C   UNL     1       4.695   4.327  16.940  0.00  0.00    +0.000 C 
ATOM     23  O   UNL     1       3.631   3.955  16.453  0.00  0.00    +0.000 OA
BRANCH  21  24
ATOM     24  C   UNL     1       5.962   5.915  18.322  0.00  0.00    +0.000 A 
ATOM     25  C   UNL     1       6.286   6.982  17.476  0.00  0.00    +0.000 A 
ATOM     26  C   UNL     1       7.541   7.578  17.559  0.00  0.00    +0.000 A 
ATOM     27  C   UNL     1       8.424   7.110  18.517  0.00  0.00    +0.000 A 
ATOM     28  N   UNL     1       8.127   6.123  19.388  0.00  0.00    +0.000 NA
ATOM     29  C   UNL     1       6.907   5.543  19.274  0.00  0.00    +0.000 A 
ENDBRANCH  21  24
BRANCH  22  30
ATOM     30  C   UNL     1       6.044   3.973  16.279  0.00  0.00    +0.000 C 
BRANCH  30  31
ATOM     31  C   UNL     1       6.119   4.040  14.780  0.00  0.00    +0.000 A 
ATOM     32  C   UNL     1       5.417   3.372  13.796  0.00  0.00    +0.000 A 
ATOM     33  C   UNL     1       5.926   3.639  12.487  0.00  0.00    +0.000 A 
ATOM     34  C   UNL     1       6.991   4.510  12.507  0.00  0.00    +0.000 A 
ATOM     35  S   UNL     1       7.372   5.009  14.092  0.00  0.00    +0.000 S 
ENDBRANCH  30  31
ENDBRANCH  22  30
ENDBRANCH   1  21
TORSDOF 9
ENDMDL
MODEL 7
REMARK VINA RESULT:      -7.1      3.286      7.199
REMARK  Name = 
REMARK  10 active torsions:
REMARK  status: ('A' for Active; 'I' for Inactive)
REMARK    1  A    between atoms: C_1  and  O_2
REMARK    2  A    between atoms: O_2  and  C_3
REMARK    3  A    between atoms: C_6  and  C_7
REMARK    4  A    between atoms: C_7  and  N_8
REMARK    5  A    between atoms: C_9  and  C_11
REMARK    6  A    between atoms: C_11  and  C_12
REMARK    7  A    between atoms: C_11  and  N_18
REMARK    8  A    between atoms: N_18  and  C_27
REMARK    9  A    between atoms: C_19  and  C_21
REMARK   10  A    between atoms: C_21  and  C_22
REMARK                            x       y       z     vdW  Elec       q    Type
REMARK                         _______ _______ _______ _____ _____    ______ ____
ROOT
ATOM      1  C   UNL     1       5.127   6.370  16.919  0.00  0.00    +0.000 C 
ENDROOT
BRANCH   1   2
ATOM      2  C   UNL     1       5.692   5.602  15.717  0.00  0.00    +0.000 A 
ATOM      3  C   UNL     1       4.854   5.115  14.707  0.00  0.00    +0.000 A 
ATOM      4  C   UNL     1       5.417   4.411  13.653  0.00  0.00    +0.000 A 
ATOM      5  N   UNL     1       6.737   4.152  13.541  0.00  0.00    +0.000 NA
ATOM      6  C   UNL     1       7.527   4.588  14.544  0.00  0.00    +0.000 A 
ATOM      7  C   UNL     1       7.059   5.297  15.640  0.00  0.00    +0.000 A 
ENDBRANCH   1   2
BRANCH   1   9
ATOM      8  N   UNL     1       7.162   7.624  17.644  0.00  0.00    +0.000 N 
ATOM      9  C   UNL     1       6.306   6.572  17.937  0.00  0.00    +0.000 C 
ATOM     10  O   UNL     1       6.495   5.817  18.886  0.00  0.00    +0.000 OA
ATOM     11  H   UNL     1       7.083   8.125  16.770  0.00  0.00    +0.000 HD
BRANCH   8  12
ATOM     12  C   UNL     1       8.311   7.912  18.477  0.00  0.00    +0.000 C 
BRANCH  12  16
ATOM     13  C   UNL     1       9.214  12.148  18.624  0.00  0.00    +0.000 A 
ATOM     14  C   UNL     1       9.713  11.287  19.605  0.00  0.00    +0.000 A 
ATOM     15  C   UNL     1       9.423   9.918  19.567  0.00  0.00    +0.000 A 
ATOM     16  C   UNL     1       8.617   9.390  18.550  0.00  0.00    +0.000 A 
ATOM     17  C   UNL     1       8.102  10.266  17.584  0.00  0.00    +0.000 A 
ATOM     18  C   UNL     1       8.403  11.634  17.617  0.00  0.00    +0.000 A 
BRANCH  13  20
ATOM     19  C   UNL     1      10.866  13.719  19.274  0.00  0.00    +0.000 C 
ATOM     20  O   UNL     1       9.557  13.465  18.776  0.00  0.00    +0.000 OA
ENDBRANCH  13  20
ENDBRANCH  12  16
ENDBRANCH   8  12
ENDBRANCH   1   9
BRANCH   1  21
ATOM     21  N   UNL     1       3.804   5.821  17.393  0.00  0.00    +0.000 N 
ATOM     22  C   UNL     1       3.557   4.438  17.575  0.00  0.00    +0.000 C 
ATOM     23  O   UNL     1       4.417   3.577  17.409  0.00  0.00    +0.000 OA
BRANCH  21  24
ATOM     24  C   UNL     1       2.946   6.771  18.040  0.00  0.00    +0.000 A 
ATOM     25  C   UNL     1       2.432   7.859  17.324  0.00  0.00    +0.000 A 
ATOM     26  C   UNL     1       1.791   8.894  17.998  0.00  0.00    +0.000 A 
ATOM     27  C   UNL     1       1.649   8.790  19.371  0.00  0.00    +0.000 A 
ATOM     28  N   UNL     1       2.079   7.731  20.088  0.00  0.00    +0.000 NA
ATOM     29  C   UNL     1       2.720   6.745  19.413  0.00  0.00    +0.000 A 
ENDBRANCH  21  24
BRANCH  22  30
ATOM     30  C   UNL     1       2.142   4.069  18.068  0.00  0.00    +0.000 C 
BRANCH  30  31
ATOM     31  C   UNL     1       2.023   3.454  19.434  0.00  0.00    +0.000 A 
ATOM     32  C   UNL     1       0.986   3.437  20.345  0.00  0.00    +0.000 A 
ATOM     33  C   UNL     1       1.366   2.857  21.594  0.00  0.00    +0.000 A 
ATOM     34  C   UNL     1       2.677   2.437  21.599  0.00  0.00    +0.000 A 
ATOM     35  S   UNL     1       3.442   2.733  20.105  0.00  0.00    +0.000 S 
ENDBRANCH  30  31
ENDBRANCH  22  30
ENDBRANCH   1  21
TORSDOF 9
ENDMDL
MODEL 8
REMARK VINA RESULT:      -7.1      0.892      1.338
REMARK  Name = 
REMARK  10 active torsions:
REMARK  status: ('A' for Active; 'I' for Inactive)
REMARK    1  A    between atoms: C_1  and  O_2
REMARK    2  A    between atoms: O_2  and  C_3
REMARK    3  A    between atoms: C_6  and  C_7
REMARK    4  A    between atoms: C_7  and  N_8
REMARK    5  A    between atoms: C_9  and  C_11
REMARK    6  A    between atoms: C_11  and  C_12
REMARK    7  A    between atoms: C_11  and  N_18
REMARK    8  A    between atoms: N_18  and  C_27
REMARK    9  A    between atoms: C_19  and  C_21
REMARK   10  A    between atoms: C_21  and  C_22
REMARK                            x       y       z     vdW  Elec       q    Type
REMARK                         _______ _______ _______ _____ _____    ______ ____
ROOT
ATOM      1  C   UNL     1       3.611   5.626  18.975  0.00  0.00    +0.000 C 
ENDROOT
BRANCH   1   2
ATOM      2  C   UNL     1       2.898   4.471  19.689  0.00  0.00    +0.000 A 
ATOM      3  C   UNL     1       3.605   3.351  20.144  0.00  0.00    +0.000 A 
ATOM      4  C   UNL     1       2.906   2.328  20.767  0.00  0.00    +0.000 A 
ATOM      5  N   UNL     1       1.570   2.335  20.957  0.00  0.00    +0.000 NA
ATOM      6  C   UNL     1       0.896   3.398  20.473  0.00  0.00    +0.000 A 
ATOM      7  C   UNL     1       1.502   4.470  19.834  0.00  0.00    +0.000 A 
ENDBRANCH   1   2
BRANCH   1   9
ATOM      8  N   UNL     1       2.596   7.875  18.578  0.00  0.00    +0.000 N 
ATOM      9  C   UNL     1       2.500   6.517  18.311  0.00  0.00    +0.000 C 
ATOM     10  O   UNL     1       1.577   6.041  17.655  0.00  0.00    +0.000 OA
ATOM     11  H   UNL     1       3.263   8.220  19.253  0.00  0.00    +0.000 HD
BRANCH   8  12
ATOM     12  C   UNL     1       1.625   8.814  18.057  0.00  0.00    +0.000 C 
BRANCH  12  16
ATOM     13  C   UNL     1       0.224  11.587  21.078  0.00  0.00    +0.000 A 
ATOM     14  C   UNL     1       0.393  10.235  21.387  0.00  0.00    +0.000 A 
ATOM     15  C   UNL     1       0.842   9.331  20.417  0.00  0.00    +0.000 A 
ATOM     16  C   UNL     1       1.117   9.767  19.114  0.00  0.00    +0.000 A 
ATOM     17  C   UNL     1       0.922  11.121  18.807  0.00  0.00    +0.000 A 
ATOM     18  C   UNL     1       0.484  12.025  19.783  0.00  0.00    +0.000 A 
BRANCH  13  20
ATOM     19  C   UNL     1      -1.283  11.819  22.893  0.00  0.00    +0.000 C 
ATOM     20  O   UNL     1      -0.230  12.367  22.108  0.00  0.00    +0.000 OA
ENDBRANCH  13  20
ENDBRANCH  12  16
ENDBRANCH   8  12
ENDBRANCH   1   9
BRANCH   1  21
ATOM     21  N   UNL     1       4.798   5.169  18.166  0.00  0.00    +0.000 N 
ATOM     22  C   UNL     1       4.693   4.280  17.067  0.00  0.00    +0.000 C 
ATOM     23  O   UNL     1       3.620   3.848  16.655  0.00  0.00    +0.000 OA
BRANCH  21  24
ATOM     24  C   UNL     1       5.972   5.983  18.291  0.00  0.00    +0.000 A 
ATOM     25  C   UNL     1       6.189   7.048  17.409  0.00  0.00    +0.000 A 
ATOM     26  C   UNL     1       7.423   7.691  17.386  0.00  0.00    +0.000 A 
ATOM     27  C   UNL     1       8.395   7.272  18.278  0.00  0.00    +0.000 A 
ATOM     28  N   UNL     1       8.204   6.288  19.182  0.00  0.00    +0.000 NA
ATOM     29  C   UNL     1       7.002   5.662  19.171  0.00  0.00    +0.000 A 
ENDBRANCH  21  24
BRANCH  22  30
ATOM     30  C   UNL     1       6.020   3.928  16.361  0.00  0.00    +0.000 C 
BRANCH  30  31
ATOM     31  C   UNL     1       6.054   4.029  14.862  0.00  0.00    +0.000 A 
ATOM     32  C   UNL     1       5.280   3.434  13.886  0.00  0.00    +0.000 A 
ATOM     33  C   UNL     1       5.766   3.700  12.568  0.00  0.00    +0.000 A 
ATOM     34  C   UNL     1       6.887   4.498  12.574  0.00  0.00    +0.000 A 
ATOM     35  S   UNL     1       7.348   4.930  14.158  0.00  0.00    +0.000 S 
ENDBRANCH  30  31
ENDBRANCH  22  30
ENDBRANCH   1  21
TORSDOF 9
ENDMDL
MODEL 9
REMARK VINA RESULT:      -7.1      4.359     10.214
REMARK  Name = 
REMARK  10 active torsions:
REMARK  status: ('A' for Active; 'I' for Inactive)
REMARK    1  A    between atoms: C_1  and  O_2
REMARK    2  A    between atoms: O_2  and  C_3
REMARK    3  A    between atoms: C_6  and  C_7
REMARK    4  A    between atoms: C_7  and  N_8
REMARK    5  A    between atoms: C_9  and  C_11
REMARK    6  A    between atoms: C_11  and  C_12
REMARK    7  A    between atoms: C_11  and  N_18
REMARK    8  A    between atoms: N_18  and  C_27
REMARK    9  A    between atoms: C_19  and  C_21
REMARK   10  A    between atoms: C_21  and  C_22
REMARK                            x       y       z     vdW  Elec       q    Type
REMARK                         _______ _______ _______ _____ _____    ______ ____
ROOT
ATOM      1  C   UNL     1      -1.460  11.434  21.523  0.00  0.00    +0.000 C 
ENDROOT
BRANCH   1   2
ATOM      2  C   UNL     1      -1.940  12.386  22.625  0.00  0.00    +0.000 A 
ATOM      3  C   UNL     1      -1.139  13.444  23.071  0.00  0.00    +0.000 A 
ATOM      4  C   UNL     1      -1.618  14.263  24.084  0.00  0.00    +0.000 A 
ATOM      5  N   UNL     1      -2.816  14.099  24.682  0.00  0.00    +0.000 NA
ATOM      6  C   UNL     1      -3.557  13.049  24.273  0.00  0.00    +0.000 A 
ATOM      7  C   UNL     1      -3.167  12.172  23.271  0.00  0.00    +0.000 A 
ENDBRANCH   1   2
BRANCH   1   9
ATOM      8  N   UNL     1       0.207   9.586  21.295  0.00  0.00    +0.000 N 
ATOM      9  C   UNL     1      -0.420  10.453  22.177  0.00  0.00    +0.000 C 
ATOM     10  O   UNL     1      -0.224  10.413  23.389  0.00  0.00    +0.000 OA
ATOM     11  H   UNL     1      -0.093   9.525  20.332  0.00  0.00    +0.000 HD
BRANCH   8  12
ATOM     12  C   UNL     1       1.166   8.606  21.759  0.00  0.00    +0.000 C 
BRANCH  12  16
ATOM     13  C   UNL     1       2.562   5.949  18.633  0.00  0.00    +0.000 A 
ATOM     14  C   UNL     1       2.449   7.321  18.393  0.00  0.00    +0.000 A 
ATOM     15  C   UNL     1       1.996   8.186  19.396  0.00  0.00    +0.000 A 
ATOM     16  C   UNL     1       1.635   7.688  20.655  0.00  0.00    +0.000 A 
ATOM     17  C   UNL     1       1.730   6.307  20.878  0.00  0.00    +0.000 A 
ATOM     18  C   UNL     1       2.195   5.445  19.877  0.00  0.00    +0.000 A 
BRANCH  13  20
ATOM     19  C   UNL     1       3.781   4.057  17.891  0.00  0.00    +0.000 C 
ATOM     20  O   UNL     1       3.006   5.207  17.571  0.00  0.00    +0.000 OA
ENDBRANCH  13  20
ENDBRANCH  12  16
ENDBRANCH   8  12
ENDBRANCH   1   9
BRANCH   1  21
ATOM     21  N   UNL     1      -1.120  12.150  20.240  0.00  0.00    +0.000 N 
ATOM     22  C   UNL     1       0.101  12.840  20.035  0.00  0.00    +0.000 C 
ATOM     23  O   UNL     1       1.001  12.869  20.869  0.00  0.00    +0.000 OA
BRANCH  21  24
ATOM     24  C   UNL     1      -1.898  11.760  19.099  0.00  0.00    +0.000 A 
ATOM     25  C   UNL     1      -3.230  12.173  18.980  0.00  0.00    +0.000 A 
ATOM     26  C   UNL     1      -4.045  11.616  17.999  0.00  0.00    +0.000 A 
ATOM     27  C   UNL     1      -3.489  10.686  17.138  0.00  0.00    +0.000 A 
ATOM     28  N   UNL     1      -2.194  10.306  17.184  0.00  0.00    +0.000 NA
ATOM     29  C   UNL     1      -1.425  10.846  18.162  0.00  0.00    +0.000 A 
ENDBRANCH  21  24
BRANCH  22  30
ATOM     30  C   UNL     1       0.268  13.511  18.655  0.00  0.00    +0.000 C 
BRANCH  30  31
ATOM     31  C   UNL     1       0.545  14.987  18.632  0.00  0.00    +0.000 A 
ATOM     32  C   UNL     1      -0.300  16.077  18.578  0.00  0.00    +0.000 A 
ATOM     33  C   UNL     1       0.408  17.309  18.421  0.00  0.00    +0.000 A 
ATOM     34  C   UNL     1       1.771  17.127  18.371  0.00  0.00    +0.000 A 
ATOM     35  S   UNL     1       2.196  15.482  18.520  0.00  0.00    +0.000 S 
ENDBRANCH  30  31
ENDBRANCH  22  30
ENDBRANCH   1  21
TORSDOF 9
ENDMDL
