MODEL 1
REMARK VINA RESULT:      -6.0      0.000      0.000
REMARK  Name = 
REMARK  8 active torsions:
REMARK  status: ('A' for Active; 'I' for Inactive)
REMARK    1  A    between atoms: C_1  and  O_2
REMARK    2  A    between atoms: O_2  and  C_3
REMARK    3  A    between atoms: C_5  and  O_6
REMARK    4  A    between atoms: O_6  and  C_7
REMARK    5  A    between atoms: C_9  and  N_10
REMARK    6  A    between atoms: C_15  and  O_16
REMARK    7  A    between atoms: O_16  and  C_17
REMARK    8  A    between atoms: C_19  and  C_20
REMARK                            x       y       z     vdW  Elec       q    Type
REMARK                         _______ _______ _______ _____ _____    ______ ____
ROOT
ATOM      1  N   UNL     1      -0.507  14.327  20.262  0.00  0.00    +0.000 N 
ATOM      2  N   UNL     1       0.882  15.841  20.603  0.00  0.00    +0.000 N 
ATOM      3  C   UNL     1       2.376  15.671  19.993  0.00  0.00    +0.000 C 
ATOM      4  C   UNL     1       3.515  16.291  20.337  0.00  0.00    +0.000 C 
ATOM      5  C   UNL     1       4.712  15.689  19.659  0.00  0.00    +0.000 C 
ATOM      6  C   UNL     1       4.418  15.469  18.143  0.00  0.00    +0.000 C 
ATOM      7  O   UNL     1       3.120  14.905  17.835  0.00  0.00    +0.000 OA
ATOM      8  C   UNL     1       2.581  14.237  18.974  0.00  0.00    +0.000 C 
ATOM      9  C   UNL     1       1.369  13.253  18.309  0.00  0.00    +0.000 C 
ATOM     10  C   UNL     1      -0.295  13.262  18.958  0.00  0.00    +0.000 C 
ATOM     11  O   UNL     1      -1.163  12.486  18.557  0.00  0.00    +0.000 OA
ATOM     12  H   UNL     1       0.573  16.657  21.138  0.00  0.00    +0.000 HD
ENDROOT
BRANCH   1  17
ATOM     13  C   UNL     1      -3.057  12.495  22.558  0.00  0.00    +0.000 A 
ATOM     14  C   UNL     1      -2.225  11.514  23.129  0.00  0.00    +0.000 A 
ATOM     15  C   UNL     1      -0.892  11.425  22.777  0.00  0.00    +0.000 A 
ATOM     16  C   UNL     1      -0.426  12.267  21.785  0.00  0.00    +0.000 A 
ATOM     17  C   UNL     1      -1.199  13.351  21.275  0.00  0.00    +0.000 A 
ATOM     18  C   UNL     1      -2.545  13.429  21.639  0.00  0.00    +0.000 A 
BRANCH  13  20
ATOM     19  C   UNL     1      -4.648  13.146  24.201  0.00  0.00    +0.000 C 
ATOM     20  O   UNL     1      -4.346  12.429  23.015  0.00  0.00    +0.000 OA
ENDBRANCH  13  20
BRANCH  15  21
ATOM     21  O   UNL     1      -0.114  10.493  23.409  0.00  0.00    +0.000 OA
ATOM     22  C   UNL     1       0.213   9.348  22.615  0.00  0.00    +0.000 C 
ENDBRANCH  15  21
ENDBRANCH   1  17
BRANCH   8  23
ATOM     23  C   UNL     1       1.350  14.361  19.615  0.00  0.00    +0.000 A 
ATOM     24  C   UNL     1       0.166  15.479  18.687  0.00  0.00    +0.000 A 
ATOM     25  C   UNL     1      -0.987  16.307  19.664  0.00  0.00    +0.000 A 
ATOM     26  N   UNL     1      -0.984  16.198  21.401  0.00  0.00    +0.000 NA
ATOM     27  C   UNL     1       0.137  15.178  22.261  0.00  0.00    +0.000 A 
ATOM     28  C   UNL     1       1.324  14.181  21.445  0.00  0.00    +0.000 A 
ENDBRANCH   8  23
BRANCH   6  29
ATOM     29  O   UNL     1       5.478  14.674  17.611  0.00  0.00    +0.000 OA
ATOM     30  C   UNL     1       6.716  14.944  18.253  0.00  0.00    +0.000 C 
ENDBRANCH   6  29
TORSDOF 5
ENDMDL
MODEL 2
REMARK VINA RESULT:      -6.0      0.250      2.239
REMARK  Name = 
REMARK  8 active torsions:
REMARK  status: ('A' for Active; 'I' for Inactive)
REMARK    1  A    between atoms: C_1  and  O_2
REMARK    2  A    between atoms: O_2  and  C_3
REMARK    3  A    between atoms: C_5  and  O_6
REMARK    4  A    between atoms: O_6  and  C_7
REMARK    5  A    between atoms: C_9  and  N_10
REMARK    6  A    between atoms: C_15  and  O_16
REMARK    7  A    between atoms: O_16  and  C_17
REMARK    8  A    between atoms: C_19  and  C_20
REMARK                            x       y       z     vdW  Elec       q    Type
REMARK                         _______ _______ _______ _____ _____    ______ ____
ROOT
ATOM      1  N   UNL     1      -0.489  14.385  20.375  0.00  0.00    +0.000 N 
ATOM      2  N   UNL     1       0.881  15.928  20.659  0.00  0.00    +0.000 N 
ATOM      3  C   UNL     1       2.354  15.785  19.996  0.00  0.00    +0.000 C 
ATOM      4  C   UNL     1       3.493  16.429  20.297  0.00  0.00    +0.000 C 
ATOM      5  C   UNL     1       4.676  15.848  19.579  0.00  0.00    +0.000 C 
ATOM      6  C   UNL     1       4.332  15.615  18.075  0.00  0.00    +0.000 C 
ATOM      7  O   UNL     1       3.035  15.024  17.816  0.00  0.00    +0.000 OA
ATOM      8  C   UNL     1       2.552  14.351  18.976  0.00  0.00    +0.000 C 
ATOM      9  C   UNL     1       1.336  13.340  18.359  0.00  0.00    +0.000 C 
ATOM     10  C   UNL     1      -0.304  13.319  19.068  0.00  0.00    +0.000 C 
ATOM     11  O   UNL     1      -1.170  12.524  18.702  0.00  0.00    +0.000 OA
ATOM     12  H   UNL     1       0.574  16.740  21.202  0.00  0.00    +0.000 HD
ENDROOT
BRANCH   1  17
ATOM     13  C   UNL     1      -1.122  11.502  22.908  0.00  0.00    +0.000 A 
ATOM     14  C   UNL     1      -2.468  11.746  23.239  0.00  0.00    +0.000 A 
ATOM     15  C   UNL     1      -3.150  12.814  22.687  0.00  0.00    +0.000 A 
ATOM     16  C   UNL     1      -2.446  13.681  21.873  0.00  0.00    +0.000 A 
ATOM     17  C   UNL     1      -1.125  13.400  21.415  0.00  0.00    +0.000 A 
ATOM     18  C   UNL     1      -0.448  12.318  21.981  0.00  0.00    +0.000 A 
BRANCH  13  20
ATOM     19  C   UNL     1       0.094   9.463  22.766  0.00  0.00    +0.000 C 
ATOM     20  O   UNL     1      -0.607  10.410  23.555  0.00  0.00    +0.000 OA
ENDBRANCH  13  20
BRANCH  15  21
ATOM     21  O   UNL     1      -4.474  12.969  22.996  0.00  0.00    +0.000 OA
ATOM     22  C   UNL     1      -4.811  12.669  24.355  0.00  0.00    +0.000 C 
ENDBRANCH  15  21
ENDBRANCH   1  17
BRANCH   8  23
ATOM     23  C   UNL     1       1.342  14.454  19.661  0.00  0.00    +0.000 A 
ATOM     24  C   UNL     1       0.103  15.542  18.771  0.00  0.00    +0.000 A 
ATOM     25  C   UNL     1      -1.031  16.351  19.785  0.00  0.00    +0.000 A 
ATOM     26  N   UNL     1      -0.963  16.252  21.521  0.00  0.00    +0.000 NA
ATOM     27  C   UNL     1       0.209  15.261  22.346  0.00  0.00    +0.000 A 
ATOM     28  C   UNL     1       1.386  14.283  21.492  0.00  0.00    +0.000 A 
ENDBRANCH   8  23
BRANCH   6  29
ATOM     29  O   UNL     1       5.388  14.839  17.508  0.00  0.00    +0.000 OA
ATOM     30  C   UNL     1       6.616  15.031  18.197  0.00  0.00    +0.000 C 
ENDBRANCH   6  29
TORSDOF 5
ENDMDL
MODEL 3
REMARK VINA RESULT:      -5.9      2.742      7.894
REMARK  Name = 
REMARK  8 active torsions:
REMARK  status: ('A' for Active; 'I' for Inactive)
REMARK    1  A    between atoms: C_1  and  O_2
REMARK    2  A    between atoms: O_2  and  C_3
REMARK    3  A    between atoms: C_5  and  O_6
REMARK    4  A    between atoms: O_6  and  C_7
REMARK    5  A    between atoms: C_9  and  N_10
REMARK    6  A    between atoms: C_15  and  O_16
REMARK    7  A    between atoms: O_16  and  C_17
REMARK    8  A    between atoms: C_19  and  C_20
REMARK                            x       y       z     vdW  Elec       q    Type
REMARK                         _______ _______ _______ _____ _____    ______ ____
ROOT
ATOM      1  N   UNL     1       3.930  15.928  19.577  0.00  0.00    +0.000 N 
ATOM      2  N   UNL     1       2.163  15.387  18.615  0.00  0.00    +0.000 N 
ATOM      3  C   UNL     1       1.411  14.030  19.089  0.00  0.00    +0.000 C 
ATOM      4  C   UNL     1       0.495  13.291  18.443  0.00  0.00    +0.000 C 
ATOM      5  C   UNL     1       0.210  12.000  19.154  0.00  0.00    +0.000 C 
ATOM      6  C   UNL     1       0.012  12.256  20.679  0.00  0.00    +0.000 C 
ATOM      7  O   UNL     1       0.967  13.158  21.289  0.00  0.00    +0.000 OA
ATOM      8  C   UNL     1       2.149  13.247  20.496  0.00  0.00    +0.000 C 
ATOM      9  C   UNL     1       3.289  13.901  21.569  0.00  0.00    +0.000 C 
ATOM     10  C   UNL     1       4.266  15.331  21.129  0.00  0.00    +0.000 C 
ATOM     11  O   UNL     1       5.166  15.761  21.851  0.00  0.00    +0.000 OA
ATOM     12  H   UNL     1       1.817  16.005  17.877  0.00  0.00    +0.000 HD
ENDROOT
BRANCH   1  17
ATOM     13  C   UNL     1       7.429  17.162  18.410  0.00  0.00    +0.000 A 
ATOM     14  C   UNL     1       7.989  15.950  17.962  0.00  0.00    +0.000 A 
ATOM     15  C   UNL     1       7.278  14.768  18.049  0.00  0.00    +0.000 A 
ATOM     16  C   UNL     1       6.043  14.799  18.669  0.00  0.00    +0.000 A 
ATOM     17  C   UNL     1       5.392  16.017  19.020  0.00  0.00    +0.000 A 
ATOM     18  C   UNL     1       6.121  17.204  18.927  0.00  0.00    +0.000 A 
BRANCH  13  20
ATOM     19  C   UNL     1       9.630  17.935  17.943  0.00  0.00    +0.000 C 
ATOM     20  O   UNL     1       8.277  18.226  18.256  0.00  0.00    +0.000 OA
ENDBRANCH  13  20
BRANCH  15  21
ATOM     21  O   UNL     1       7.846  13.631  17.542  0.00  0.00    +0.000 OA
ATOM     22  C   UNL     1       9.198  13.402  17.952  0.00  0.00    +0.000 C 
ENDBRANCH  15  21
ENDBRANCH   1  17
BRANCH   8  23
ATOM     23  C   UNL     1       2.830  14.349  19.980  0.00  0.00    +0.000 A 
ATOM     24  C   UNL     1       2.159  15.975  20.629  0.00  0.00    +0.000 A 
ATOM     25  C   UNL     1       2.334  17.321  19.568  0.00  0.00    +0.000 A 
ATOM     26  N   UNL     1       2.989  17.162  17.963  0.00  0.00    +0.000 NA
ATOM     27  C   UNL     1       3.585  15.642  17.354  0.00  0.00    +0.000 A 
ATOM     28  C   UNL     1       3.586  14.176  18.313  0.00  0.00    +0.000 A 
ENDBRANCH   8  23
BRANCH   6  29
ATOM     29  O   UNL     1      -0.002  10.985  21.331  0.00  0.00    +0.000 OA
ATOM     30  C   UNL     1       0.010   9.912  20.398  0.00  0.00    +0.000 C 
ENDBRANCH   6  29
TORSDOF 5
ENDMDL
MODEL 4
REMARK VINA RESULT:      -5.8      2.398      8.020
REMARK  Name = 
REMARK  8 active torsions:
REMARK  status: ('A' for Active; 'I' for Inactive)
REMARK    1  A    between atoms: C_1  and  O_2
REMARK    2  A    between atoms: O_2  and  C_3
REMARK    3  A    between atoms: C_5  and  O_6
REMARK    4  A    between atoms: O_6  and  C_7
REMARK    5  A    between atoms: C_9  and  N_10
REMARK    6  A    between atoms: C_15  and  O_16
REMARK    7  A    between atoms: O_16  and  C_17
REMARK    8  A    between atoms: C_19  and  C_20
REMARK                            x       y       z     vdW  Elec       q    Type
REMARK                         _______ _______ _______ _____ _____    ______ ____
ROOT
ATOM      1  N   UNL     1       3.826  15.912  19.545  0.00  0.00    +0.000 N 
ATOM      2  N   UNL     1       2.028  15.531  18.566  0.00  0.00    +0.000 N 
ATOM      3  C   UNL     1       1.150  14.249  19.034  0.00  0.00    +0.000 C 
ATOM      4  C   UNL     1       0.178  13.595  18.380  0.00  0.00    +0.000 C 
ATOM      5  C   UNL     1      -0.229  12.335  19.088  0.00  0.00    +0.000 C 
ATOM      6  C   UNL     1      -0.418  12.612  20.612  0.00  0.00    +0.000 C 
ATOM      7  O   UNL     1       0.608  13.425  21.230  0.00  0.00    +0.000 OA
ATOM      8  C   UNL     1       1.801  13.405  20.449  0.00  0.00    +0.000 C 
ATOM      9  C   UNL     1       2.985  13.956  21.533  0.00  0.00    +0.000 C 
ATOM     10  C   UNL     1       4.091  15.290  21.101  0.00  0.00    +0.000 C 
ATOM     11  O   UNL     1       5.020  15.639  21.832  0.00  0.00    +0.000 OA
ATOM     12  H   UNL     1       1.746  16.176  17.823  0.00  0.00    +0.000 HD
ENDROOT
BRANCH   1  17
ATOM     13  C   UNL     1       7.253  14.789  18.087  0.00  0.00    +0.000 A 
ATOM     14  C   UNL     1       7.947  16.013  18.098  0.00  0.00    +0.000 A 
ATOM     15  C   UNL     1       7.333  17.170  18.538  0.00  0.00    +0.000 A 
ATOM     16  C   UNL     1       5.995  17.104  18.881  0.00  0.00    +0.000 A 
ATOM     17  C   UNL     1       5.296  15.868  19.003  0.00  0.00    +0.000 A 
ATOM     18  C   UNL     1       5.928  14.706  18.554  0.00  0.00    +0.000 A 
BRANCH  13  20
ATOM     19  C   UNL     1       9.383  13.737  17.975  0.00  0.00    +0.000 C 
ATOM     20  O   UNL     1       8.012  13.753  17.611  0.00  0.00    +0.000 OA
ENDBRANCH  13  20
BRANCH  15  21
ATOM     21  O   UNL     1       8.073  18.320  18.586  0.00  0.00    +0.000 OA
ATOM     22  C   UNL     1       9.406  18.196  18.078  0.00  0.00    +0.000 C 
ENDBRANCH  15  21
ENDBRANCH   1  17
BRANCH   8  23
ATOM     23  C   UNL     1       2.584  14.440  19.939  0.00  0.00    +0.000 A 
ATOM     24  C   UNL     1       2.041  16.123  20.560  0.00  0.00    +0.000 A 
ATOM     25  C   UNL     1       2.352  17.439  19.492  0.00  0.00    +0.000 A 
ATOM     26  N   UNL     1       3.024  17.209  17.903  0.00  0.00    +0.000 NA
ATOM     27  C   UNL     1       3.501  15.638  17.319  0.00  0.00    +0.000 A 
ATOM     28  C   UNL     1       3.357  14.186  18.290  0.00  0.00    +0.000 A 
ENDBRANCH   8  23
BRANCH   6  29
ATOM     29  O   UNL     1      -0.554  11.349  21.264  0.00  0.00    +0.000 OA
ATOM     30  C   UNL     1      -0.857  11.496  22.645  0.00  0.00    +0.000 C 
ENDBRANCH   6  29
TORSDOF 5
ENDMDL
MODEL 5
REMARK VINA RESULT:      -5.8      2.972      6.888
REMARK  Name = 
REMARK  8 active torsions:
REMARK  status: ('A' for Active; 'I' for Inactive)
REMARK    1  A    between atoms: C_1  and  O_2
REMARK    2  A    between atoms: O_2  and  C_3
REMARK    3  A    between atoms: C_5  and  O_6
REMARK    4  A    between atoms: O_6  and  C_7
REMARK    5  A    between atoms: C_9  and  N_10
REMARK    6  A    between atoms: C_15  and  O_16
REMARK    7  A    between atoms: O_16  and  C_17
REMARK    8  A    between atoms: C_19  and  C_20
REMARK                            x       y       z     vdW  Elec       q    Type
REMARK                         _______ _______ _______ _____ _____    ______ ____
ROOT
ATOM      1  N   UNL     1      -0.515  12.720  21.142  0.00  0.00    +0.000 N 
ATOM      2  N   UNL     1      -1.206  14.681  21.026  0.00  0.00    +0.000 N 
ATOM      3  C   UNL     1      -2.649  15.031  21.679  0.00  0.00    +0.000 C 
ATOM      4  C   UNL     1      -3.458  16.078  21.452  0.00  0.00    +0.000 C 
ATOM      5  C   UNL     1      -4.795  15.911  22.113  0.00  0.00    +0.000 C 
ATOM      6  C   UNL     1      -4.613  15.421  23.582  0.00  0.00    +0.000 C 
ATOM      7  O   UNL     1      -3.636  14.368  23.772  0.00  0.00    +0.000 OA
ATOM      8  C   UNL     1      -3.397  13.681  22.546  0.00  0.00    +0.000 C 
ATOM      9  C   UNL     1      -2.663  12.235  23.049  0.00  0.00    +0.000 C 
ATOM     10  C   UNL     1      -1.125  11.676  22.332  0.00  0.00    +0.000 C 
ATOM     11  O   UNL     1      -0.627  10.585  22.610  0.00  0.00    +0.000 OA
ATOM     12  H   UNL     1      -0.603  15.370  20.568  0.00  0.00    +0.000 HD
ENDROOT
BRANCH   1  17
ATOM     13  C   UNL     1       1.128  10.313  18.565  0.00  0.00    +0.000 A 
ATOM     14  C   UNL     1      -0.018   9.816  17.916  0.00  0.00    +0.000 A 
ATOM     15  C   UNL     1      -1.282  10.221  18.303  0.00  0.00    +0.000 A 
ATOM     16  C   UNL     1      -1.387  11.055  19.400  0.00  0.00    +0.000 A 
ATOM     17  C   UNL     1      -0.254  11.676  20.002  0.00  0.00    +0.000 A 
ATOM     18  C   UNL     1       1.017  11.258  19.602  0.00  0.00    +0.000 A 
BRANCH  13  20
ATOM     19  C   UNL     1       2.408   8.383  18.021  0.00  0.00    +0.000 C 
ATOM     20  O   UNL     1       2.290   9.796  18.058  0.00  0.00    +0.000 OA
ENDBRANCH  13  20
BRANCH  15  21
ATOM     21  O   UNL     1      -2.357   9.754  17.597  0.00  0.00    +0.000 OA
ATOM     22  C   UNL     1      -2.476  10.278  16.270  0.00  0.00    +0.000 C 
ENDBRANCH  15  21
ENDBRANCH   1  17
BRANCH   8  23
ATOM     23  C   UNL     1      -2.213  13.393  21.868  0.00  0.00    +0.000 A 
ATOM     24  C   UNL     1      -0.690  13.872  22.850  0.00  0.00    +0.000 A 
ATOM     25  C   UNL     1       0.691  14.296  21.910  0.00  0.00    +0.000 A 
ATOM     26  N   UNL     1       0.643  14.379  20.172  0.00  0.00    +0.000 NA
ATOM     27  C   UNL     1      -0.784  13.959  19.265  0.00  0.00    +0.000 A 
ATOM     28  C   UNL     1      -2.262  13.409  20.030  0.00  0.00    +0.000 A 
ENDBRANCH   8  23
BRANCH   6  29
ATOM     29  O   UNL     1      -5.899  15.041  24.072  0.00  0.00    +0.000 OA
ATOM     30  C   UNL     1      -6.926  15.889  23.576  0.00  0.00    +0.000 C 
ENDBRANCH   6  29
TORSDOF 5
ENDMDL
MODEL 6
REMARK VINA RESULT:      -5.8      2.166      7.723
REMARK  Name = 
REMARK  8 active torsions:
REMARK  status: ('A' for Active; 'I' for Inactive)
REMARK    1  A    between atoms: C_1  and  O_2
REMARK    2  A    between atoms: O_2  and  C_3
REMARK    3  A    between atoms: C_5  and  O_6
REMARK    4  A    between atoms: O_6  and  C_7
REMARK    5  A    between atoms: C_9  and  N_10
REMARK    6  A    between atoms: C_15  and  O_16
REMARK    7  A    between atoms: O_16  and  C_17
REMARK    8  A    between atoms: C_19  and  C_20
REMARK                            x       y       z     vdW  Elec       q    Type
REMARK                         _______ _______ _______ _____ _____    ______ ____
ROOT
ATOM      1  N   UNL     1      -1.775  14.783  22.665  0.00  0.00    +0.000 N 
ATOM      2  N   UNL     1      -3.659  15.633  22.929  0.00  0.00    +0.000 N 
ATOM      3  C   UNL     1      -4.941  14.646  23.048  0.00  0.00    +0.000 C 
ATOM      4  C   UNL     1      -6.245  14.915  22.876  0.00  0.00    +0.000 C 
ATOM      5  C   UNL     1      -7.082  13.669  22.877  0.00  0.00    +0.000 C 
ATOM      6  C   UNL     1      -6.667  12.741  24.060  0.00  0.00    +0.000 C 
ATOM      7  O   UNL     1      -5.241  12.589  24.262  0.00  0.00    +0.000 OA
ATOM      8  C   UNL     1      -4.528  12.924  23.074  0.00  0.00    +0.000 C 
ATOM      9  C   UNL     1      -3.002  12.225  23.326  0.00  0.00    +0.000 C 
ATOM     10  C   UNL     1      -1.501  13.173  23.122  0.00  0.00    +0.000 C 
ATOM     11  O   UNL     1      -0.384  12.662  23.202  0.00  0.00    +0.000 OA
ATOM     12  H   UNL     1      -3.715  16.653  22.988  0.00  0.00    +0.000 HD
ENDROOT
BRANCH   1  17
ATOM     13  C   UNL     1       1.132  15.695  20.246  0.00  0.00    +0.000 A 
ATOM     14  C   UNL     1       0.808  14.883  19.143  0.00  0.00    +0.000 A 
ATOM     15  C   UNL     1      -0.294  14.051  19.177  0.00  0.00    +0.000 A 
ATOM     16  C   UNL     1      -1.014  13.976  20.355  0.00  0.00    +0.000 A 
ATOM     17  C   UNL     1      -0.795  14.869  21.444  0.00  0.00    +0.000 A 
ATOM     18  C   UNL     1       0.322  15.704  21.397  0.00  0.00    +0.000 A 
BRANCH  13  20
ATOM     19  C   UNL     1       3.074  16.095  18.933  0.00  0.00    +0.000 C 
ATOM     20  O   UNL     1       2.259  16.444  20.040  0.00  0.00    +0.000 OA
ENDBRANCH  13  20
BRANCH  15  21
ATOM     21  O   UNL     1      -0.598  13.329  18.054  0.00  0.00    +0.000 OA
ATOM     22  C   UNL     1      -1.407  12.172  18.286  0.00  0.00    +0.000 C 
ENDBRANCH  15  21
ENDBRANCH   1  17
BRANCH   8  23
ATOM     23  C   UNL     1      -3.470  13.805  22.853  0.00  0.00    +0.000 A 
ATOM     24  C   UNL     1      -2.781  14.512  24.446  0.00  0.00    +0.000 A 
ATOM     25  C   UNL     1      -2.083  16.082  24.315  0.00  0.00    +0.000 A 
ATOM     26  N   UNL     1      -2.113  16.993  22.833  0.00  0.00    +0.000 NA
ATOM     27  C   UNL     1      -2.780  16.341  21.360  0.00  0.00    +0.000 A 
ATOM     28  C   UNL     1      -3.449  14.725  21.261  0.00  0.00    +0.000 A 
ENDBRANCH   8  23
BRANCH   6  29
ATOM     29  O   UNL     1      -7.309  11.481  23.863  0.00  0.00    +0.000 OA
ATOM     30  C   UNL     1      -7.908  11.387  22.578  0.00  0.00    +0.000 C 
ENDBRANCH   6  29
TORSDOF 5
ENDMDL
MODEL 7
REMARK VINA RESULT:      -5.8      1.987      7.318
REMARK  Name = 
REMARK  8 active torsions:
REMARK  status: ('A' for Active; 'I' for Inactive)
REMARK    1  A    between atoms: C_1  and  O_2
REMARK    2  A    between atoms: O_2  and  C_3
REMARK    3  A    between atoms: C_5  and  O_6
REMARK    4  A    between atoms: O_6  and  C_7
REMARK    5  A    between atoms: C_9  and  N_10
REMARK    6  A    between atoms: C_15  and  O_16
REMARK    7  A    between atoms: O_16  and  C_17
REMARK    8  A    between atoms: C_19  and  C_20
REMARK                            x       y       z     vdW  Elec       q    Type
REMARK                         _______ _______ _______ _____ _____    ______ ____
ROOT
ATOM      1  N   UNL     1      -1.286  13.608  22.092  0.00  0.00    +0.000 N 
ATOM      2  N   UNL     1      -2.829  15.006  22.027  0.00  0.00    +0.000 N 
ATOM      3  C   UNL     1      -4.324  14.525  22.432  0.00  0.00    +0.000 C 
ATOM      4  C   UNL     1      -5.509  15.093  22.156  0.00  0.00    +0.000 C 
ATOM      5  C   UNL     1      -6.660  14.210  22.541  0.00  0.00    +0.000 C 
ATOM      6  C   UNL     1      -6.436  13.625  23.969  0.00  0.00    +0.000 C 
ATOM      7  O   UNL     1      -5.100  13.137  24.241  0.00  0.00    +0.000 OA
ATOM      8  C   UNL     1      -4.413  12.857  23.023  0.00  0.00    +0.000 C 
ATOM      9  C   UNL     1      -3.131  11.862  23.520  0.00  0.00    +0.000 C 
ATOM     10  C   UNL     1      -1.444  12.217  23.052  0.00  0.00    +0.000 C 
ATOM     11  O   UNL     1      -0.512  11.456  23.317  0.00  0.00    +0.000 OA
ATOM     12  H   UNL     1      -2.591  15.962  21.752  0.00  0.00    +0.000 HD
ENDROOT
BRANCH   1  17
ATOM     13  C   UNL     1       0.025  11.547  19.065  0.00  0.00    +0.000 A 
ATOM     14  C   UNL     1       1.319  12.084  18.934  0.00  0.00    +0.000 A 
ATOM     15  C   UNL     1       1.756  13.091  19.774  0.00  0.00    +0.000 A 
ATOM     16  C   UNL     1       0.854  13.612  20.683  0.00  0.00    +0.000 A 
ATOM     17  C   UNL     1      -0.416  13.015  20.931  0.00  0.00    +0.000 A 
ATOM     18  C   UNL     1      -0.844  11.999  20.075  0.00  0.00    +0.000 A 
BRANCH  13  20
ATOM     19  C   UNL     1      -1.601  10.281  17.878  0.00  0.00    +0.000 C 
ATOM     20  O   UNL     1      -0.238  10.568  18.144  0.00  0.00    +0.000 OA
ENDBRANCH  13  20
BRANCH  15  21
ATOM     21  O   UNL     1       3.044  13.533  19.643  0.00  0.00    +0.000 OA
ATOM     22  C   UNL     1       3.332  14.755  20.332  0.00  0.00    +0.000 C 
ENDBRANCH  15  21
ENDBRANCH   1  17
BRANCH   8  23
ATOM     23  C   UNL     1      -3.169  13.276  22.552  0.00  0.00    +0.000 A 
ATOM     24  C   UNL     1      -2.184  14.202  23.850  0.00  0.00    +0.000 A 
ATOM     25  C   UNL     1      -1.082  15.378  23.240  0.00  0.00    +0.000 A 
ATOM     26  N   UNL     1      -0.969  15.757  21.544  0.00  0.00    +0.000 NA
ATOM     27  C   UNL     1      -1.907  14.911  20.344  0.00  0.00    +0.000 A 
ATOM     28  C   UNL     1      -3.013  13.614  20.751  0.00  0.00    +0.000 A 
ENDBRANCH   8  23
BRANCH   6  29
ATOM     29  O   UNL     1      -7.420  12.611  24.178  0.00  0.00    +0.000 OA
ATOM     30  C   UNL     1      -7.915  12.094  22.950  0.00  0.00    +0.000 C 
ENDBRANCH   6  29
TORSDOF 5
ENDMDL
MODEL 8
REMARK VINA RESULT:      -5.7      3.339      6.762
REMARK  Name = 
REMARK  8 active torsions:
REMARK  status: ('A' for Active; 'I' for Inactive)
REMARK    1  A    between atoms: C_1  and  O_2
REMARK    2  A    between atoms: O_2  and  C_3
REMARK    3  A    between atoms: C_5  and  O_6
REMARK    4  A    between atoms: O_6  and  C_7
REMARK    5  A    between atoms: C_9  and  N_10
REMARK    6  A    between atoms: C_15  and  O_16
REMARK    7  A    between atoms: O_16  and  C_17
REMARK    8  A    between atoms: C_19  and  C_20
REMARK                            x       y       z     vdW  Elec       q    Type
REMARK                         _______ _______ _______ _____ _____    ______ ____
ROOT
ATOM      1  N   UNL     1      -0.042  11.948  19.537  0.00  0.00    +0.000 N 
ATOM      2  N   UNL     1      -2.049  12.403  19.216  0.00  0.00    +0.000 N 
ATOM      3  C   UNL     1      -2.965  12.797  20.496  0.00  0.00    +0.000 C 
ATOM      4  C   UNL     1      -4.302  12.793  20.623  0.00  0.00    +0.000 C 
ATOM      5  C   UNL     1      -4.733  13.030  22.041  0.00  0.00    +0.000 C 
ATOM      6  C   UNL     1      -3.935  14.220  22.656  0.00  0.00    +0.000 C 
ATOM      7  O   UNL     1      -2.513  14.227  22.379  0.00  0.00    +0.000 OA
ATOM      8  C   UNL     1      -2.068  12.922  22.017  0.00  0.00    +0.000 C 
ATOM      9  C   UNL     1      -0.386  13.013  22.226  0.00  0.00    +0.000 C 
ATOM     10  C   UNL     1       0.740  12.507  20.935  0.00  0.00    +0.000 C 
ATOM     11  O   UNL     1       1.960  12.471  21.101  0.00  0.00    +0.000 OA
ATOM     12  H   UNL     1      -2.394  12.375  18.253  0.00  0.00    +0.000 HD
ENDROOT
BRANCH   1  17
ATOM     13  C   UNL     1       2.131   9.036  18.149  0.00  0.00    +0.000 A 
ATOM     14  C   UNL     1       1.997   8.100  19.191  0.00  0.00    +0.000 A 
ATOM     15  C   UNL     1       1.251   8.396  20.317  0.00  0.00    +0.000 A 
ATOM     16  C   UNL     1       0.719   9.667  20.424  0.00  0.00    +0.000 A 
ATOM     17  C   UNL     1       0.726  10.595  19.342  0.00  0.00    +0.000 A 
ATOM     18  C   UNL     1       1.483  10.283  18.212  0.00  0.00    +0.000 A 
BRANCH  13  20
ATOM     19  C   UNL     1       3.735   7.453  17.388  0.00  0.00    +0.000 C 
ATOM     20  O   UNL     1       2.911   8.576  17.122  0.00  0.00    +0.000 OA
ENDBRANCH  13  20
BRANCH  15  21
ATOM     21  O   UNL     1       1.103   7.427  21.271  0.00  0.00    +0.000 OA
ATOM     22  C   UNL     1       1.545   6.124  20.875  0.00  0.00    +0.000 C 
ENDBRANCH  15  21
ENDBRANCH   1  17
BRANCH   8  23
ATOM     23  C   UNL     1      -1.344  12.470  20.914  0.00  0.00    +0.000 A 
ATOM     24  C   UNL     1      -0.734  13.873  19.832  0.00  0.00    +0.000 A 
ATOM     25  C   UNL     1      -0.547  13.490  18.163  0.00  0.00    +0.000 A 
ATOM     26  N   UNL     1      -0.997  11.942  17.507  0.00  0.00    +0.000 NA
ATOM     27  C   UNL     1      -1.590  10.649  18.513  0.00  0.00    +0.000 A 
ATOM     28  C   UNL     1      -1.760  10.806  20.250  0.00  0.00    +0.000 A 
ENDBRANCH   8  23
BRANCH   6  29
ATOM     29  O   UNL     1      -4.198  14.236  24.059  0.00  0.00    +0.000 OA
ATOM     30  C   UNL     1      -3.343  15.138  24.748  0.00  0.00    +0.000 C 
ENDBRANCH   6  29
TORSDOF 5
ENDMDL
MODEL 9
REMARK VINA RESULT:      -5.7      3.253      6.029
REMARK  Name = 
REMARK  8 active torsions:
REMARK  status: ('A' for Active; 'I' for Inactive)
REMARK    1  A    between atoms: C_1  and  O_2
REMARK    2  A    between atoms: O_2  and  C_3
REMARK    3  A    between atoms: C_5  and  O_6
REMARK    4  A    between atoms: O_6  and  C_7
REMARK    5  A    between atoms: C_9  and  N_10
REMARK    6  A    between atoms: C_15  and  O_16
REMARK    7  A    between atoms: O_16  and  C_17
REMARK    8  A    between atoms: C_19  and  C_20
REMARK                            x       y       z     vdW  Elec       q    Type
REMARK                         _______ _______ _______ _____ _____    ______ ____
ROOT
ATOM      1  N   UNL     1      -0.496  11.792  20.243  0.00  0.00    +0.000 N 
ATOM      2  N   UNL     1       0.174  10.980  18.446  0.00  0.00    +0.000 N 
ATOM      3  C   UNL     1       1.192   9.718  18.501  0.00  0.00    +0.000 C 
ATOM      4  C   UNL     1       2.017   9.244  17.555  0.00  0.00    +0.000 C 
ATOM      5  C   UNL     1       2.938   8.185  18.088  0.00  0.00    +0.000 C 
ATOM      6  C   UNL     1       2.138   7.162  18.953  0.00  0.00    +0.000 C 
ATOM      7  O   UNL     1       1.178   7.738  19.871  0.00  0.00    +0.000 OA
ATOM      8  C   UNL     1       1.494   9.103  20.134  0.00  0.00    +0.000 C 
ATOM      9  C   UNL     1       0.617   9.438  21.549  0.00  0.00    +0.000 C 
ATOM     10  C   UNL     1      -0.459  10.860  21.660  0.00  0.00    +0.000 C 
ATOM     11  O   UNL     1      -1.025  11.177  22.707  0.00  0.00    +0.000 OA
ATOM     12  H   UNL     1      -0.173  11.397  17.579  0.00  0.00    +0.000 HD
ENDROOT
BRANCH   1  17
ATOM     13  C   UNL     1       1.109  14.917  21.914  0.00  0.00    +0.000 A 
ATOM     14  C   UNL     1      -0.003  15.778  21.962  0.00  0.00    +0.000 A 
ATOM     15  C   UNL     1      -1.227  15.383  21.456  0.00  0.00    +0.000 A 
ATOM     16  C   UNL     1      -1.300  14.155  20.825  0.00  0.00    +0.000 A 
ATOM     17  C   UNL     1      -0.236  13.207  20.866  0.00  0.00    +0.000 A 
ATOM     18  C   UNL     1       0.995  13.620  21.380  0.00  0.00    +0.000 A 
BRANCH  13  20
ATOM     19  C   UNL     1       3.483  14.924  22.059  0.00  0.00    +0.000 C 
ATOM     20  O   UNL     1       2.238  15.478  22.450  0.00  0.00    +0.000 OA
ENDBRANCH  13  20
BRANCH  15  21
ATOM     21  O   UNL     1      -2.289  16.236  21.585  0.00  0.00    +0.000 OA
ATOM     22  C   UNL     1      -2.781  16.382  22.921  0.00  0.00    +0.000 C 
ENDBRANCH  15  21
ENDBRANCH   1  17
BRANCH   8  23
ATOM     23  C   UNL     1       0.719  10.260  20.048  0.00  0.00    +0.000 A 
ATOM     24  C   UNL     1      -1.075   9.894  19.649  0.00  0.00    +0.000 A 
ATOM     25  C   UNL     1      -1.906  11.133  18.786  0.00  0.00    +0.000 A 
ATOM     26  N   UNL     1      -1.107  12.575  18.229  0.00  0.00    +0.000 NA
ATOM     27  C   UNL     1       0.570  12.897  18.579  0.00  0.00    +0.000 A 
ATOM     28  C   UNL     1       1.563  11.808  19.527  0.00  0.00    +0.000 A 
ENDBRANCH   8  23
BRANCH   6  29
ATOM     29  O   UNL     1       3.087   6.338  19.631  0.00  0.00    +0.000 OA
ATOM     30  C   UNL     1       2.464   5.238  20.280  0.00  0.00    +0.000 C 
ENDBRANCH   6  29
TORSDOF 5
ENDMDL
