MODEL 1
REMARK VINA RESULT:      -7.5      0.000      0.000
REMARK  Name = 
REMARK  5 active torsions:
REMARK  status: ('A' for Active; 'I' for Inactive)
REMARK    1  A    between atoms: C_1  and  O_2
REMARK    2  A    between atoms: O_2  and  C_3
REMARK    3  A    between atoms: C_7  and  C_8
REMARK    4  A    between atoms: C_13  and  C_14
REMARK    5  A    between atoms: C_14  and  C_16
REMARK                            x       y       z     vdW  Elec       q    Type
REMARK                         _______ _______ _______ _____ _____    ______ ____
ROOT
ATOM      1  C   UNL     1       6.842   4.819  13.747  0.00  0.00    +0.000 C 
ATOM      2  O   UNL     1       7.799   5.514  13.405  0.00  0.00    +0.000 OA
ATOM      3  N   UNL     1       6.246   4.935  15.008  0.00  0.00    +0.000 N 
ATOM      4  C   UNL     1       6.572   6.105  15.820  0.00  0.00    +0.000 C 
ATOM      5  C   UNL     1       6.974   5.699  17.235  0.00  0.00    +0.000 C 
ATOM      6  C   UNL     1       5.896   4.842  17.908  0.00  0.00    +0.000 C 
ATOM      7  C   UNL     1       5.582   3.634  17.014  0.00  0.00    +0.000 C 
ATOM      8  C   UNL     1       5.247   4.027  15.579  0.00  0.00    +0.000 C 
ENDROOT
BRANCH   1  13
ATOM      9  C   UNL     1       4.567   2.952  11.345  0.00  0.00    +0.000 A 
ATOM     10  C   UNL     1       5.441   1.966  10.884  0.00  0.00    +0.000 A 
ATOM     11  C   UNL     1       6.765   1.926  11.327  0.00  0.00    +0.000 A 
ATOM     12  C   UNL     1       7.209   2.853  12.270  0.00  0.00    +0.000 A 
ATOM     13  C   UNL     1       6.334   3.834  12.754  0.00  0.00    +0.000 A 
ATOM     14  C   UNL     1       5.037   3.916  12.235  0.00  0.00    +0.000 A 
BRANCH   9  16
ATOM     15  C   UNL     1       2.970   3.763   9.787  0.00  0.00    +0.000 C 
ATOM     16  O   UNL     1       3.289   2.883  10.860  0.00  0.00    +0.000 OA
ENDBRANCH   9  16
ENDBRANCH   1  13
BRANCH   6  17
ATOM     17  C   UNL     1       4.624   5.639  18.218  0.00  0.00    +0.000 C 
ATOM     18  O   UNL     1       4.557   6.856  18.067  0.00  0.00    +0.000 OA
BRANCH  17  19
ATOM     19  C   UNL     1       3.415   4.933  18.726  0.00  0.00    +0.000 A 
ATOM     20  C   UNL     1       2.409   4.602  17.800  0.00  0.00    +0.000 A 
ATOM     21  C   UNL     1       1.267   3.919  18.218  0.00  0.00    +0.000 A 
ATOM     22  C   UNL     1       1.136   3.561  19.557  0.00  0.00    +0.000 A 
ATOM     23  F   UNL     1       0.045   2.901  19.958  0.00  0.00    +0.000 F 
ATOM     24  C   UNL     1       2.127   3.877  20.482  0.00  0.00    +0.000 A 
ATOM     25  C   UNL     1       3.269   4.565  20.068  0.00  0.00    +0.000 A 
ENDBRANCH  17  19
ENDBRANCH   6  17
TORSDOF 4
ENDMDL
MODEL 2
REMARK VINA RESULT:      -7.4      2.504      3.091
REMARK  Name = 
REMARK  5 active torsions:
REMARK  status: ('A' for Active; 'I' for Inactive)
REMARK    1  A    between atoms: C_1  and  O_2
REMARK    2  A    between atoms: O_2  and  C_3
REMARK    3  A    between atoms: C_7  and  C_8
REMARK    4  A    between atoms: C_13  and  C_14
REMARK    5  A    between atoms: C_14  and  C_16
REMARK                            x       y       z     vdW  Elec       q    Type
REMARK                         _______ _______ _______ _____ _____    ______ ____
ROOT
ATOM      1  C   UNL     1       6.511   5.469  15.890  0.00  0.00    +0.000 C 
ATOM      2  O   UNL     1       7.376   6.224  16.340  0.00  0.00    +0.000 OA
ATOM      3  N   UNL     1       5.386   5.095  16.632  0.00  0.00    +0.000 N 
ATOM      4  C   UNL     1       5.079   5.846  17.846  0.00  0.00    +0.000 C 
ATOM      5  C   UNL     1       4.839   4.911  19.028  0.00  0.00    +0.000 C 
ATOM      6  C   UNL     1       3.745   3.880  18.724  0.00  0.00    +0.000 C 
ATOM      7  C   UNL     1       4.107   3.126  17.437  0.00  0.00    +0.000 C 
ATOM      8  C   UNL     1       4.418   4.057  16.268  0.00  0.00    +0.000 C 
ENDROOT
BRANCH   1  13
ATOM      9  C   UNL     1       6.078   3.537  12.648  0.00  0.00    +0.000 A 
ATOM     10  C   UNL     1       7.136   4.059  11.900  0.00  0.00    +0.000 A 
ATOM     11  C   UNL     1       7.963   5.050  12.434  0.00  0.00    +0.000 A 
ATOM     12  C   UNL     1       7.759   5.495  13.740  0.00  0.00    +0.000 A 
ATOM     13  C   UNL     1       6.713   4.964  14.506  0.00  0.00    +0.000 A 
ATOM     14  C   UNL     1       5.839   4.036  13.928  0.00  0.00    +0.000 A 
BRANCH   9  16
ATOM     15  C   UNL     1       4.239   2.990  11.251  0.00  0.00    +0.000 C 
ATOM     16  O   UNL     1       5.347   2.558  12.034  0.00  0.00    +0.000 OA
ENDBRANCH   9  16
ENDBRANCH   1  13
BRANCH   6  17
ATOM     17  C   UNL     1       2.356   4.518  18.612  0.00  0.00    +0.000 C 
ATOM     18  O   UNL     1       1.414   3.952  18.065  0.00  0.00    +0.000 OA
BRANCH  17  19
ATOM     19  C   UNL     1       2.118   5.876  19.178  0.00  0.00    +0.000 A 
ATOM     20  C   UNL     1       2.202   6.976  18.305  0.00  0.00    +0.000 A 
ATOM     21  C   UNL     1       1.965   8.267  18.779  0.00  0.00    +0.000 A 
ATOM     22  C   UNL     1       1.637   8.454  20.118  0.00  0.00    +0.000 A 
ATOM     23  F   UNL     1       1.403   9.690  20.572  0.00  0.00    +0.000 F 
ATOM     24  C   UNL     1       1.545   7.373  20.990  0.00  0.00    +0.000 A 
ATOM     25  C   UNL     1       1.786   6.081  20.522  0.00  0.00    +0.000 A 
ENDBRANCH  17  19
ENDBRANCH   6  17
TORSDOF 4
ENDMDL
MODEL 3
REMARK VINA RESULT:      -7.2      1.033      1.970
REMARK  Name = 
REMARK  5 active torsions:
REMARK  status: ('A' for Active; 'I' for Inactive)
REMARK    1  A    between atoms: C_1  and  O_2
REMARK    2  A    between atoms: O_2  and  C_3
REMARK    3  A    between atoms: C_7  and  C_8
REMARK    4  A    between atoms: C_13  and  C_14
REMARK    5  A    between atoms: C_14  and  C_16
REMARK                            x       y       z     vdW  Elec       q    Type
REMARK                         _______ _______ _______ _____ _____    ______ ____
ROOT
ATOM      1  C   UNL     1       6.667   4.656  13.617  0.00  0.00    +0.000 C 
ATOM      2  O   UNL     1       7.641   5.292  13.213  0.00  0.00    +0.000 OA
ATOM      3  N   UNL     1       6.178   4.786  14.922  0.00  0.00    +0.000 N 
ATOM      4  C   UNL     1       6.644   5.913  15.725  0.00  0.00    +0.000 C 
ATOM      5  C   UNL     1       7.124   5.452  17.098  0.00  0.00    +0.000 C 
ATOM      6  C   UNL     1       6.044   4.656  17.839  0.00  0.00    +0.000 C 
ATOM      7  C   UNL     1       5.580   3.491  16.953  0.00  0.00    +0.000 C 
ATOM      8  C   UNL     1       5.165   3.936  15.554  0.00  0.00    +0.000 C 
ENDROOT
BRANCH   1  13
ATOM      9  C   UNL     1       6.014   1.693  11.331  0.00  0.00    +0.000 A 
ATOM     10  C   UNL     1       4.750   2.026  10.841  0.00  0.00    +0.000 A 
ATOM     11  C   UNL     1       4.104   3.186  11.272  0.00  0.00    +0.000 A 
ATOM     12  C   UNL     1       4.742   4.044  12.168  0.00  0.00    +0.000 A 
ATOM     13  C   UNL     1       6.018   3.729  12.651  0.00  0.00    +0.000 A 
ATOM     14  C   UNL     1       6.616   2.520  12.278  0.00  0.00    +0.000 A 
BRANCH   9  16
ATOM     15  C   UNL     1       6.032  -0.681  11.319  0.00  0.00    +0.000 C 
ATOM     16  O   UNL     1       6.561   0.545  10.825  0.00  0.00    +0.000 OA
ENDBRANCH   9  16
ENDBRANCH   1  13
BRANCH   6  17
ATOM     17  C   UNL     1       4.858   5.531  18.259  0.00  0.00    +0.000 C 
ATOM     18  O   UNL     1       4.906   6.757  18.240  0.00  0.00    +0.000 OA
BRANCH  17  19
ATOM     19  C   UNL     1       3.591   4.890  18.713  0.00  0.00    +0.000 A 
ATOM     20  C   UNL     1       3.508   4.474  20.054  0.00  0.00    +0.000 A 
ATOM     21  C   UNL     1       2.337   3.891  20.537  0.00  0.00    +0.000 A 
ATOM     22  C   UNL     1       1.250   3.732  19.682  0.00  0.00    +0.000 A 
ATOM     23  F   UNL     1       0.124   3.179  20.146  0.00  0.00    +0.000 F 
ATOM     24  C   UNL     1       1.317   4.145  18.355  0.00  0.00    +0.000 A 
ATOM     25  C   UNL     1       2.489   4.724  17.867  0.00  0.00    +0.000 A 
ENDBRANCH  17  19
ENDBRANCH   6  17
TORSDOF 4
ENDMDL
MODEL 4
REMARK VINA RESULT:      -7.1      6.237      8.477
REMARK  Name = 
REMARK  5 active torsions:
REMARK  status: ('A' for Active; 'I' for Inactive)
REMARK    1  A    between atoms: C_1  and  O_2
REMARK    2  A    between atoms: O_2  and  C_3
REMARK    3  A    between atoms: C_7  and  C_8
REMARK    4  A    between atoms: C_13  and  C_14
REMARK    5  A    between atoms: C_14  and  C_16
REMARK                            x       y       z     vdW  Elec       q    Type
REMARK                         _______ _______ _______ _____ _____    ______ ____
ROOT
ATOM      1  C   UNL     1       2.161   6.564  19.936  0.00  0.00    +0.000 C 
ATOM      2  O   UNL     1       1.713   6.149  21.006  0.00  0.00    +0.000 OA
ATOM      3  N   UNL     1       1.919   7.865  19.479  0.00  0.00    +0.000 N 
ATOM      4  C   UNL     1       1.380   8.839  20.424  0.00  0.00    +0.000 C 
ATOM      5  C   UNL     1       0.168   9.561  19.841  0.00  0.00    +0.000 C 
ATOM      6  C   UNL     1       0.492  10.217  18.494  0.00  0.00    +0.000 C 
ATOM      7  C   UNL     1       1.063   9.157  17.541  0.00  0.00    +0.000 C 
ATOM      8  C   UNL     1       2.231   8.383  18.144  0.00  0.00    +0.000 C 
ENDROOT
BRANCH   1  13
ATOM      9  C   UNL     1       5.093   4.539  18.622  0.00  0.00    +0.000 A 
ATOM     10  C   UNL     1       4.466   3.817  17.605  0.00  0.00    +0.000 A 
ATOM     11  C   UNL     1       3.097   3.965  17.368  0.00  0.00    +0.000 A 
ATOM     12  C   UNL     1       2.356   4.872  18.125  0.00  0.00    +0.000 A 
ATOM     13  C   UNL     1       2.980   5.616  19.135  0.00  0.00    +0.000 A 
ATOM     14  C   UNL     1       4.333   5.393  19.419  0.00  0.00    +0.000 A 
BRANCH   9  16
ATOM     15  C   UNL     1       7.276   4.988  17.805  0.00  0.00    +0.000 C 
ATOM     16  O   UNL     1       6.439   4.330  18.750  0.00  0.00    +0.000 OA
ENDBRANCH   9  16
ENDBRANCH   1  13
BRANCH   6  17
ATOM     17  C   UNL     1       1.455  11.401  18.637  0.00  0.00    +0.000 C 
ATOM     18  O   UNL     1       2.565  11.413  18.113  0.00  0.00    +0.000 OA
BRANCH  17  19
ATOM     19  C   UNL     1       1.050  12.590  19.438  0.00  0.00    +0.000 A 
ATOM     20  C   UNL     1       1.871  12.968  20.516  0.00  0.00    +0.000 A 
ATOM     21  C   UNL     1       1.551  14.087  21.284  0.00  0.00    +0.000 A 
ATOM     22  C   UNL     1       0.418  14.831  20.968  0.00  0.00    +0.000 A 
ATOM     23  F   UNL     1       0.114  15.909  21.699  0.00  0.00    +0.000 F 
ATOM     24  C   UNL     1      -0.399  14.473  19.901  0.00  0.00    +0.000 A 
ATOM     25  C   UNL     1      -0.085  13.350  19.133  0.00  0.00    +0.000 A 
ENDBRANCH  17  19
ENDBRANCH   6  17
TORSDOF 4
ENDMDL
MODEL 5
REMARK VINA RESULT:      -7.0      6.285      8.488
REMARK  Name = 
REMARK  5 active torsions:
REMARK  status: ('A' for Active; 'I' for Inactive)
REMARK    1  A    between atoms: C_1  and  O_2
REMARK    2  A    between atoms: O_2  and  C_3
REMARK    3  A    between atoms: C_7  and  C_8
REMARK    4  A    between atoms: C_13  and  C_14
REMARK    5  A    between atoms: C_14  and  C_16
REMARK                            x       y       z     vdW  Elec       q    Type
REMARK                         _______ _______ _______ _____ _____    ______ ____
ROOT
ATOM      1  C   UNL     1       2.211   6.594  19.900  0.00  0.00    +0.000 C 
ATOM      2  O   UNL     1       1.780   6.161  20.970  0.00  0.00    +0.000 OA
ATOM      3  N   UNL     1       1.938   7.892  19.455  0.00  0.00    +0.000 N 
ATOM      4  C   UNL     1       1.384   8.847  20.411  0.00  0.00    +0.000 C 
ATOM      5  C   UNL     1       0.153   9.546  19.842  0.00  0.00    +0.000 C 
ATOM      6  C   UNL     1       0.453  10.220  18.497  0.00  0.00    +0.000 C 
ATOM      7  C   UNL     1       1.041   9.180  17.533  0.00  0.00    +0.000 C 
ATOM      8  C   UNL     1       2.230   8.427  18.122  0.00  0.00    +0.000 C 
ENDROOT
BRANCH   1  13
ATOM      9  C   UNL     1       5.187   4.677  18.522  0.00  0.00    +0.000 A 
ATOM     10  C   UNL     1       4.560   3.913  17.535  0.00  0.00    +0.000 A 
ATOM     11  C   UNL     1       3.180   3.998  17.340  0.00  0.00    +0.000 A 
ATOM     12  C   UNL     1       2.424   4.885  18.108  0.00  0.00    +0.000 A 
ATOM     13  C   UNL     1       3.046   5.670  19.087  0.00  0.00    +0.000 A 
ATOM     14  C   UNL     1       4.415   5.510  19.330  0.00  0.00    +0.000 A 
BRANCH   9  16
ATOM     15  C   UNL     1       7.267   5.623  19.163  0.00  0.00    +0.000 C 
ATOM     16  O   UNL     1       6.544   4.529  18.610  0.00  0.00    +0.000 OA
ENDBRANCH   9  16
ENDBRANCH   1  13
BRANCH   6  17
ATOM     17  C   UNL     1       1.391  11.424  18.643  0.00  0.00    +0.000 C 
ATOM     18  O   UNL     1       2.513  11.448  18.145  0.00  0.00    +0.000 OA
BRANCH  17  19
ATOM     19  C   UNL     1       0.946  12.618  19.415  0.00  0.00    +0.000 A 
ATOM     20  C   UNL     1       0.083  13.528  18.780  0.00  0.00    +0.000 A 
ATOM     21  C   UNL     1      -0.383  14.650  19.466  0.00  0.00    +0.000 A 
ATOM     22  C   UNL     1       0.008  14.855  20.786  0.00  0.00    +0.000 A 
ATOM     23  F   UNL     1      -0.443  15.926  21.447  0.00  0.00    +0.000 F 
ATOM     24  C   UNL     1       0.856  13.958  21.428  0.00  0.00    +0.000 A 
ATOM     25  C   UNL     1       1.328  12.837  20.744  0.00  0.00    +0.000 A 
ENDBRANCH  17  19
ENDBRANCH   6  17
TORSDOF 4
ENDMDL
MODEL 6
REMARK VINA RESULT:      -7.0      5.185      9.452
REMARK  Name = 
REMARK  5 active torsions:
REMARK  status: ('A' for Active; 'I' for Inactive)
REMARK    1  A    between atoms: C_1  and  O_2
REMARK    2  A    between atoms: O_2  and  C_3
REMARK    3  A    between atoms: C_7  and  C_8
REMARK    4  A    between atoms: C_13  and  C_14
REMARK    5  A    between atoms: C_14  and  C_16
REMARK                            x       y       z     vdW  Elec       q    Type
REMARK                         _______ _______ _______ _____ _____    ______ ____
ROOT
ATOM      1  C   UNL     1       0.987   9.139  19.252  0.00  0.00    +0.000 C 
ATOM      2  O   UNL     1       0.675   9.753  18.231  0.00  0.00    +0.000 OA
ATOM      3  N   UNL     1       1.797   7.999  19.220  0.00  0.00    +0.000 N 
ATOM      4  C   UNL     1       2.530   7.707  17.991  0.00  0.00    +0.000 C 
ATOM      5  C   UNL     1       2.323   6.259  17.556  0.00  0.00    +0.000 C 
ATOM      6  C   UNL     1       2.696   5.273  18.669  0.00  0.00    +0.000 C 
ATOM      7  C   UNL     1       1.910   5.626  19.939  0.00  0.00    +0.000 C 
ATOM      8  C   UNL     1       2.056   7.091  20.341  0.00  0.00    +0.000 C 
ENDROOT
BRANCH   1  13
ATOM      9  C   UNL     1      -0.082  11.503  22.026  0.00  0.00    +0.000 A 
ATOM     10  C   UNL     1      -0.544  10.588  22.975  0.00  0.00    +0.000 A 
ATOM     11  C   UNL     1      -0.535   9.218  22.703  0.00  0.00    +0.000 A 
ATOM     12  C   UNL     1      -0.022   8.754  21.491  0.00  0.00    +0.000 A 
ATOM     13  C   UNL     1       0.461   9.663  20.542  0.00  0.00    +0.000 A 
ATOM     14  C   UNL     1       0.365  11.036  20.791  0.00  0.00    +0.000 A 
BRANCH   9  16
ATOM     15  C   UNL     1      -0.250  13.777  21.363  0.00  0.00    +0.000 C 
ATOM     16  O   UNL     1      -0.119  12.817  22.407  0.00  0.00    +0.000 OA
ENDBRANCH   9  16
ENDBRANCH   1  13
BRANCH   6  17
ATOM     17  C   UNL     1       4.203   5.247  18.946  0.00  0.00    +0.000 C 
ATOM     18  O   UNL     1       4.663   5.284  20.084  0.00  0.00    +0.000 OA
BRANCH  17  19
ATOM     19  C   UNL     1       5.163   5.178  17.809  0.00  0.00    +0.000 A 
ATOM     20  C   UNL     1       5.047   4.098  16.915  0.00  0.00    +0.000 A 
ATOM     21  C   UNL     1       5.905   3.998  15.820  0.00  0.00    +0.000 A 
ATOM     22  C   UNL     1       6.870   4.981  15.615  0.00  0.00    +0.000 A 
ATOM     23  F   UNL     1       7.688   4.890  14.561  0.00  0.00    +0.000 F 
ATOM     24  C   UNL     1       6.990   6.058  16.488  0.00  0.00    +0.000 A 
ATOM     25  C   UNL     1       6.137   6.158  17.589  0.00  0.00    +0.000 A 
ENDBRANCH  17  19
ENDBRANCH   6  17
TORSDOF 4
ENDMDL
MODEL 7
REMARK VINA RESULT:      -7.0      5.153      9.488
REMARK  Name = 
REMARK  5 active torsions:
REMARK  status: ('A' for Active; 'I' for Inactive)
REMARK    1  A    between atoms: C_1  and  O_2
REMARK    2  A    between atoms: O_2  and  C_3
REMARK    3  A    between atoms: C_7  and  C_8
REMARK    4  A    between atoms: C_13  and  C_14
REMARK    5  A    between atoms: C_14  and  C_16
REMARK                            x       y       z     vdW  Elec       q    Type
REMARK                         _______ _______ _______ _____ _____    ______ ____
ROOT
ATOM      1  C   UNL     1       0.985   8.999  19.153  0.00  0.00    +0.000 C 
ATOM      2  O   UNL     1       0.641   9.559  18.111  0.00  0.00    +0.000 OA
ATOM      3  N   UNL     1       1.802   7.864  19.156  0.00  0.00    +0.000 N 
ATOM      4  C   UNL     1       2.504   7.515  17.924  0.00  0.00    +0.000 C 
ATOM      5  C   UNL     1       2.296   6.045  17.569  0.00  0.00    +0.000 C 
ATOM      6  C   UNL     1       2.706   5.119  18.720  0.00  0.00    +0.000 C 
ATOM      7  C   UNL     1       1.952   5.532  19.992  0.00  0.00    +0.000 C 
ATOM      8  C   UNL     1       2.097   7.016  20.315  0.00  0.00    +0.000 C 
ENDROOT
BRANCH   1  13
ATOM      9  C   UNL     1      -0.010  11.495  21.838  0.00  0.00    +0.000 A 
ATOM     10  C   UNL     1      -0.457  10.627  22.837  0.00  0.00    +0.000 A 
ATOM     11  C   UNL     1      -0.462   9.246  22.628  0.00  0.00    +0.000 A 
ATOM     12  C   UNL     1       0.021   8.724  21.428  0.00  0.00    +0.000 A 
ATOM     13  C   UNL     1       0.490   9.585  20.428  0.00  0.00    +0.000 A 
ATOM     14  C   UNL     1       0.407  10.969  20.617  0.00  0.00    +0.000 A 
BRANCH   9  16
ATOM     15  C   UNL     1      -1.038  13.241  23.076  0.00  0.00    +0.000 C 
ATOM     16  O   UNL     1      -0.030  12.825  22.160  0.00  0.00    +0.000 OA
ENDBRANCH   9  16
ENDBRANCH   1  13
BRANCH   6  17
ATOM     17  C   UNL     1       4.220   5.117  18.957  0.00  0.00    +0.000 C 
ATOM     18  O   UNL     1       4.710   5.177  20.081  0.00  0.00    +0.000 OA
BRANCH  17  19
ATOM     19  C   UNL     1       5.150   5.042  17.795  0.00  0.00    +0.000 A 
ATOM     20  C   UNL     1       6.178   5.999  17.713  0.00  0.00    +0.000 A 
ATOM     21  C   UNL     1       7.091   5.960  16.659  0.00  0.00    +0.000 A 
ATOM     22  C   UNL     1       6.980   4.961  15.696  0.00  0.00    +0.000 A 
ATOM     23  F   UNL     1       7.859   4.918  14.688  0.00  0.00    +0.000 F 
ATOM     24  C   UNL     1       5.972   4.005  15.769  0.00  0.00    +0.000 A 
ATOM     25  C   UNL     1       5.053   4.044  16.820  0.00  0.00    +0.000 A 
ENDBRANCH  17  19
ENDBRANCH   6  17
TORSDOF 4
ENDMDL
MODEL 8
REMARK VINA RESULT:      -6.8      4.163      8.428
REMARK  Name = 
REMARK  5 active torsions:
REMARK  status: ('A' for Active; 'I' for Inactive)
REMARK    1  A    between atoms: C_1  and  O_2
REMARK    2  A    between atoms: O_2  and  C_3
REMARK    3  A    between atoms: C_7  and  C_8
REMARK    4  A    between atoms: C_13  and  C_14
REMARK    5  A    between atoms: C_14  and  C_16
REMARK                            x       y       z     vdW  Elec       q    Type
REMARK                         _______ _______ _______ _____ _____    ______ ____
ROOT
ATOM      1  C   UNL     1       2.492   6.396  19.894  0.00  0.00    +0.000 C 
ATOM      2  O   UNL     1       2.238   5.860  20.974  0.00  0.00    +0.000 OA
ATOM      3  N   UNL     1       3.331   5.803  18.944  0.00  0.00    +0.000 N 
ATOM      4  C   UNL     1       3.672   4.393  19.109  0.00  0.00    +0.000 C 
ATOM      5  C   UNL     1       5.178   4.173  19.001  0.00  0.00    +0.000 C 
ATOM      6  C   UNL     1       5.740   4.727  17.686  0.00  0.00    +0.000 C 
ATOM      7  C   UNL     1       5.348   6.206  17.555  0.00  0.00    +0.000 C 
ATOM      8  C   UNL     1       3.851   6.443  17.732  0.00  0.00    +0.000 C 
ENDROOT
BRANCH   1  13
ATOM      9  C   UNL     1       0.634   9.674  20.379  0.00  0.00    +0.000 A 
ATOM     10  C   UNL     1       0.707  10.199  19.087  0.00  0.00    +0.000 A 
ATOM     11  C   UNL     1       1.379   9.509  18.076  0.00  0.00    +0.000 A 
ATOM     12  C   UNL     1       1.948   8.264  18.346  0.00  0.00    +0.000 A 
ATOM     13  C   UNL     1       1.863   7.719  19.633  0.00  0.00    +0.000 A 
ATOM     14  C   UNL     1       1.263   8.461  20.657  0.00  0.00    +0.000 A 
BRANCH   9  16
ATOM     15  C   UNL     1      -0.392   9.793  22.517  0.00  0.00    +0.000 C 
ATOM     16  O   UNL     1      -0.066  10.425  21.283  0.00  0.00    +0.000 OA
ENDBRANCH   9  16
ENDBRANCH   1  13
BRANCH   6  17
ATOM     17  C   UNL     1       5.273   3.926  16.466  0.00  0.00    +0.000 C 
ATOM     18  O   UNL     1       4.367   3.099  16.530  0.00  0.00    +0.000 OA
BRANCH  17  19
ATOM     19  C   UNL     1       5.929   4.140  15.146  0.00  0.00    +0.000 A 
ATOM     20  C   UNL     1       5.349   3.534  14.017  0.00  0.00    +0.000 A 
ATOM     21  C   UNL     1       5.910   3.721  12.753  0.00  0.00    +0.000 A 
ATOM     22  C   UNL     1       7.042   4.519  12.620  0.00  0.00    +0.000 A 
ATOM     23  F   UNL     1       7.576   4.706  11.408  0.00  0.00    +0.000 F 
ATOM     24  C   UNL     1       7.622   5.130  13.728  0.00  0.00    +0.000 A 
ATOM     25  C   UNL     1       7.067   4.941  14.995  0.00  0.00    +0.000 A 
ENDBRANCH  17  19
ENDBRANCH   6  17
TORSDOF 4
ENDMDL
MODEL 9
REMARK VINA RESULT:      -6.8      6.187      8.619
REMARK  Name = 
REMARK  5 active torsions:
REMARK  status: ('A' for Active; 'I' for Inactive)
REMARK    1  A    between atoms: C_1  and  O_2
REMARK    2  A    between atoms: O_2  and  C_3
REMARK    3  A    between atoms: C_7  and  C_8
REMARK    4  A    between atoms: C_13  and  C_14
REMARK    5  A    between atoms: C_14  and  C_16
REMARK                            x       y       z     vdW  Elec       q    Type
REMARK                         _______ _______ _______ _____ _____    ______ ____
ROOT
ATOM      1  C   UNL     1       2.004   6.174  20.184  0.00  0.00    +0.000 C 
ATOM      2  O   UNL     1       1.463   5.400  20.975  0.00  0.00    +0.000 OA
ATOM      3  N   UNL     1       1.709   7.541  20.157  0.00  0.00    +0.000 N 
ATOM      4  C   UNL     1       0.971   8.111  21.281  0.00  0.00    +0.000 C 
ATOM      5  C   UNL     1      -0.216   8.940  20.799  0.00  0.00    +0.000 C 
ATOM      6  C   UNL     1       0.217  10.031  19.813  0.00  0.00    +0.000 C 
ATOM      7  C   UNL     1       0.995   9.386  18.657  0.00  0.00    +0.000 C 
ATOM      8  C   UNL     1       2.141   8.498  19.134  0.00  0.00    +0.000 C 
ENDROOT
BRANCH   1  13
ATOM      9  C   UNL     1       5.258   4.891  18.702  0.00  0.00    +0.000 A 
ATOM     10  C   UNL     1       4.818   4.483  17.442  0.00  0.00    +0.000 A 
ATOM     11  C   UNL     1       3.472   4.596  17.088  0.00  0.00    +0.000 A 
ATOM     12  C   UNL     1       2.564   5.161  17.984  0.00  0.00    +0.000 A 
ATOM     13  C   UNL     1       2.999   5.591  19.244  0.00  0.00    +0.000 A 
ATOM     14  C   UNL     1       4.332   5.391  19.617  0.00  0.00    +0.000 A 
BRANCH   9  16
ATOM     15  C   UNL     1       7.448   4.803  17.790  0.00  0.00    +0.000 C 
ATOM     16  O   UNL     1       6.600   4.753  18.933  0.00  0.00    +0.000 OA
ENDBRANCH   9  16
ENDBRANCH   1  13
BRANCH   6  17
ATOM     17  C   UNL     1       1.046  11.131  20.484  0.00  0.00    +0.000 C 
ATOM     18  O   UNL     1       1.549  10.990  21.596  0.00  0.00    +0.000 OA
BRANCH  17  19
ATOM     19  C   UNL     1       1.260  12.428  19.782  0.00  0.00    +0.000 A 
ATOM     20  C   UNL     1       0.421  13.505  20.120  0.00  0.00    +0.000 A 
ATOM     21  C   UNL     1       0.594  14.748  19.510  0.00  0.00    +0.000 A 
ATOM     22  C   UNL     1       1.609  14.913  18.572  0.00  0.00    +0.000 A 
ATOM     23  F   UNL     1       1.780  16.106  17.992  0.00  0.00    +0.000 F 
ATOM     24  C   UNL     1       2.450  13.858  18.235  0.00  0.00    +0.000 A 
ATOM     25  C   UNL     1       2.277  12.611  18.838  0.00  0.00    +0.000 A 
ENDBRANCH  17  19
ENDBRANCH   6  17
TORSDOF 4
ENDMDL
