MODEL 1
REMARK VINA RESULT:      -9.5      0.000      0.000
REMARK  Name = 
REMARK  3 active torsions:
REMARK  status: ('A' for Active; 'I' for Inactive)
REMARK    1  A    between atoms: C_2  and  C_12
REMARK    2  A    between atoms: N_3  and  C_4
REMARK    3  A    between atoms: C_15  and  C_16
REMARK                            x       y       z     vdW  Elec       q    Type
REMARK                         _______ _______ _______ _____ _____    ______ ____
ROOT
ATOM      1  C   UNL     1       6.235   4.506  18.933  0.00  0.00    +0.000 C 
ATOM      2  C   UNL     1       5.259   5.691  18.972  0.00  0.00    +0.000 C 
ATOM      3  C   UNL     1       3.977   5.003  19.239  0.00  0.00    +0.000 A 
ATOM      4  C   UNL     1       2.666   5.479  19.333  0.00  0.00    +0.000 A 
ATOM      5  C   UNL     1       1.696   4.495  19.611  0.00  0.00    +0.000 A 
ATOM      6  C   UNL     1       2.061   3.154  19.750  0.00  0.00    +0.000 A 
ATOM      7  N   UNL     1       3.323   2.701  19.636  0.00  0.00    +0.000 NA
ATOM      8  C   UNL     1       4.228   3.652  19.388  0.00  0.00    +0.000 A 
ATOM      9  O   UNL     1       5.548   3.285  19.236  0.00  0.00    +0.000 OA
ENDROOT
BRANCH   4  10
ATOM     10  C   UNL     1       2.269   6.900  19.131  0.00  0.00    +0.000 A 
ATOM     11  C   UNL     1       2.400   7.523  17.869  0.00  0.00    +0.000 A 
ATOM     12  C   UNL     1       2.024   8.858  17.653  0.00  0.00    +0.000 A 
ATOM     13  C   UNL     1       1.529   9.618  18.705  0.00  0.00    +0.000 A 
ATOM     14  C   UNL     1       1.400   9.029  19.952  0.00  0.00    +0.000 A 
ATOM     15  F   UNL     1       0.932   9.754  20.976  0.00  0.00    +0.000 F 
ATOM     16  C   UNL     1       1.743   7.694  20.162  0.00  0.00    +0.000 A 
ENDBRANCH   4  10
BRANCH   1  18
ATOM     17  O   UNL     1       8.172   4.251  17.529  0.00  0.00    +0.000 OA
ATOM     18  C   UNL     1       6.961   4.444  17.584  0.00  0.00    +0.000 C 
ATOM     19  N   UNL     1       6.109   4.573  16.498  0.00  0.00    +0.000 N 
ATOM     20  H   UNL     1       5.154   4.847  16.724  0.00  0.00    +0.000 HD
BRANCH  19  21
ATOM     21  C   UNL     1       6.483   4.555  15.139  0.00  0.00    +0.000 A 
ATOM     22  C   UNL     1       7.528   5.328  14.621  0.00  0.00    +0.000 A 
ATOM     23  C   UNL     1       7.813   5.318  13.254  0.00  0.00    +0.000 A 
ATOM     24  C   UNL     1       7.056   4.530  12.398  0.00  0.00    +0.000 A 
ATOM     25  F   UNL     1       7.328   4.556  11.087  0.00  0.00    +0.000 F 
ATOM     26  C   UNL     1       6.033   3.729  12.903  0.00  0.00    +0.000 A 
ATOM     27 CL   UNL     1       5.087   2.754  11.846  0.00  0.00    +0.000 Cl
ATOM     28  C   UNL     1       5.750   3.733  14.272  0.00  0.00    +0.000 A 
ENDBRANCH  19  21
ENDBRANCH   1  18
TORSDOF 3
ENDMDL
MODEL 2
REMARK VINA RESULT:      -9.2      1.036      1.392
REMARK  Name = 
REMARK  3 active torsions:
REMARK  status: ('A' for Active; 'I' for Inactive)
REMARK    1  A    between atoms: C_2  and  C_12
REMARK    2  A    between atoms: N_3  and  C_4
REMARK    3  A    between atoms: C_15  and  C_16
REMARK                            x       y       z     vdW  Elec       q    Type
REMARK                         _______ _______ _______ _____ _____    ______ ____
ROOT
ATOM      1  C   UNL     1       6.143   4.680  19.043  0.00  0.00    +0.000 C 
ATOM      2  C   UNL     1       5.155   5.855  19.074  0.00  0.00    +0.000 C 
ATOM      3  C   UNL     1       3.902   5.172  19.467  0.00  0.00    +0.000 A 
ATOM      4  C   UNL     1       2.594   5.639  19.617  0.00  0.00    +0.000 A 
ATOM      5  C   UNL     1       1.658   4.664  20.018  0.00  0.00    +0.000 A 
ATOM      6  C   UNL     1       2.051   3.338  20.215  0.00  0.00    +0.000 A 
ATOM      7  N   UNL     1       3.309   2.893  20.046  0.00  0.00    +0.000 NA
ATOM      8  C   UNL     1       4.182   3.835  19.681  0.00  0.00    +0.000 A 
ATOM      9  O   UNL     1       5.495   3.473  19.465  0.00  0.00    +0.000 OA
ENDROOT
BRANCH   4  10
ATOM     10  C   UNL     1       2.164   7.041  19.356  0.00  0.00    +0.000 A 
ATOM     11  C   UNL     1       2.304   7.621  18.074  0.00  0.00    +0.000 A 
ATOM     12  C   UNL     1       1.897   8.936  17.802  0.00  0.00    +0.000 A 
ATOM     13  C   UNL     1       1.363   9.721  18.815  0.00  0.00    +0.000 A 
ATOM     14  C   UNL     1       1.225   9.175  20.081  0.00  0.00    +0.000 A 
ATOM     15  F   UNL     1       0.718   9.924  21.069  0.00  0.00    +0.000 F 
ATOM     16  C   UNL     1       1.598   7.858  20.347  0.00  0.00    +0.000 A 
ENDBRANCH   4  10
BRANCH   1  18
ATOM     17  O   UNL     1       7.990   4.378  17.533  0.00  0.00    +0.000 OA
ATOM     18  C   UNL     1       6.780   4.542  17.656  0.00  0.00    +0.000 C 
ATOM     19  N   UNL     1       5.855   4.571  16.624  0.00  0.00    +0.000 N 
ATOM     20  H   UNL     1       4.909   4.834  16.894  0.00  0.00    +0.000 HD
BRANCH  19  21
ATOM     21  C   UNL     1       6.139   4.466  15.247  0.00  0.00    +0.000 A 
ATOM     22  C   UNL     1       5.424   3.634  14.378  0.00  0.00    +0.000 A 
ATOM     23  C   UNL     1       5.791   3.522  13.035  0.00  0.00    +0.000 A 
ATOM     24  C   UNL     1       6.873   4.247  12.553  0.00  0.00    +0.000 A 
ATOM     25  F   UNL     1       7.224   4.104  11.269  0.00  0.00    +0.000 F 
ATOM     26  C   UNL     1       7.574   5.105  13.399  0.00  0.00    +0.000 A 
ATOM     27 CL   UNL     1       8.920   6.002  12.809  0.00  0.00    +0.000 Cl
ATOM     28  C   UNL     1       7.205   5.223  14.742  0.00  0.00    +0.000 A 
ENDBRANCH  19  21
ENDBRANCH   1  18
TORSDOF 3
ENDMDL
MODEL 3
REMARK VINA RESULT:      -9.2      0.846      1.253
REMARK  Name = 
REMARK  3 active torsions:
REMARK  status: ('A' for Active; 'I' for Inactive)
REMARK    1  A    between atoms: C_2  and  C_12
REMARK    2  A    between atoms: N_3  and  C_4
REMARK    3  A    between atoms: C_15  and  C_16
REMARK                            x       y       z     vdW  Elec       q    Type
REMARK                         _______ _______ _______ _____ _____    ______ ____
ROOT
ATOM      1  C   UNL     1       5.982   4.321  19.069  0.00  0.00    +0.000 C 
ATOM      2  C   UNL     1       5.019   5.501  19.263  0.00  0.00    +0.000 C 
ATOM      3  C   UNL     1       3.721   4.800  19.382  0.00  0.00    +0.000 A 
ATOM      4  C   UNL     1       2.414   5.276  19.510  0.00  0.00    +0.000 A 
ATOM      5  C   UNL     1       1.424   4.276  19.603  0.00  0.00    +0.000 A 
ATOM      6  C   UNL     1       1.771   2.924  19.544  0.00  0.00    +0.000 A 
ATOM      7  N   UNL     1       3.031   2.475  19.398  0.00  0.00    +0.000 NA
ATOM      8  C   UNL     1       3.953   3.438  19.328  0.00  0.00    +0.000 A 
ATOM      9  O   UNL     1       5.273   3.078  19.160  0.00  0.00    +0.000 OA
ENDROOT
BRANCH   4  10
ATOM     10  C   UNL     1       2.039   6.718  19.519  0.00  0.00    +0.000 A 
ATOM     11  C   UNL     1       1.531   7.333  20.685  0.00  0.00    +0.000 A 
ATOM     12  C   UNL     1       1.180   8.691  20.720  0.00  0.00    +0.000 A 
ATOM     13  C   UNL     1       1.302   9.469  19.576  0.00  0.00    +0.000 A 
ATOM     14  C   UNL     1       1.791   8.884  18.420  0.00  0.00    +0.000 A 
ATOM     15  F   UNL     1       1.906   9.621  17.307  0.00  0.00    +0.000 F 
ATOM     16  C   UNL     1       2.171   7.542  18.390  0.00  0.00    +0.000 A 
ENDBRANCH   4  10
BRANCH   1  18
ATOM     17  O   UNL     1       7.961   4.656  17.743  0.00  0.00    +0.000 OA
ATOM     18  C   UNL     1       6.750   4.456  17.749  0.00  0.00    +0.000 C 
ATOM     19  N   UNL     1       5.950   4.280  16.631  0.00  0.00    +0.000 N 
ATOM     20  H   UNL     1       4.948   4.243  16.814  0.00  0.00    +0.000 HD
BRANCH  19  21
ATOM     21  C   UNL     1       6.370   4.346  15.288  0.00  0.00    +0.000 A 
ATOM     22  C   UNL     1       7.430   5.150  14.853  0.00  0.00    +0.000 A 
ATOM     23  C   UNL     1       7.761   5.224  13.499  0.00  0.00    +0.000 A 
ATOM     24  C   UNL     1       7.037   4.488  12.571  0.00  0.00    +0.000 A 
ATOM     25  F   UNL     1       7.353   4.595  11.274  0.00  0.00    +0.000 F 
ATOM     26  C   UNL     1       6.000   3.657  12.991  0.00  0.00    +0.000 A 
ATOM     27 CL   UNL     1       5.094   2.746  11.845  0.00  0.00    +0.000 Cl
ATOM     28  C   UNL     1       5.671   3.577  14.347  0.00  0.00    +0.000 A 
ENDBRANCH  19  21
ENDBRANCH   1  18
TORSDOF 3
ENDMDL
MODEL 4
REMARK VINA RESULT:      -9.1      5.344      6.830
REMARK  Name = 
REMARK  3 active torsions:
REMARK  status: ('A' for Active; 'I' for Inactive)
REMARK    1  A    between atoms: C_2  and  C_12
REMARK    2  A    between atoms: N_3  and  C_4
REMARK    3  A    between atoms: C_15  and  C_16
REMARK                            x       y       z     vdW  Elec       q    Type
REMARK                         _______ _______ _______ _____ _____    ______ ____
ROOT
ATOM      1  C   UNL     1       7.853   6.409  18.186  0.00  0.00    +0.000 C 
ATOM      2  C   UNL     1       6.584   5.961  18.925  0.00  0.00    +0.000 C 
ATOM      3  C   UNL     1       5.964   5.066  17.923  0.00  0.00    +0.000 A 
ATOM      4  C   UNL     1       4.752   4.371  17.918  0.00  0.00    +0.000 A 
ATOM      5  C   UNL     1       4.513   3.603  16.760  0.00  0.00    +0.000 A 
ATOM      6  C   UNL     1       5.437   3.589  15.711  0.00  0.00    +0.000 A 
ATOM      7  N   UNL     1       6.591   4.281  15.715  0.00  0.00    +0.000 NA
ATOM      8  C   UNL     1       6.805   4.988  16.828  0.00  0.00    +0.000 A 
ATOM      9  O   UNL     1       7.953   5.745  16.920  0.00  0.00    +0.000 OA
ENDROOT
BRANCH   4  10
ATOM     10  C   UNL     1       3.743   4.427  19.012  0.00  0.00    +0.000 A 
ATOM     11  C   UNL     1       2.959   5.584  19.222  0.00  0.00    +0.000 A 
ATOM     12  C   UNL     1       1.995   5.657  20.240  0.00  0.00    +0.000 A 
ATOM     13  C   UNL     1       1.808   4.580  21.098  0.00  0.00    +0.000 A 
ATOM     14  C   UNL     1       2.573   3.440  20.914  0.00  0.00    +0.000 A 
ATOM     15  F   UNL     1       2.408   2.397  21.738  0.00  0.00    +0.000 F 
ATOM     16  C   UNL     1       3.508   3.352  19.883  0.00  0.00    +0.000 A 
ENDBRANCH   4  10
BRANCH   1  18
ATOM     17  O   UNL     1       7.130   8.515  17.276  0.00  0.00    +0.000 OA
ATOM     18  C   UNL     1       7.890   7.936  18.046  0.00  0.00    +0.000 C 
ATOM     19  N   UNL     1       8.806   8.540  18.891  0.00  0.00    +0.000 N 
ATOM     20  H   UNL     1       9.439   7.904  19.375  0.00  0.00    +0.000 HD
BRANCH  19  21
ATOM     21  C   UNL     1       9.065   9.922  18.989  0.00  0.00    +0.000 A 
ATOM     22  C   UNL     1       9.276  10.743  17.874  0.00  0.00    +0.000 A 
ATOM     23  C   UNL     1       9.591  12.094  18.034  0.00  0.00    +0.000 A 
ATOM     24  C   UNL     1       9.693  12.633  19.309  0.00  0.00    +0.000 A 
ATOM     25  F   UNL     1      10.024  13.924  19.439  0.00  0.00    +0.000 F 
ATOM     26  C   UNL     1       9.453  11.836  20.427  0.00  0.00    +0.000 A 
ATOM     27 CL   UNL     1       9.583  12.497  22.012  0.00  0.00    +0.000 Cl
ATOM     28  C   UNL     1       9.131  10.485  20.270  0.00  0.00    +0.000 A 
ENDBRANCH  19  21
ENDBRANCH   1  18
TORSDOF 3
ENDMDL
MODEL 5
REMARK VINA RESULT:      -9.0      1.320      1.858
REMARK  Name = 
REMARK  3 active torsions:
REMARK  status: ('A' for Active; 'I' for Inactive)
REMARK    1  A    between atoms: C_2  and  C_12
REMARK    2  A    between atoms: N_3  and  C_4
REMARK    3  A    between atoms: C_15  and  C_16
REMARK                            x       y       z     vdW  Elec       q    Type
REMARK                         _______ _______ _______ _____ _____    ______ ____
ROOT
ATOM      1  C   UNL     1       6.021   4.483  19.080  0.00  0.00    +0.000 C 
ATOM      2  C   UNL     1       5.045   5.655  19.247  0.00  0.00    +0.000 C 
ATOM      3  C   UNL     1       3.781   4.943  19.535  0.00  0.00    +0.000 A 
ATOM      4  C   UNL     1       2.475   5.403  19.728  0.00  0.00    +0.000 A 
ATOM      5  C   UNL     1       1.524   4.396  19.991  0.00  0.00    +0.000 A 
ATOM      6  C   UNL     1       1.901   3.051  20.024  0.00  0.00    +0.000 A 
ATOM      7  N   UNL     1       3.157   2.616  19.815  0.00  0.00    +0.000 NA
ATOM      8  C   UNL     1       4.044   3.587  19.583  0.00  0.00    +0.000 A 
ATOM      9  O   UNL     1       5.356   3.240  19.339  0.00  0.00    +0.000 OA
ENDROOT
BRANCH   4  10
ATOM     10  C   UNL     1       2.063   6.831  19.640  0.00  0.00    +0.000 A 
ATOM     11  C   UNL     1       1.520   7.505  20.757  0.00  0.00    +0.000 A 
ATOM     12  C   UNL     1       1.134   8.853  20.700  0.00  0.00    +0.000 A 
ATOM     13  C   UNL     1       1.255   9.561  19.511  0.00  0.00    +0.000 A 
ATOM     14  C   UNL     1       1.778   8.917  18.402  0.00  0.00    +0.000 A 
ATOM     15  F   UNL     1       1.893   9.585  17.247  0.00  0.00    +0.000 F 
ATOM     16  C   UNL     1       2.193   7.586  18.463  0.00  0.00    +0.000 A 
ENDBRANCH   4  10
BRANCH   1  18
ATOM     17  O   UNL     1       7.893   4.619  17.575  0.00  0.00    +0.000 OA
ATOM     18  C   UNL     1       6.676   4.512  17.694  0.00  0.00    +0.000 C 
ATOM     19  N   UNL     1       5.769   4.358  16.658  0.00  0.00    +0.000 N 
ATOM     20  H   UNL     1       4.787   4.404  16.928  0.00  0.00    +0.000 HD
BRANCH  19  21
ATOM     21  C   UNL     1       6.071   4.344  15.281  0.00  0.00    +0.000 A 
ATOM     22  C   UNL     1       5.352   3.591  14.346  0.00  0.00    +0.000 A 
ATOM     23  C   UNL     1       5.737   3.565  13.004  0.00  0.00    +0.000 A 
ATOM     24  C   UNL     1       6.841   4.297  12.589  0.00  0.00    +0.000 A 
ATOM     25  F   UNL     1       7.208   4.236  11.303  0.00  0.00    +0.000 F 
ATOM     26  C   UNL     1       7.547   5.078  13.502  0.00  0.00    +0.000 A 
ATOM     27 CL   UNL     1       8.920   5.984  12.994  0.00  0.00    +0.000 Cl
ATOM     28  C   UNL     1       7.160   5.111  14.845  0.00  0.00    +0.000 A 
ENDBRANCH  19  21
ENDBRANCH   1  18
TORSDOF 3
ENDMDL
MODEL 6
REMARK VINA RESULT:      -8.9      3.093      7.836
REMARK  Name = 
REMARK  3 active torsions:
REMARK  status: ('A' for Active; 'I' for Inactive)
REMARK    1  A    between atoms: C_2  and  C_12
REMARK    2  A    between atoms: N_3  and  C_4
REMARK    3  A    between atoms: C_15  and  C_16
REMARK                            x       y       z     vdW  Elec       q    Type
REMARK                         _______ _______ _______ _____ _____    ______ ____
ROOT
ATOM      1  C   UNL     1       3.470   4.247  18.120  0.00  0.00    +0.000 C 
ATOM      2  C   UNL     1       4.147   4.150  16.746  0.00  0.00    +0.000 C 
ATOM      3  C   UNL     1       5.566   4.367  17.104  0.00  0.00    +0.000 A 
ATOM      4  C   UNL     1       6.720   4.470  16.323  0.00  0.00    +0.000 A 
ATOM      5  C   UNL     1       7.911   4.678  17.047  0.00  0.00    +0.000 A 
ATOM      6  C   UNL     1       7.888   4.789  18.439  0.00  0.00    +0.000 A 
ATOM      7  N   UNL     1       6.769   4.710  19.183  0.00  0.00    +0.000 NA
ATOM      8  C   UNL     1       5.654   4.499  18.478  0.00  0.00    +0.000 A 
ATOM      9  O   UNL     1       4.453   4.422  19.149  0.00  0.00    +0.000 OA
ENDROOT
BRANCH   4  10
ATOM     10  C   UNL     1       6.738   4.406  14.835  0.00  0.00    +0.000 A 
ATOM     11  C   UNL     1       7.625   5.207  14.080  0.00  0.00    +0.000 A 
ATOM     12  C   UNL     1       7.666   5.156  12.678  0.00  0.00    +0.000 A 
ATOM     13  C   UNL     1       6.799   4.319  11.988  0.00  0.00    +0.000 A 
ATOM     14  C   UNL     1       5.917   3.531  12.708  0.00  0.00    +0.000 A 
ATOM     15  F   UNL     1       5.069   2.725  12.055  0.00  0.00    +0.000 F 
ATOM     16  C   UNL     1       5.895   3.555  14.103  0.00  0.00    +0.000 A 
ENDBRANCH   4  10
BRANCH   1  18
ATOM     17  O   UNL     1       1.299   5.175  17.656  0.00  0.00    +0.000 OA
ATOM     18  C   UNL     1       2.417   5.362  18.129  0.00  0.00    +0.000 C 
ATOM     19  N   UNL     1       2.852   6.520  18.753  0.00  0.00    +0.000 N 
ATOM     20  H   UNL     1       3.844   6.545  18.982  0.00  0.00    +0.000 HD
BRANCH  19  21
ATOM     21  C   UNL     1       2.110   7.707  18.916  0.00  0.00    +0.000 A 
ATOM     22  C   UNL     1       1.885   8.620  17.879  0.00  0.00    +0.000 A 
ATOM     23  C   UNL     1       1.197   9.811  18.114  0.00  0.00    +0.000 A 
ATOM     24  C   UNL     1       0.725  10.095  19.388  0.00  0.00    +0.000 A 
ATOM     25  F   UNL     1       0.092  11.257  19.597  0.00  0.00    +0.000 F 
ATOM     26  C   UNL     1       0.912   9.182  20.424  0.00  0.00    +0.000 A 
ATOM     27 CL   UNL     1       0.334   9.531  22.008  0.00  0.00    +0.000 Cl
ATOM     28  C   UNL     1       1.595   7.985  20.190  0.00  0.00    +0.000 A 
ENDBRANCH  19  21
ENDBRANCH   1  18
TORSDOF 3
ENDMDL
MODEL 7
REMARK VINA RESULT:      -8.9      3.077      7.858
REMARK  Name = 
REMARK  3 active torsions:
REMARK  status: ('A' for Active; 'I' for Inactive)
REMARK    1  A    between atoms: C_2  and  C_12
REMARK    2  A    between atoms: N_3  and  C_4
REMARK    3  A    between atoms: C_15  and  C_16
REMARK                            x       y       z     vdW  Elec       q    Type
REMARK                         _______ _______ _______ _____ _____    ______ ____
ROOT
ATOM      1  C   UNL     1       3.442   4.287  18.234  0.00  0.00    +0.000 C 
ATOM      2  C   UNL     1       4.117   4.179  16.860  0.00  0.00    +0.000 C 
ATOM      3  C   UNL     1       5.536   4.399  17.214  0.00  0.00    +0.000 A 
ATOM      4  C   UNL     1       6.688   4.497  16.430  0.00  0.00    +0.000 A 
ATOM      5  C   UNL     1       7.881   4.709  17.151  0.00  0.00    +0.000 A 
ATOM      6  C   UNL     1       7.860   4.830  18.542  0.00  0.00    +0.000 A 
ATOM      7  N   UNL     1       6.743   4.758  19.288  0.00  0.00    +0.000 NA
ATOM      8  C   UNL     1       5.627   4.541  18.587  0.00  0.00    +0.000 A 
ATOM      9  O   UNL     1       4.426   4.469  19.260  0.00  0.00    +0.000 OA
ENDROOT
BRANCH   4  10
ATOM     10  C   UNL     1       6.704   4.421  14.943  0.00  0.00    +0.000 A 
ATOM     11  C   UNL     1       5.920   3.470  14.251  0.00  0.00    +0.000 A 
ATOM     12  C   UNL     1       5.911   3.386  12.850  0.00  0.00    +0.000 A 
ATOM     13  C   UNL     1       6.712   4.238  12.099  0.00  0.00    +0.000 A 
ATOM     14  C   UNL     1       7.494   5.172  12.758  0.00  0.00    +0.000 A 
ATOM     15  F   UNL     1       8.276   5.994  12.046  0.00  0.00    +0.000 F 
ATOM     16  C   UNL     1       7.480   5.279  14.148  0.00  0.00    +0.000 A 
ENDBRANCH   4  10
BRANCH   1  18
ATOM     17  O   UNL     1       1.271   5.212  17.764  0.00  0.00    +0.000 OA
ATOM     18  C   UNL     1       2.388   5.401  18.237  0.00  0.00    +0.000 C 
ATOM     19  N   UNL     1       2.823   6.562  18.855  0.00  0.00    +0.000 N 
ATOM     20  H   UNL     1       3.816   6.589  19.083  0.00  0.00    +0.000 HD
BRANCH  19  21
ATOM     21  C   UNL     1       2.081   7.751  19.011  0.00  0.00    +0.000 A 
ATOM     22  C   UNL     1       1.863   8.661  17.970  0.00  0.00    +0.000 A 
ATOM     23  C   UNL     1       1.175   9.854  18.199  0.00  0.00    +0.000 A 
ATOM     24  C   UNL     1       0.695  10.141  19.469  0.00  0.00    +0.000 A 
ATOM     25  F   UNL     1       0.062  11.303  19.672  0.00  0.00    +0.000 F 
ATOM     26  C   UNL     1       0.875   9.230  20.508  0.00  0.00    +0.000 A 
ATOM     27 CL   UNL     1       0.288   9.582  22.088  0.00  0.00    +0.000 Cl
ATOM     28  C   UNL     1       1.559   8.032  20.281  0.00  0.00    +0.000 A 
ENDBRANCH  19  21
ENDBRANCH   1  18
TORSDOF 3
ENDMDL
MODEL 8
REMARK VINA RESULT:      -8.9      5.280      6.895
REMARK  Name = 
REMARK  3 active torsions:
REMARK  status: ('A' for Active; 'I' for Inactive)
REMARK    1  A    between atoms: C_2  and  C_12
REMARK    2  A    between atoms: N_3  and  C_4
REMARK    3  A    between atoms: C_15  and  C_16
REMARK                            x       y       z     vdW  Elec       q    Type
REMARK                         _______ _______ _______ _____ _____    ______ ____
ROOT
ATOM      1  C   UNL     1       7.899   6.779  17.908  0.00  0.00    +0.000 C 
ATOM      2  C   UNL     1       6.670   6.248  18.659  0.00  0.00    +0.000 C 
ATOM      3  C   UNL     1       5.953   5.536  17.577  0.00  0.00    +0.000 A 
ATOM      4  C   UNL     1       4.722   4.877  17.553  0.00  0.00    +0.000 A 
ATOM      5  C   UNL     1       4.378   4.307  16.310  0.00  0.00    +0.000 A 
ATOM      6  C   UNL     1       5.226   4.438  15.207  0.00  0.00    +0.000 A 
ATOM      7  N   UNL     1       6.401   5.095  15.235  0.00  0.00    +0.000 NA
ATOM      8  C   UNL     1       6.714   5.613  16.425  0.00  0.00    +0.000 A 
ATOM      9  O   UNL     1       7.890   6.321  16.550  0.00  0.00    +0.000 OA
ENDROOT
BRANCH   4  10
ATOM     10  C   UNL     1       3.793   4.783  18.713  0.00  0.00    +0.000 A 
ATOM     11  C   UNL     1       2.984   5.878  19.092  0.00  0.00    +0.000 A 
ATOM     12  C   UNL     1       2.095   5.810  20.175  0.00  0.00    +0.000 A 
ATOM     13  C   UNL     1       2.009   4.647  20.930  0.00  0.00    +0.000 A 
ATOM     14  C   UNL     1       2.798   3.564  20.580  0.00  0.00    +0.000 A 
ATOM     15  F   UNL     1       2.731   2.440  21.305  0.00  0.00    +0.000 F 
ATOM     16  C   UNL     1       3.659   3.618  19.485  0.00  0.00    +0.000 A 
ENDBRANCH   4  10
BRANCH   1  18
ATOM     17  O   UNL     1       7.215   9.018  17.357  0.00  0.00    +0.000 OA
ATOM     18  C   UNL     1       7.978   8.307  18.004  0.00  0.00    +0.000 C 
ATOM     19  N   UNL     1       8.933   8.749  18.905  0.00  0.00    +0.000 N 
ATOM     20  H   UNL     1       9.559   8.030  19.265  0.00  0.00    +0.000 HD
BRANCH  19  21
ATOM     21  C   UNL     1       9.235  10.092  19.207  0.00  0.00    +0.000 A 
ATOM     22  C   UNL     1       9.070  10.648  20.482  0.00  0.00    +0.000 A 
ATOM     23  C   UNL     1       9.324  12.002  20.708  0.00  0.00    +0.000 A 
ATOM     24  C   UNL     1       9.751  12.808  19.661  0.00  0.00    +0.000 A 
ATOM     25  F   UNL     1       9.963  14.109  19.894  0.00  0.00    +0.000 F 
ATOM     26  C   UNL     1       9.952  12.262  18.394  0.00  0.00    +0.000 A 
ATOM     27 CL   UNL     1      10.475  13.258  17.090  0.00  0.00    +0.000 Cl
ATOM     28  C   UNL     1       9.704  10.906  18.167  0.00  0.00    +0.000 A 
ENDBRANCH  19  21
ENDBRANCH   1  18
TORSDOF 3
ENDMDL
MODEL 9
REMARK VINA RESULT:      -8.9      5.287      6.888
REMARK  Name = 
REMARK  3 active torsions:
REMARK  status: ('A' for Active; 'I' for Inactive)
REMARK    1  A    between atoms: C_2  and  C_12
REMARK    2  A    between atoms: N_3  and  C_4
REMARK    3  A    between atoms: C_15  and  C_16
REMARK                            x       y       z     vdW  Elec       q    Type
REMARK                         _______ _______ _______ _____ _____    ______ ____
ROOT
ATOM      1  C   UNL     1       7.845   6.719  17.866  0.00  0.00    +0.000 C 
ATOM      2  C   UNL     1       6.645   6.170  18.650  0.00  0.00    +0.000 C 
ATOM      3  C   UNL     1       5.930   5.415  17.597  0.00  0.00    +0.000 A 
ATOM      4  C   UNL     1       4.718   4.720  17.609  0.00  0.00    +0.000 A 
ATOM      5  C   UNL     1       4.370   4.114  16.384  0.00  0.00    +0.000 A 
ATOM      6  C   UNL     1       5.194   4.246  15.264  0.00  0.00    +0.000 A 
ATOM      7  N   UNL     1       6.349   4.937  15.256  0.00  0.00    +0.000 NA
ATOM      8  C   UNL     1       6.668   5.489  16.429  0.00  0.00    +0.000 A 
ATOM      9  O   UNL     1       7.825   6.233  16.518  0.00  0.00    +0.000 OA
ENDROOT
BRANCH   4  10
ATOM     10  C   UNL     1       3.813   4.624  18.787  0.00  0.00    +0.000 A 
ATOM     11  C   UNL     1       3.676   3.415  19.506  0.00  0.00    +0.000 A 
ATOM     12  C   UNL     1       2.836   3.304  20.625  0.00  0.00    +0.000 A 
ATOM     13  C   UNL     1       2.086   4.396  21.042  0.00  0.00    +0.000 A 
ATOM     14  C   UNL     1       2.200   5.588  20.346  0.00  0.00    +0.000 A 
ATOM     15  F   UNL     1       1.476   6.647  20.732  0.00  0.00    +0.000 F 
ATOM     16  C   UNL     1       3.058   5.712  19.253  0.00  0.00    +0.000 A 
ENDBRANCH   4  10
BRANCH   1  18
ATOM     17  O   UNL     1       7.049   8.925  17.329  0.00  0.00    +0.000 OA
ATOM     18  C   UNL     1       7.881   8.251  17.929  0.00  0.00    +0.000 C 
ATOM     19  N   UNL     1       8.886   8.741  18.747  0.00  0.00    +0.000 N 
ATOM     20  H   UNL     1       9.561   8.049  19.071  0.00  0.00    +0.000 HD
BRANCH  19  21
ATOM     21  C   UNL     1       9.166  10.099  19.002  0.00  0.00    +0.000 A 
ATOM     22  C   UNL     1       9.572  10.998  18.009  0.00  0.00    +0.000 A 
ATOM     23  C   UNL     1       9.897  12.316  18.331  0.00  0.00    +0.000 A 
ATOM     24  C   UNL     1       9.812  12.746  19.648  0.00  0.00    +0.000 A 
ATOM     25  F   UNL     1      10.155  14.008  19.938  0.00  0.00    +0.000 F 
ATOM     26  C   UNL     1       9.377  11.873  20.643  0.00  0.00    +0.000 A 
ATOM     27 CL   UNL     1       9.275  12.398  22.279  0.00  0.00    +0.000 Cl
ATOM     28  C   UNL     1       9.045  10.553  20.322  0.00  0.00    +0.000 A 
ENDBRANCH  19  21
ENDBRANCH   1  18
TORSDOF 3
ENDMDL
