MODEL 1
REMARK VINA RESULT:      -7.7      0.000      0.000
REMARK  Name = 
REMARK  3 active torsions:
REMARK  status: ('A' for Active; 'I' for Inactive)
REMARK    1  A    between atoms: C_8  and  O_9
REMARK    2  A    between atoms: O_9  and  C_10
REMARK    3  A    between atoms: C_15  and  N_16
REMARK                            x       y       z     vdW  Elec       q    Type
REMARK                         _______ _______ _______ _____ _____    ______ ____
ROOT
ATOM      1  C   UNL     1       3.458   4.794  19.721  0.00  0.00    +0.000 A 
ATOM      2  N   UNL     1       3.634   3.465  19.959  0.00  0.00    +0.000 NA
ATOM      3  C   UNL     1       2.595   2.812  20.509  0.00  0.00    +0.000 A 
ATOM      4  C   UNL     1       1.380   3.408  20.788  0.00  0.00    +0.000 A 
ATOM      5  C   UNL     1       1.207   4.753  20.459  0.00  0.00    +0.000 A 
ATOM      6  C   UNL     1       2.247   5.501  19.893  0.00  0.00    +0.000 A 
ENDROOT
BRANCH   6   7
ATOM      7  N   UNL     1       2.096   6.853  19.612  0.00  0.00    +0.000 N 
ATOM      8  C   UNL     1       2.625   7.474  18.390  0.00  0.00    +0.000 C 
ATOM      9  C   UNL     1       1.647   8.587  17.938  0.00  0.00    +0.000 C 
ATOM     10  N   UNL     1       1.360   9.598  18.979  0.00  0.00    +0.000 NA
ATOM     11  C   UNL     1       0.922   8.925  20.224  0.00  0.00    +0.000 C 
ATOM     12  C   UNL     1       1.896   7.824  20.703  0.00  0.00    +0.000 C 
ATOM     13  H   UNL     1       0.603  10.197  18.652  0.00  0.00    +0.000 HD
ENDBRANCH   6   7
BRANCH   1  14
ATOM     14  O   UNL     1       4.565   5.533  19.308  0.00  0.00    +0.000 OA
BRANCH  14  22
ATOM     15  F   UNL     1       3.283   4.539  16.959  0.00  0.00    +0.000 F 
ATOM     16  C   UNL     1       4.619   4.648  17.032  0.00  0.00    +0.000 A 
ATOM     17  C   UNL     1       5.363   4.201  15.940  0.00  0.00    +0.000 A 
ATOM     18  C   UNL     1       6.755   4.202  15.998  0.00  0.00    +0.000 A 
ATOM     19  C   UNL     1       7.395   4.656  17.152  0.00  0.00    +0.000 A 
ATOM     20  C   UNL     1       6.643   5.123  18.237  0.00  0.00    +0.000 A 
ATOM     21 CL   UNL     1       7.493   5.642  19.650  0.00  0.00    +0.000 Cl
ATOM     22  C   UNL     1       5.244   5.142  18.179  0.00  0.00    +0.000 A 
ENDBRANCH  14  22
ENDBRANCH   1  14
TORSDOF 3
ENDMDL
MODEL 2
REMARK VINA RESULT:      -7.6      2.405      5.130
REMARK  Name = 
REMARK  3 active torsions:
REMARK  status: ('A' for Active; 'I' for Inactive)
REMARK    1  A    between atoms: C_8  and  O_9
REMARK    2  A    between atoms: O_9  and  C_10
REMARK    3  A    between atoms: C_15  and  N_16
REMARK                            x       y       z     vdW  Elec       q    Type
REMARK                         _______ _______ _______ _____ _____    ______ ____
ROOT
ATOM      1  C   UNL     1       3.407   6.246  18.733  0.00  0.00    +0.000 A 
ATOM      2  N   UNL     1       2.289   6.752  19.324  0.00  0.00    +0.000 NA
ATOM      3  C   UNL     1       1.903   7.976  18.925  0.00  0.00    +0.000 A 
ATOM      4  C   UNL     1       2.547   8.698  17.939  0.00  0.00    +0.000 A 
ATOM      5  C   UNL     1       3.644   8.117  17.300  0.00  0.00    +0.000 A 
ATOM      6  C   UNL     1       4.111   6.850  17.667  0.00  0.00    +0.000 A 
ENDROOT
BRANCH   6   7
ATOM      7  N   UNL     1       5.233   6.290  17.069  0.00  0.00    +0.000 N 
ATOM      8  C   UNL     1       6.535   6.203  17.745  0.00  0.00    +0.000 C 
ATOM      9  C   UNL     1       7.233   4.893  17.306  0.00  0.00    +0.000 C 
ATOM     10  N   UNL     1       7.373   4.743  15.842  0.00  0.00    +0.000 NA
ATOM     11  C   UNL     1       6.056   4.932  15.191  0.00  0.00    +0.000 C 
ATOM     12  C   UNL     1       5.351   6.246  15.599  0.00  0.00    +0.000 C 
ATOM     13  H   UNL     1       7.701   3.800  15.640  0.00  0.00    +0.000 HD
ENDBRANCH   6   7
BRANCH   1  14
ATOM     14  O   UNL     1       3.928   5.057  19.238  0.00  0.00    +0.000 OA
BRANCH  14  22
ATOM     15  F   UNL     1       3.739   3.631  16.773  0.00  0.00    +0.000 F 
ATOM     16  C   UNL     1       3.109   3.201  17.877  0.00  0.00    +0.000 A 
ATOM     17  C   UNL     1       2.308   2.064  17.763  0.00  0.00    +0.000 A 
ATOM     18  C   UNL     1       1.557   1.629  18.852  0.00  0.00    +0.000 A 
ATOM     19  C   UNL     1       1.615   2.334  20.054  0.00  0.00    +0.000 A 
ATOM     20  C   UNL     1       2.437   3.463  20.169  0.00  0.00    +0.000 A 
ATOM     21 CL   UNL     1       2.442   4.313  21.675  0.00  0.00    +0.000 Cl
ATOM     22  C   UNL     1       3.209   3.896  19.085  0.00  0.00    +0.000 A 
ENDBRANCH  14  22
ENDBRANCH   1  14
TORSDOF 3
ENDMDL
MODEL 3
REMARK VINA RESULT:      -7.6      0.903      1.494
REMARK  Name = 
REMARK  3 active torsions:
REMARK  status: ('A' for Active; 'I' for Inactive)
REMARK    1  A    between atoms: C_8  and  O_9
REMARK    2  A    between atoms: O_9  and  C_10
REMARK    3  A    between atoms: C_15  and  N_16
REMARK                            x       y       z     vdW  Elec       q    Type
REMARK                         _______ _______ _______ _____ _____    ______ ____
ROOT
ATOM      1  C   UNL     1       4.221   4.420  19.467  0.00  0.00    +0.000 A 
ATOM      2  N   UNL     1       4.802   3.203  19.656  0.00  0.00    +0.000 NA
ATOM      3  C   UNL     1       4.140   2.340  20.447  0.00  0.00    +0.000 A 
ATOM      4  C   UNL     1       2.912   2.613  21.018  0.00  0.00    +0.000 A 
ATOM      5  C   UNL     1       2.308   3.841  20.740  0.00  0.00    +0.000 A 
ATOM      6  C   UNL     1       2.941   4.795  19.933  0.00  0.00    +0.000 A 
ENDROOT
BRANCH   6   7
ATOM      7  N   UNL     1       2.366   6.037  19.696  0.00  0.00    +0.000 N 
ATOM      8  C   UNL     1       1.467   6.694  20.655  0.00  0.00    +0.000 C 
ATOM      9  C   UNL     1       1.705   8.222  20.588  0.00  0.00    +0.000 C 
ATOM     10  N   UNL     1       1.563   8.798  19.234  0.00  0.00    +0.000 NA
ATOM     11  C   UNL     1       2.413   8.047  18.280  0.00  0.00    +0.000 C 
ATOM     12  C   UNL     1       2.176   6.520  18.315  0.00  0.00    +0.000 C 
ATOM     13  H   UNL     1       1.880   9.766  19.256  0.00  0.00    +0.000 HD
ENDBRANCH   6   7
BRANCH   1  14
ATOM     14  O   UNL     1       4.954   5.393  18.792  0.00  0.00    +0.000 OA
BRANCH  14  22
ATOM     15  F   UNL     1       3.482   4.121  16.703  0.00  0.00    +0.000 F 
ATOM     16  C   UNL     1       4.769   4.463  16.541  0.00  0.00    +0.000 A 
ATOM     17  C   UNL     1       5.380   4.120  15.334  0.00  0.00    +0.000 A 
ATOM     18  C   UNL     1       6.739   4.365  15.147  0.00  0.00    +0.000 A 
ATOM     19  C   UNL     1       7.479   4.958  16.171  0.00  0.00    +0.000 A 
ATOM     20  C   UNL     1       6.855   5.319  17.372  0.00  0.00    +0.000 A 
ATOM     21 CL   UNL     1       7.832   6.021  18.615  0.00  0.00    +0.000 Cl
ATOM     22  C   UNL     1       5.486   5.093  17.561  0.00  0.00    +0.000 A 
ENDBRANCH  14  22
ENDBRANCH   1  14
TORSDOF 3
ENDMDL
MODEL 4
REMARK VINA RESULT:      -7.5      2.506      5.487
REMARK  Name = 
REMARK  3 active torsions:
REMARK  status: ('A' for Active; 'I' for Inactive)
REMARK    1  A    between atoms: C_8  and  O_9
REMARK    2  A    between atoms: O_9  and  C_10
REMARK    3  A    between atoms: C_15  and  N_16
REMARK                            x       y       z     vdW  Elec       q    Type
REMARK                         _______ _______ _______ _____ _____    ______ ____
ROOT
ATOM      1  C   UNL     1       3.291   6.314  18.711  0.00  0.00    +0.000 A 
ATOM      2  N   UNL     1       2.165   6.895  19.210  0.00  0.00    +0.000 NA
ATOM      3  C   UNL     1       1.884   8.133  18.768  0.00  0.00    +0.000 A 
ATOM      4  C   UNL     1       2.642   8.798  17.823  0.00  0.00    +0.000 A 
ATOM      5  C   UNL     1       3.746   8.142  17.275  0.00  0.00    +0.000 A 
ATOM      6  C   UNL     1       4.107   6.855  17.692  0.00  0.00    +0.000 A 
ENDROOT
BRANCH   6   7
ATOM      7  N   UNL     1       5.234   6.220  17.187  0.00  0.00    +0.000 N 
ATOM      8  C   UNL     1       6.529   6.227  17.880  0.00  0.00    +0.000 C 
ATOM      9  C   UNL     1       7.230   4.869  17.632  0.00  0.00    +0.000 C 
ATOM     10  N   UNL     1       7.384   4.520  16.203  0.00  0.00    +0.000 NA
ATOM     11  C   UNL     1       6.073   4.618  15.520  0.00  0.00    +0.000 C 
ATOM     12  C   UNL     1       5.366   5.976  15.738  0.00  0.00    +0.000 C 
ATOM     13  H   UNL     1       7.713   3.558  16.135  0.00  0.00    +0.000 HD
ENDBRANCH   6   7
BRANCH   1  14
ATOM     14  O   UNL     1       3.701   5.105  19.269  0.00  0.00    +0.000 OA
BRANCH  14  22
ATOM     15  F   UNL     1       2.579   4.689  21.860  0.00  0.00    +0.000 F 
ATOM     16  C   UNL     1       2.214   3.933  20.813  0.00  0.00    +0.000 A 
ATOM     17  C   UNL     1       1.312   2.896  21.048  0.00  0.00    +0.000 A 
ATOM     18  C   UNL     1       0.971   2.021  20.019  0.00  0.00    +0.000 A 
ATOM     19  C   UNL     1       1.536   2.193  18.755  0.00  0.00    +0.000 A 
ATOM     20  C   UNL     1       2.426   3.248  18.519  0.00  0.00    +0.000 A 
ATOM     21 CL   UNL     1       3.117   3.390  16.940  0.00  0.00    +0.000 Cl
ATOM     22  C   UNL     1       2.758   4.143  19.543  0.00  0.00    +0.000 A 
ENDBRANCH  14  22
ENDBRANCH   1  14
TORSDOF 3
ENDMDL
MODEL 5
REMARK VINA RESULT:      -7.4      2.380      5.100
REMARK  Name = 
REMARK  3 active torsions:
REMARK  status: ('A' for Active; 'I' for Inactive)
REMARK    1  A    between atoms: C_8  and  O_9
REMARK    2  A    between atoms: O_9  and  C_10
REMARK    3  A    between atoms: C_15  and  N_16
REMARK                            x       y       z     vdW  Elec       q    Type
REMARK                         _______ _______ _______ _____ _____    ______ ____
ROOT
ATOM      1  C   UNL     1       2.906   4.809  19.085  0.00  0.00    +0.000 A 
ATOM      2  N   UNL     1       1.673   4.531  19.591  0.00  0.00    +0.000 NA
ATOM      3  C   UNL     1       1.071   3.421  19.128  0.00  0.00    +0.000 A 
ATOM      4  C   UNL     1       1.656   2.555  18.224  0.00  0.00    +0.000 A 
ATOM      5  C   UNL     1       2.953   2.828  17.785  0.00  0.00    +0.000 A 
ATOM      6  C   UNL     1       3.640   3.970  18.215  0.00  0.00    +0.000 A 
ENDROOT
BRANCH   6   7
ATOM      7  N   UNL     1       4.910   4.273  17.741  0.00  0.00    +0.000 N 
ATOM      8  C   UNL     1       5.373   3.881  16.403  0.00  0.00    +0.000 C 
ATOM      9  C   UNL     1       6.306   4.990  15.858  0.00  0.00    +0.000 C 
ATOM     10  N   UNL     1       7.441   5.317  16.749  0.00  0.00    +0.000 NA
ATOM     11  C   UNL     1       6.938   5.613  18.111  0.00  0.00    +0.000 C 
ATOM     12  C   UNL     1       6.021   4.506  18.682  0.00  0.00    +0.000 C 
ATOM     13  H   UNL     1       7.909   6.147  16.390  0.00  0.00    +0.000 HD
ENDBRANCH   6   7
BRANCH   1  14
ATOM     14  O   UNL     1       3.485   6.032  19.416  0.00  0.00    +0.000 OA
BRANCH  14  22
ATOM     15  F   UNL     1       1.618   7.019  21.336  0.00  0.00    +0.000 F 
ATOM     16  C   UNL     1       1.836   7.663  20.179  0.00  0.00    +0.000 A 
ATOM     17  C   UNL     1       1.072   8.802  19.921  0.00  0.00    +0.000 A 
ATOM     18  C   UNL     1       1.188   9.456  18.696  0.00  0.00    +0.000 A 
ATOM     19  C   UNL     1       2.074   8.967  17.736  0.00  0.00    +0.000 A 
ATOM     20  C   UNL     1       2.853   7.835  18.008  0.00  0.00    +0.000 A 
ATOM     21 CL   UNL     1       3.909   7.258  16.766  0.00  0.00    +0.000 Cl
ATOM     22  C   UNL     1       2.756   7.183  19.244  0.00  0.00    +0.000 A 
ENDBRANCH  14  22
ENDBRANCH   1  14
TORSDOF 3
ENDMDL
MODEL 6
REMARK VINA RESULT:      -7.4      2.398      4.972
REMARK  Name = 
REMARK  3 active torsions:
REMARK  status: ('A' for Active; 'I' for Inactive)
REMARK    1  A    between atoms: C_8  and  O_9
REMARK    2  A    between atoms: O_9  and  C_10
REMARK    3  A    between atoms: C_15  and  N_16
REMARK                            x       y       z     vdW  Elec       q    Type
REMARK                         _______ _______ _______ _____ _____    ______ ____
ROOT
ATOM      1  C   UNL     1       2.816   4.884  19.142  0.00  0.00    +0.000 A 
ATOM      2  N   UNL     1       1.593   4.487  19.589  0.00  0.00    +0.000 NA
ATOM      3  C   UNL     1       1.106   3.346  19.070  0.00  0.00    +0.000 A 
ATOM      4  C   UNL     1       1.796   2.562  18.165  0.00  0.00    +0.000 A 
ATOM      5  C   UNL     1       3.080   2.958  17.787  0.00  0.00    +0.000 A 
ATOM      6  C   UNL     1       3.650   4.139  18.278  0.00  0.00    +0.000 A 
ENDROOT
BRANCH   6   7
ATOM      7  N   UNL     1       4.907   4.563  17.864  0.00  0.00    +0.000 N 
ATOM      8  C   UNL     1       5.430   4.300  16.517  0.00  0.00    +0.000 C 
ATOM      9  C   UNL     1       6.295   5.507  16.078  0.00  0.00    +0.000 C 
ATOM     10  N   UNL     1       7.380   5.850  17.022  0.00  0.00    +0.000 NA
ATOM     11  C   UNL     1       6.823   6.013  18.386  0.00  0.00    +0.000 C 
ATOM     12  C   UNL     1       5.975   4.807  18.852  0.00  0.00    +0.000 C 
ATOM     13  H   UNL     1       7.795   6.735  16.735  0.00  0.00    +0.000 HD
ENDBRANCH   6   7
BRANCH   1  14
ATOM     14  O   UNL     1       3.275   6.140  19.532  0.00  0.00    +0.000 OA
BRANCH  14  22
ATOM     15  F   UNL     1       3.809   7.337  16.996  0.00  0.00    +0.000 F 
ATOM     16  C   UNL     1       2.894   7.852  17.832  0.00  0.00    +0.000 A 
ATOM     17  C   UNL     1       2.256   9.030  17.443  0.00  0.00    +0.000 A 
ATOM     18  C   UNL     1       1.368   9.661  18.312  0.00  0.00    +0.000 A 
ATOM     19  C   UNL     1       1.121   9.104  19.568  0.00  0.00    +0.000 A 
ATOM     20  C   UNL     1       1.749   7.910  19.944  0.00  0.00    +0.000 A 
ATOM     21 CL   UNL     1       1.427   7.287  21.525  0.00  0.00    +0.000 Cl
ATOM     22  C   UNL     1       2.628   7.260  19.069  0.00  0.00    +0.000 A 
ENDBRANCH  14  22
ENDBRANCH   1  14
TORSDOF 3
ENDMDL
MODEL 7
REMARK VINA RESULT:      -7.4      2.197      4.482
REMARK  Name = 
REMARK  3 active torsions:
REMARK  status: ('A' for Active; 'I' for Inactive)
REMARK    1  A    between atoms: C_8  and  O_9
REMARK    2  A    between atoms: O_9  and  C_10
REMARK    3  A    between atoms: C_15  and  N_16
REMARK                            x       y       z     vdW  Elec       q    Type
REMARK                         _______ _______ _______ _____ _____    ______ ____
ROOT
ATOM      1  C   UNL     1       3.252   5.706  18.927  0.00  0.00    +0.000 A 
ATOM      2  N   UNL     1       2.953   7.022  19.108  0.00  0.00    +0.000 NA
ATOM      3  C   UNL     1       1.979   7.298  19.993  0.00  0.00    +0.000 A 
ATOM      4  C   UNL     1       1.325   6.335  20.736  0.00  0.00    +0.000 A 
ATOM      5  C   UNL     1       1.711   5.002  20.583  0.00  0.00    +0.000 A 
ATOM      6  C   UNL     1       2.710   4.635  19.673  0.00  0.00    +0.000 A 
ENDROOT
BRANCH   6   7
ATOM      7  N   UNL     1       3.061   3.305  19.481  0.00  0.00    +0.000 N 
ATOM      8  C   UNL     1       2.455   2.466  18.438  0.00  0.00    +0.000 C 
ATOM      9  C   UNL     1       3.530   1.490  17.901  0.00  0.00    +0.000 C 
ATOM     10  N   UNL     1       4.178   0.669  18.947  0.00  0.00    +0.000 NA
ATOM     11  C   UNL     1       4.692   1.547  20.025  0.00  0.00    +0.000 C 
ATOM     12  C   UNL     1       3.627   2.514  20.590  0.00  0.00    +0.000 C 
ATOM     13  H   UNL     1       4.965   0.173  18.532  0.00  0.00    +0.000 HD
ENDBRANCH   6   7
BRANCH   1  14
ATOM     14  O   UNL     1       4.135   5.374  17.902  0.00  0.00    +0.000 OA
BRANCH  14  22
ATOM     15  F   UNL     1       5.962   4.670  19.979  0.00  0.00    +0.000 F 
ATOM     16  C   UNL     1       6.322   5.495  18.983  0.00  0.00    +0.000 A 
ATOM     17  C   UNL     1       7.604   6.044  19.031  0.00  0.00    +0.000 A 
ATOM     18  C   UNL     1       7.998   6.978  18.076  0.00  0.00    +0.000 A 
ATOM     19  C   UNL     1       7.105   7.356  17.073  0.00  0.00    +0.000 A 
ATOM     20  C   UNL     1       5.827   6.786  17.017  0.00  0.00    +0.000 A 
ATOM     21 CL   UNL     1       4.754   7.318  15.770  0.00  0.00    +0.000 Cl
ATOM     22  C   UNL     1       5.430   5.832  17.962  0.00  0.00    +0.000 A 
ENDBRANCH  14  22
ENDBRANCH   1  14
TORSDOF 3
ENDMDL
MODEL 8
REMARK VINA RESULT:      -7.2      2.365      5.208
REMARK  Name = 
REMARK  3 active torsions:
REMARK  status: ('A' for Active; 'I' for Inactive)
REMARK    1  A    between atoms: C_8  and  O_9
REMARK    2  A    between atoms: O_9  and  C_10
REMARK    3  A    between atoms: C_15  and  N_16
REMARK                            x       y       z     vdW  Elec       q    Type
REMARK                         _______ _______ _______ _____ _____    ______ ____
ROOT
ATOM      1  C   UNL     1       2.820   4.887  19.123  0.00  0.00    +0.000 A 
ATOM      2  N   UNL     1       1.614   4.510  19.632  0.00  0.00    +0.000 NA
ATOM      3  C   UNL     1       1.095   3.365  19.155  0.00  0.00    +0.000 A 
ATOM      4  C   UNL     1       1.738   2.559  18.235  0.00  0.00    +0.000 A 
ATOM      5  C   UNL     1       3.008   2.936  17.794  0.00  0.00    +0.000 A 
ATOM      6  C   UNL     1       3.609   4.120  18.238  0.00  0.00    +0.000 A 
ENDROOT
BRANCH   6   7
ATOM      7  N   UNL     1       4.849   4.524  17.761  0.00  0.00    +0.000 N 
ATOM      8  C   UNL     1       5.836   5.217  18.601  0.00  0.00    +0.000 C 
ATOM      9  C   UNL     1       7.254   4.764  18.174  0.00  0.00    +0.000 C 
ATOM     10  N   UNL     1       7.541   4.951  16.736  0.00  0.00    +0.000 NA
ATOM     11  C   UNL     1       6.473   4.319  15.926  0.00  0.00    +0.000 C 
ATOM     12  C   UNL     1       5.050   4.776  16.322  0.00  0.00    +0.000 C 
ATOM     13  H   UNL     1       8.425   4.494  16.518  0.00  0.00    +0.000 HD
ENDBRANCH   6   7
BRANCH   1  14
ATOM     14  O   UNL     1       3.307   6.146  19.470  0.00  0.00    +0.000 OA
BRANCH  14  22
ATOM     15  F   UNL     1       3.765   7.416  16.956  0.00  0.00    +0.000 F 
ATOM     16  C   UNL     1       2.857   7.892  17.822  0.00  0.00    +0.000 A 
ATOM     17  C   UNL     1       2.187   9.065  17.476  0.00  0.00    +0.000 A 
ATOM     18  C   UNL     1       1.303   9.655  18.377  0.00  0.00    +0.000 A 
ATOM     19  C   UNL     1       1.094   9.062  19.623  0.00  0.00    +0.000 A 
ATOM     20  C   UNL     1       1.753   7.873  19.957  0.00  0.00    +0.000 A 
ATOM     21 CL   UNL     1       1.476   7.204  21.527  0.00  0.00    +0.000 Cl
ATOM     22  C   UNL     1       2.628   7.263  19.049  0.00  0.00    +0.000 A 
ENDBRANCH  14  22
ENDBRANCH   1  14
TORSDOF 3
ENDMDL
MODEL 9
REMARK VINA RESULT:      -7.1      2.404      5.345
REMARK  Name = 
REMARK  3 active torsions:
REMARK  status: ('A' for Active; 'I' for Inactive)
REMARK    1  A    between atoms: C_8  and  O_9
REMARK    2  A    between atoms: O_9  and  C_10
REMARK    3  A    between atoms: C_15  and  N_16
REMARK                            x       y       z     vdW  Elec       q    Type
REMARK                         _______ _______ _______ _____ _____    ______ ____
ROOT
ATOM      1  C   UNL     1       2.950   4.919  19.004  0.00  0.00    +0.000 A 
ATOM      2  N   UNL     1       1.744   4.606  19.554  0.00  0.00    +0.000 NA
ATOM      3  C   UNL     1       1.159   3.479  19.112  0.00  0.00    +0.000 A 
ATOM      4  C   UNL     1       1.736   2.629  18.188  0.00  0.00    +0.000 A 
ATOM      5  C   UNL     1       3.008   2.940  17.703  0.00  0.00    +0.000 A 
ATOM      6  C   UNL     1       3.675   4.102  18.108  0.00  0.00    +0.000 A 
ENDROOT
BRANCH   6   7
ATOM      7  N   UNL     1       4.918   4.441  17.589  0.00  0.00    +0.000 N 
ATOM      8  C   UNL     1       5.942   5.145  18.373  0.00  0.00    +0.000 C 
ATOM      9  C   UNL     1       7.337   4.625  17.945  0.00  0.00    +0.000 C 
ATOM     10  N   UNL     1       7.601   4.727  16.494  0.00  0.00    +0.000 NA
ATOM     11  C   UNL     1       6.499   4.088  15.738  0.00  0.00    +0.000 C 
ATOM     12  C   UNL     1       5.098   4.610  16.135  0.00  0.00    +0.000 C 
ATOM     13  H   UNL     1       8.467   4.231  16.284  0.00  0.00    +0.000 HD
ENDBRANCH   6   7
BRANCH   1  14
ATOM     14  O   UNL     1       3.505   6.158  19.315  0.00  0.00    +0.000 OA
BRANCH  14  22
ATOM     15  F   UNL     1       1.676   6.998  21.340  0.00  0.00    +0.000 F 
ATOM     16  C   UNL     1       1.821   7.691  20.200  0.00  0.00    +0.000 A 
ATOM     17  C   UNL     1       1.002   8.805  20.013  0.00  0.00    +0.000 A 
ATOM     18  C   UNL     1       1.043   9.506  18.810  0.00  0.00    +0.000 A 
ATOM     19  C   UNL     1       1.909   9.088  17.799  0.00  0.00    +0.000 A 
ATOM     20  C   UNL     1       2.744   7.982  18.000  0.00  0.00    +0.000 A 
ATOM     21 CL   UNL     1       3.772   7.494  16.698  0.00  0.00    +0.000 Cl
ATOM     22  C   UNL     1       2.723   7.284  19.213  0.00  0.00    +0.000 A 
ENDBRANCH  14  22
ENDBRANCH   1  14
TORSDOF 3
ENDMDL
