MODEL 1
REMARK VINA RESULT:      -7.1      0.000      0.000
REMARK  Name = 
REMARK  5 active torsions:
REMARK  status: ('A' for Active; 'I' for Inactive)
REMARK    1  A    between atoms: C_1  and  C_2
REMARK    2  A    between atoms: C_6  and  S_7
REMARK    3  A    between atoms: S_7  and  N_10
REMARK    4  A    between atoms: N_10  and  C_11
REMARK    5  A    between atoms: N_10  and  C_12
REMARK                            x       y       z     vdW  Elec       q    Type
REMARK                         _______ _______ _______ _____ _____    ______ ____
ROOT
ATOM      1  C   UNL     1       1.810   2.828  21.634  0.00  0.00    +0.000 C 
ATOM      2  C   UNL     1       2.386   3.774  20.631  0.00  0.00    +0.000 A 
ATOM      3  C   UNL     1       3.454   3.417  19.832  0.00  0.00    +0.000 A 
ATOM      4  N   UNL     1       3.986   4.220  18.884  0.00  0.00    +0.000 NA
ATOM      5  C   UNL     1       3.485   5.457  18.687  0.00  0.00    +0.000 A 
ATOM      6  C   UNL     1       3.943   6.320  17.689  0.00  0.00    +0.000 A 
ATOM      7  C   UNL     1       3.446   7.632  17.557  0.00  0.00    +0.000 A 
ATOM      8  C   UNL     1       2.442   8.088  18.402  0.00  0.00    +0.000 A 
ATOM      9  C   UNL     1       1.923   7.228  19.361  0.00  0.00    +0.000 A 
ATOM     10  C   UNL     1       2.429   5.925  19.506  0.00  0.00    +0.000 A 
ATOM     11  C   UNL     1       1.883   5.059  20.468  0.00  0.00    +0.000 A 
ENDROOT
BRANCH   6  12
ATOM     12  S   UNL     1       5.197   5.796  16.542  0.00  0.00    +0.000 S 
ATOM     13  O   UNL     1       4.910   4.408  16.232  0.00  0.00    +0.000 OA
ATOM     14  O   UNL     1       5.276   6.761  15.465  0.00  0.00    +0.000 OA
BRANCH  12  15
ATOM     15  N   UNL     1       6.664   5.778  17.409  0.00  0.00    +0.000 NA
ATOM     16  C   UNL     1       7.503   4.572  17.340  0.00  0.00    +0.000 C 
ATOM     17  C   UNL     1       7.443   7.023  17.443  0.00  0.00    +0.000 C 
ENDBRANCH  12  15
ENDBRANCH   6  12
TORSDOF 2
ENDMDL
MODEL 2
REMARK VINA RESULT:      -7.1      2.562      5.250
REMARK  Name = 
REMARK  5 active torsions:
REMARK  status: ('A' for Active; 'I' for Inactive)
REMARK    1  A    between atoms: C_1  and  C_2
REMARK    2  A    between atoms: C_6  and  S_7
REMARK    3  A    between atoms: S_7  and  N_10
REMARK    4  A    between atoms: N_10  and  C_11
REMARK    5  A    between atoms: N_10  and  C_12
REMARK                            x       y       z     vdW  Elec       q    Type
REMARK                         _______ _______ _______ _____ _____    ______ ____
ROOT
ATOM      1  C   UNL     1       7.250   5.098  13.919  0.00  0.00    +0.000 C 
ATOM      2  C   UNL     1       6.285   4.948  15.051  0.00  0.00    +0.000 A 
ATOM      3  C   UNL     1       6.003   3.714  15.601  0.00  0.00    +0.000 A 
ATOM      4  N   UNL     1       5.169   3.530  16.649  0.00  0.00    +0.000 NA
ATOM      5  C   UNL     1       4.542   4.587  17.207  0.00  0.00    +0.000 A 
ATOM      6  C   UNL     1       3.715   4.482  18.327  0.00  0.00    +0.000 A 
ATOM      7  C   UNL     1       3.020   5.595  18.842  0.00  0.00    +0.000 A 
ATOM      8  C   UNL     1       3.180   6.848  18.264  0.00  0.00    +0.000 A 
ATOM      9  C   UNL     1       4.049   6.992  17.191  0.00  0.00    +0.000 A 
ATOM     10  C   UNL     1       4.730   5.881  16.665  0.00  0.00    +0.000 A 
ATOM     11  C   UNL     1       5.619   6.043  15.589  0.00  0.00    +0.000 A 
ENDROOT
BRANCH   6  12
ATOM     12  S   UNL     1       3.490   2.921  19.147  0.00  0.00    +0.000 S 
ATOM     13  O   UNL     1       3.025   1.992  18.134  0.00  0.00    +0.000 OA
ATOM     14  O   UNL     1       4.690   2.611  19.896  0.00  0.00    +0.000 OA
BRANCH  12  15
ATOM     15  N   UNL     1       2.180   3.124  20.217  0.00  0.00    +0.000 NA
ATOM     16  C   UNL     1       0.826   2.816  19.733  0.00  0.00    +0.000 C 
ATOM     17  C   UNL     1       2.391   2.748  21.622  0.00  0.00    +0.000 C 
ENDBRANCH  12  15
ENDBRANCH   6  12
TORSDOF 2
ENDMDL
MODEL 3
REMARK VINA RESULT:      -6.9      2.547      4.886
REMARK  Name = 
REMARK  5 active torsions:
REMARK  status: ('A' for Active; 'I' for Inactive)
REMARK    1  A    between atoms: C_1  and  C_2
REMARK    2  A    between atoms: C_6  and  S_7
REMARK    3  A    between atoms: S_7  and  N_10
REMARK    4  A    between atoms: N_10  and  C_11
REMARK    5  A    between atoms: N_10  and  C_12
REMARK                            x       y       z     vdW  Elec       q    Type
REMARK                         _______ _______ _______ _____ _____    ______ ____
ROOT
ATOM      1  C   UNL     1       7.111   4.933  14.598  0.00  0.00    +0.000 C 
ATOM      2  C   UNL     1       5.957   4.958  15.548  0.00  0.00    +0.000 A 
ATOM      3  C   UNL     1       5.341   3.796  15.968  0.00  0.00    +0.000 A 
ATOM      4  N   UNL     1       4.320   3.763  16.853  0.00  0.00    +0.000 NA
ATOM      5  C   UNL     1       3.834   4.911  17.367  0.00  0.00    +0.000 A 
ATOM      6  C   UNL     1       2.823   4.953  18.329  0.00  0.00    +0.000 A 
ATOM      7  C   UNL     1       2.288   6.171  18.792  0.00  0.00    +0.000 A 
ATOM      8  C   UNL     1       2.795   7.378  18.327  0.00  0.00    +0.000 A 
ATOM      9  C   UNL     1       3.845   7.366  17.419  0.00  0.00    +0.000 A 
ATOM     10  C   UNL     1       4.368   6.152  16.943  0.00  0.00    +0.000 A 
ATOM     11  C   UNL     1       5.442   6.153  16.037  0.00  0.00    +0.000 A 
ENDROOT
BRANCH   6  12
ATOM     12  S   UNL     1       2.151   3.451  19.005  0.00  0.00    +0.000 S 
ATOM     13  O   UNL     1       0.878   3.807  19.602  0.00  0.00    +0.000 OA
ATOM     14  O   UNL     1       2.194   2.421  17.987  0.00  0.00    +0.000 OA
BRANCH  12  15
ATOM     15  N   UNL     1       3.161   3.016  20.306  0.00  0.00    +0.000 NA
ATOM     16  C   UNL     1       2.539   2.708  21.603  0.00  0.00    +0.000 C 
ATOM     17  C   UNL     1       4.321   2.167  20.006  0.00  0.00    +0.000 C 
ENDBRANCH  12  15
ENDBRANCH   6  12
TORSDOF 2
ENDMDL
MODEL 4
REMARK VINA RESULT:      -6.8      1.697      2.021
REMARK  Name = 
REMARK  5 active torsions:
REMARK  status: ('A' for Active; 'I' for Inactive)
REMARK    1  A    between atoms: C_1  and  C_2
REMARK    2  A    between atoms: C_6  and  S_7
REMARK    3  A    between atoms: S_7  and  N_10
REMARK    4  A    between atoms: N_10  and  C_11
REMARK    5  A    between atoms: N_10  and  C_12
REMARK                            x       y       z     vdW  Elec       q    Type
REMARK                         _______ _______ _______ _____ _____    ______ ____
ROOT
ATOM      1  C   UNL     1       1.776   2.774  21.181  0.00  0.00    +0.000 C 
ATOM      2  C   UNL     1       2.664   3.612  20.319  0.00  0.00    +0.000 A 
ATOM      3  C   UNL     1       3.967   3.246  20.052  0.00  0.00    +0.000 A 
ATOM      4  N   UNL     1       4.797   3.949  19.249  0.00  0.00    +0.000 NA
ATOM      5  C   UNL     1       4.371   5.091  18.670  0.00  0.00    +0.000 A 
ATOM      6  C   UNL     1       5.149   5.837  17.784  0.00  0.00    +0.000 A 
ATOM      7  C   UNL     1       4.699   7.062  17.252  0.00  0.00    +0.000 A 
ATOM      8  C   UNL     1       3.433   7.539  17.568  0.00  0.00    +0.000 A 
ATOM      9  C   UNL     1       2.613   6.783  18.395  0.00  0.00    +0.000 A 
ATOM     10  C   UNL     1       3.066   5.570  18.940  0.00  0.00    +0.000 A 
ATOM     11  C   UNL     1       2.220   4.806  19.762  0.00  0.00    +0.000 A 
ENDROOT
BRANCH   6  12
ATOM     12  S   UNL     1       6.764   5.273  17.297  0.00  0.00    +0.000 S 
ATOM     13  O   UNL     1       7.475   6.442  16.814  0.00  0.00    +0.000 OA
ATOM     14  O   UNL     1       7.332   4.495  18.379  0.00  0.00    +0.000 OA
BRANCH  12  15
ATOM     15  N   UNL     1       6.535   4.280  15.932  0.00  0.00    +0.000 NA
ATOM     16  C   UNL     1       5.261   3.557  15.797  0.00  0.00    +0.000 C 
ATOM     17  C   UNL     1       7.064   4.764  14.649  0.00  0.00    +0.000 C 
ENDBRANCH  12  15
ENDBRANCH   6  12
TORSDOF 2
ENDMDL
MODEL 5
REMARK VINA RESULT:      -6.7      2.475      5.657
REMARK  Name = 
REMARK  5 active torsions:
REMARK  status: ('A' for Active; 'I' for Inactive)
REMARK    1  A    between atoms: C_1  and  C_2
REMARK    2  A    between atoms: C_6  and  S_7
REMARK    3  A    between atoms: S_7  and  N_10
REMARK    4  A    between atoms: N_10  and  C_11
REMARK    5  A    between atoms: N_10  and  C_12
REMARK                            x       y       z     vdW  Elec       q    Type
REMARK                         _______ _______ _______ _____ _____    ______ ____
ROOT
ATOM      1  C   UNL     1       7.376   4.706  13.091  0.00  0.00    +0.000 C 
ATOM      2  C   UNL     1       6.733   4.711  14.440  0.00  0.00    +0.000 A 
ATOM      3  C   UNL     1       5.424   4.312  14.618  0.00  0.00    +0.000 A 
ATOM      4  N   UNL     1       4.809   4.261  15.821  0.00  0.00    +0.000 NA
ATOM      5  C   UNL     1       5.474   4.631  16.935  0.00  0.00    +0.000 A 
ATOM      6  C   UNL     1       4.926   4.550  18.217  0.00  0.00    +0.000 A 
ATOM      7  C   UNL     1       5.622   5.010  19.352  0.00  0.00    +0.000 A 
ATOM      8  C   UNL     1       6.907   5.523  19.224  0.00  0.00    +0.000 A 
ATOM      9  C   UNL     1       7.500   5.554  17.969  0.00  0.00    +0.000 A 
ATOM     10  C   UNL     1       6.802   5.111  16.834  0.00  0.00    +0.000 A 
ATOM     11  C   UNL     1       7.421   5.132  15.572  0.00  0.00    +0.000 A 
ENDROOT
BRANCH   6  12
ATOM     12  S   UNL     1       3.303   3.868  18.468  0.00  0.00    +0.000 S 
ATOM     13  O   UNL     1       2.377   4.766  17.806  0.00  0.00    +0.000 OA
ATOM     14  O   UNL     1       3.322   2.468  18.095  0.00  0.00    +0.000 OA
BRANCH  12  15
ATOM     15  N   UNL     1       2.972   4.015  20.133  0.00  0.00    +0.000 NA
ATOM     16  C   UNL     1       2.055   5.077  20.573  0.00  0.00    +0.000 C 
ATOM     17  C   UNL     1       2.833   2.773  20.906  0.00  0.00    +0.000 C 
ENDBRANCH  12  15
ENDBRANCH   6  12
TORSDOF 2
ENDMDL
MODEL 6
REMARK VINA RESULT:      -6.7      1.274      1.622
REMARK  Name = 
REMARK  5 active torsions:
REMARK  status: ('A' for Active; 'I' for Inactive)
REMARK    1  A    between atoms: C_1  and  C_2
REMARK    2  A    between atoms: C_6  and  S_7
REMARK    3  A    between atoms: S_7  and  N_10
REMARK    4  A    between atoms: N_10  and  C_11
REMARK    5  A    between atoms: N_10  and  C_12
REMARK                            x       y       z     vdW  Elec       q    Type
REMARK                         _______ _______ _______ _____ _____    ______ ____
ROOT
ATOM      1  C   UNL     1       1.332   2.530  21.920  0.00  0.00    +0.000 C 
ATOM      2  C   UNL     1       2.158   3.304  20.944  0.00  0.00    +0.000 A 
ATOM      3  C   UNL     1       3.327   2.791  20.419  0.00  0.00    +0.000 A 
ATOM      4  N   UNL     1       4.088   3.433  19.505  0.00  0.00    +0.000 NA
ATOM      5  C   UNL     1       3.729   4.658  19.068  0.00  0.00    +0.000 A 
ATOM      6  C   UNL     1       4.431   5.357  18.084  0.00  0.00    +0.000 A 
ATOM      7  C   UNL     1       4.070   6.664  17.701  0.00  0.00    +0.000 A 
ATOM      8  C   UNL     1       2.962   7.278  18.272  0.00  0.00    +0.000 A 
ATOM      9  C   UNL     1       2.207   6.580  19.205  0.00  0.00    +0.000 A 
ATOM     10  C   UNL     1       2.576   5.283  19.601  0.00  0.00    +0.000 A 
ATOM     11  C   UNL     1       1.794   4.581  20.533  0.00  0.00    +0.000 A 
ENDROOT
BRANCH   6  12
ATOM     12  S   UNL     1       5.835   4.622  17.277  0.00  0.00    +0.000 S 
ATOM     13  O   UNL     1       6.801   4.334  18.322  0.00  0.00    +0.000 OA
ATOM     14  O   UNL     1       5.373   3.548  16.423  0.00  0.00    +0.000 OA
BRANCH  12  15
ATOM     15  N   UNL     1       6.541   5.849  16.329  0.00  0.00    +0.000 NA
ATOM     16  C   UNL     1       7.472   6.787  16.975  0.00  0.00    +0.000 C 
ATOM     17  C   UNL     1       6.931   5.500  14.956  0.00  0.00    +0.000 C 
ENDBRANCH  12  15
ENDBRANCH   6  12
TORSDOF 2
ENDMDL
MODEL 7
REMARK VINA RESULT:      -6.6      2.638      4.718
REMARK  Name = 
REMARK  5 active torsions:
REMARK  status: ('A' for Active; 'I' for Inactive)
REMARK    1  A    between atoms: C_1  and  C_2
REMARK    2  A    between atoms: C_6  and  S_7
REMARK    3  A    between atoms: S_7  and  N_10
REMARK    4  A    between atoms: N_10  and  C_11
REMARK    5  A    between atoms: N_10  and  C_12
REMARK                            x       y       z     vdW  Elec       q    Type
REMARK                         _______ _______ _______ _____ _____    ______ ____
ROOT
ATOM      1  C   UNL     1       1.610   9.084  19.150  0.00  0.00    +0.000 C 
ATOM      2  C   UNL     1       2.312   7.793  18.879  0.00  0.00    +0.000 A 
ATOM      3  C   UNL     1       2.157   6.698  19.705  0.00  0.00    +0.000 A 
ATOM      4  N   UNL     1       2.739   5.498  19.483  0.00  0.00    +0.000 NA
ATOM      5  C   UNL     1       3.539   5.324  18.411  0.00  0.00    +0.000 A 
ATOM      6  C   UNL     1       4.126   4.100  18.083  0.00  0.00    +0.000 A 
ATOM      7  C   UNL     1       5.014   3.970  16.997  0.00  0.00    +0.000 A 
ATOM      8  C   UNL     1       5.294   5.064  16.188  0.00  0.00    +0.000 A 
ATOM      9  C   UNL     1       4.672   6.277  16.452  0.00  0.00    +0.000 A 
ATOM     10  C   UNL     1       3.801   6.414  17.545  0.00  0.00    +0.000 A 
ATOM     11  C   UNL     1       3.164   7.642  17.791  0.00  0.00    +0.000 A 
ENDROOT
BRANCH   6  12
ATOM     12  S   UNL     1       3.784   2.644  19.045  0.00  0.00    +0.000 S 
ATOM     13  O   UNL     1       3.755   1.536  18.109  0.00  0.00    +0.000 OA
ATOM     14  O   UNL     1       4.700   2.600  20.167  0.00  0.00    +0.000 OA
BRANCH  12  15
ATOM     15  N   UNL     1       2.186   2.807  19.612  0.00  0.00    +0.000 NA
ATOM     16  C   UNL     1       1.087   2.338  18.754  0.00  0.00    +0.000 C 
ATOM     17  C   UNL     1       1.949   2.562  21.041  0.00  0.00    +0.000 C 
ENDBRANCH  12  15
ENDBRANCH   6  12
TORSDOF 2
ENDMDL
MODEL 8
REMARK VINA RESULT:      -6.5      2.622      5.278
REMARK  Name = 
REMARK  5 active torsions:
REMARK  status: ('A' for Active; 'I' for Inactive)
REMARK    1  A    between atoms: C_1  and  C_2
REMARK    2  A    between atoms: C_6  and  S_7
REMARK    3  A    between atoms: S_7  and  N_10
REMARK    4  A    between atoms: N_10  and  C_11
REMARK    5  A    between atoms: N_10  and  C_12
REMARK                            x       y       z     vdW  Elec       q    Type
REMARK                         _______ _______ _______ _____ _____    ______ ____
ROOT
ATOM      1  C   UNL     1       7.014   5.186  14.207  0.00  0.00    +0.000 C 
ATOM      2  C   UNL     1       6.063   4.919  15.329  0.00  0.00    +0.000 A 
ATOM      3  C   UNL     1       5.814   3.638  15.776  0.00  0.00    +0.000 A 
ATOM      4  N   UNL     1       4.994   3.347  16.810  0.00  0.00    +0.000 NA
ATOM      5  C   UNL     1       4.348   4.338  17.460  0.00  0.00    +0.000 A 
ATOM      6  C   UNL     1       3.533   4.122  18.572  0.00  0.00    +0.000 A 
ATOM      7  C   UNL     1       2.818   5.170  19.184  0.00  0.00    +0.000 A 
ATOM      8  C   UNL     1       2.945   6.471  18.712  0.00  0.00    +0.000 A 
ATOM      9  C   UNL     1       3.800   6.724  17.648  0.00  0.00    +0.000 A 
ATOM     10  C   UNL     1       4.501   5.677  17.027  0.00  0.00    +0.000 A 
ATOM     11  C   UNL     1       5.377   5.949  15.962  0.00  0.00    +0.000 A 
ENDROOT
BRANCH   6  12
ATOM     12  S   UNL     1       3.352   2.492  19.261  0.00  0.00    +0.000 S 
ATOM     13  O   UNL     1       3.409   1.569  18.143  0.00  0.00    +0.000 OA
ATOM     14  O   UNL     1       4.290   2.340  20.354  0.00  0.00    +0.000 OA
BRANCH  12  15
ATOM     15  N   UNL     1       1.757   2.395  19.853  0.00  0.00    +0.000 NA
ATOM     16  C   UNL     1       1.472   2.937  21.190  0.00  0.00    +0.000 C 
ATOM     17  C   UNL     1       0.667   2.619  18.893  0.00  0.00    +0.000 C 
ENDBRANCH  12  15
ENDBRANCH   6  12
TORSDOF 2
ENDMDL
MODEL 9
REMARK VINA RESULT:      -6.5      1.554      1.766
REMARK  Name = 
REMARK  5 active torsions:
REMARK  status: ('A' for Active; 'I' for Inactive)
REMARK    1  A    between atoms: C_1  and  C_2
REMARK    2  A    between atoms: C_6  and  S_7
REMARK    3  A    between atoms: S_7  and  N_10
REMARK    4  A    between atoms: N_10  and  C_11
REMARK    5  A    between atoms: N_10  and  C_12
REMARK                            x       y       z     vdW  Elec       q    Type
REMARK                         _______ _______ _______ _____ _____    ______ ____
ROOT
ATOM      1  C   UNL     1       0.906   1.987  18.865  0.00  0.00    +0.000 C 
ATOM      2  C   UNL     1       1.899   3.018  18.435  0.00  0.00    +0.000 A 
ATOM      3  C   UNL     1       3.140   2.666  17.943  0.00  0.00    +0.000 A 
ATOM      4  N   UNL     1       4.057   3.557  17.506  0.00  0.00    +0.000 NA
ATOM      5  C   UNL     1       3.789   4.879  17.552  0.00  0.00    +0.000 A 
ATOM      6  C   UNL     1       4.661   5.855  17.064  0.00  0.00    +0.000 A 
ATOM      7  C   UNL     1       4.382   7.230  17.192  0.00  0.00    +0.000 A 
ATOM      8  C   UNL     1       3.194   7.651  17.775  0.00  0.00    +0.000 A 
ATOM      9  C   UNL     1       2.280   6.700  18.209  0.00  0.00    +0.000 A 
ATOM     10  C   UNL     1       2.563   5.329  18.098  0.00  0.00    +0.000 A 
ATOM     11  C   UNL     1       1.622   4.377  18.525  0.00  0.00    +0.000 A 
ENDROOT
BRANCH   6  12
ATOM     12  S   UNL     1       6.183   5.395  16.267  0.00  0.00    +0.000 S 
ATOM     13  O   UNL     1       6.271   3.950  16.362  0.00  0.00    +0.000 OA
ATOM     14  O   UNL     1       6.235   6.024  14.963  0.00  0.00    +0.000 OA
BRANCH  12  15
ATOM     15  N   UNL     1       7.440   5.996  17.247  0.00  0.00    +0.000 NA
ATOM     16  C   UNL     1       7.654   7.450  17.300  0.00  0.00    +0.000 C 
ATOM     17  C   UNL     1       7.665   5.331  18.539  0.00  0.00    +0.000 C 
ENDBRANCH  12  15
ENDBRANCH   6  12
TORSDOF 2
ENDMDL
