MODEL 1
REMARK VINA RESULT:      -6.7      0.000      0.000
REMARK  Name = 
REMARK  8 active torsions:
REMARK  status: ('A' for Active; 'I' for Inactive)
REMARK    1  A    between atoms: C_1  and  N_2
REMARK    2  A    between atoms: N_2  and  C_3
REMARK    3  A    between atoms: N_2  and  C_4
REMARK    4  A    between atoms: N_2  and  C_5
REMARK    5  A    between atoms: C_5  and  C_6
REMARK    6  A    between atoms: C_5  and  C_16
REMARK    7  A    between atoms: C_6  and  C_7
REMARK    8  A    between atoms: C_16  and  O_18
REMARK                            x       y       z     vdW  Elec       q    Type
REMARK                         _______ _______ _______ _____ _____    ______ ____
ROOT
ATOM      1  C   UNL     1       4.958   3.896  17.742  0.00  0.00    +0.000 C 
ENDROOT
BRANCH   1   2
ATOM      2  C   UNL     1       3.504   3.722  18.046  0.00  0.00    +0.000 A 
ATOM      3  C   UNL     1       2.435   3.990  17.211  0.00  0.00    +0.000 A 
ATOM      4  N   UNL     1       1.277   3.828  17.927  0.00  0.00    +0.000 N 
ATOM      5  C   UNL     1       1.566   3.421  19.208  0.00  0.00    +0.000 A 
ATOM      6  C   UNL     1       0.713   3.184  20.290  0.00  0.00    +0.000 A 
ATOM      7  C   UNL     1       1.290   2.767  21.493  0.00  0.00    +0.000 A 
ATOM      8  C   UNL     1       2.667   2.582  21.600  0.00  0.00    +0.000 A 
ATOM      9  C   UNL     1       3.506   2.832  20.511  0.00  0.00    +0.000 A 
ATOM     10  C   UNL     1       2.951   3.277  19.293  0.00  0.00    +0.000 A 
ATOM     11  H   UNL     1       0.344   4.009  17.580  0.00  0.00    +0.000 HD
ENDBRANCH   1   2
BRANCH   1  12
ATOM     12  C   UNL     1       5.591   5.231  18.218  0.00  0.00    +0.000 C 
BRANCH  12  14
ATOM     13  C   UNL     1       5.464   5.847  15.729  0.00  0.00    +0.000 C 
ATOM     14  N   UNL     1       5.526   6.416  17.149  0.00  0.00    +0.000 N 
ATOM     15  C   UNL     1       6.694   7.389  17.213  0.00  0.00    +0.000 C 
ATOM     16  C   UNL     1       4.237   7.222  17.347  0.00  0.00    +0.000 C 
ENDBRANCH  12  14
BRANCH  12  17
ATOM     17  C   UNL     1       6.984   4.992  18.851  0.00  0.00    +0.000 C 
ATOM     18  O   UNL     1       7.316   5.397  19.958  0.00  0.00    +0.000 OA
BRANCH  17  19
ATOM     19  O   UNL     1       7.839   4.248  18.115  0.00  0.00    +0.000 OA
ATOM     20  H   UNL     1       7.618   3.316  17.930  0.00  0.00    +0.000 HD
ENDBRANCH  17  19
ENDBRANCH  12  17
ENDBRANCH   1  12
TORSDOF 5
ENDMDL
MODEL 2
REMARK VINA RESULT:      -6.7      0.071      1.018
REMARK  Name = 
REMARK  8 active torsions:
REMARK  status: ('A' for Active; 'I' for Inactive)
REMARK    1  A    between atoms: C_1  and  N_2
REMARK    2  A    between atoms: N_2  and  C_3
REMARK    3  A    between atoms: N_2  and  C_4
REMARK    4  A    between atoms: N_2  and  C_5
REMARK    5  A    between atoms: C_5  and  C_6
REMARK    6  A    between atoms: C_5  and  C_16
REMARK    7  A    between atoms: C_6  and  C_7
REMARK    8  A    between atoms: C_16  and  O_18
REMARK                            x       y       z     vdW  Elec       q    Type
REMARK                         _______ _______ _______ _____ _____    ______ ____
ROOT
ATOM      1  C   UNL     1       5.008   3.849  17.801  0.00  0.00    +0.000 C 
ENDROOT
BRANCH   1   2
ATOM      2  C   UNL     1       3.546   3.689  18.073  0.00  0.00    +0.000 A 
ATOM      3  C   UNL     1       2.499   3.959  17.212  0.00  0.00    +0.000 A 
ATOM      4  N   UNL     1       1.324   3.813  17.904  0.00  0.00    +0.000 N 
ATOM      5  C   UNL     1       1.580   3.414  19.194  0.00  0.00    +0.000 A 
ATOM      6  C   UNL     1       0.701   3.192  20.258  0.00  0.00    +0.000 A 
ATOM      7  C   UNL     1       1.247   2.781  21.477  0.00  0.00    +0.000 A 
ATOM      8  C   UNL     1       2.620   2.585  21.617  0.00  0.00    +0.000 A 
ATOM      9  C   UNL     1       3.486   2.820  20.545  0.00  0.00    +0.000 A 
ATOM     10  C   UNL     1       2.962   3.259  19.311  0.00  0.00    +0.000 A 
ATOM     11  H   UNL     1       0.400   3.998  17.534  0.00  0.00    +0.000 HD
ENDBRANCH   1   2
BRANCH   1  12
ATOM     12  C   UNL     1       5.631   5.201  18.239  0.00  0.00    +0.000 C 
BRANCH  12  14
ATOM     13  C   UNL     1       6.718   7.316  17.270  0.00  0.00    +0.000 C 
ATOM     14  N   UNL     1       5.522   6.366  17.152  0.00  0.00    +0.000 N 
ATOM     15  C   UNL     1       4.252   7.200  17.245  0.00  0.00    +0.000 C 
ATOM     16  C   UNL     1       5.585   5.767  15.742  0.00  0.00    +0.000 C 
ENDBRANCH  12  14
BRANCH  12  17
ATOM     17  C   UNL     1       7.043   4.994  18.841  0.00  0.00    +0.000 C 
ATOM     18  O   UNL     1       7.391   5.409  19.940  0.00  0.00    +0.000 OA
BRANCH  17  19
ATOM     19  O   UNL     1       7.898   4.268  18.087  0.00  0.00    +0.000 OA
ATOM     20  H   UNL     1       8.512   4.732  17.487  0.00  0.00    +0.000 HD
ENDBRANCH  17  19
ENDBRANCH  12  17
ENDBRANCH   1  12
TORSDOF 5
ENDMDL
MODEL 3
REMARK VINA RESULT:      -6.6      2.114      5.646
REMARK  Name = 
REMARK  8 active torsions:
REMARK  status: ('A' for Active; 'I' for Inactive)
REMARK    1  A    between atoms: C_1  and  N_2
REMARK    2  A    between atoms: N_2  and  C_3
REMARK    3  A    between atoms: N_2  and  C_4
REMARK    4  A    between atoms: N_2  and  C_5
REMARK    5  A    between atoms: C_5  and  C_6
REMARK    6  A    between atoms: C_5  and  C_16
REMARK    7  A    between atoms: C_6  and  C_7
REMARK    8  A    between atoms: C_16  and  O_18
REMARK                            x       y       z     vdW  Elec       q    Type
REMARK                         _______ _______ _______ _____ _____    ______ ____
ROOT
ATOM      1  C   UNL     1       4.174   4.829  19.556  0.00  0.00    +0.000 C 
ENDROOT
BRANCH   1   2
ATOM      2  C   UNL     1       5.460   4.910  18.795  0.00  0.00    +0.000 A 
ATOM      3  C   UNL     1       6.701   5.276  19.283  0.00  0.00    +0.000 A 
ATOM      4  N   UNL     1       7.573   5.355  18.228  0.00  0.00    +0.000 N 
ATOM      5  C   UNL     1       6.935   5.011  17.060  0.00  0.00    +0.000 A 
ATOM      6  C   UNL     1       7.411   4.997  15.746  0.00  0.00    +0.000 A 
ATOM      7  C   UNL     1       6.529   4.592  14.740  0.00  0.00    +0.000 A 
ATOM      8  C   UNL     1       5.226   4.202  15.044  0.00  0.00    +0.000 A 
ATOM      9  C   UNL     1       4.764   4.230  16.362  0.00  0.00    +0.000 A 
ATOM     10  C   UNL     1       5.626   4.658  17.393  0.00  0.00    +0.000 A 
ATOM     11  H   UNL     1       8.538   5.652  18.287  0.00  0.00    +0.000 HD
ENDBRANCH   1   2
BRANCH   1  12
ATOM     12  C   UNL     1       3.366   3.517  19.375  0.00  0.00    +0.000 C 
BRANCH  12  14
ATOM     13  C   UNL     1       2.133   2.739  21.488  0.00  0.00    +0.000 C 
ATOM     14  N   UNL     1       1.974   3.480  20.157  0.00  0.00    +0.000 N 
ATOM     15  C   UNL     1       0.835   2.824  19.390  0.00  0.00    +0.000 C 
ATOM     16  C   UNL     1       1.539   4.908  20.508  0.00  0.00    +0.000 C 
ENDBRANCH  12  14
BRANCH  12  17
ATOM     17  C   UNL     1       4.269   2.275  19.580  0.00  0.00    +0.000 C 
ATOM     18  O   UNL     1       5.058   2.142  20.507  0.00  0.00    +0.000 OA
BRANCH  17  19
ATOM     19  O   UNL     1       4.111   1.284  18.675  0.00  0.00    +0.000 OA
ATOM     20  H   UNL     1       3.357   0.671  18.770  0.00  0.00    +0.000 HD
ENDBRANCH  17  19
ENDBRANCH  12  17
ENDBRANCH   1  12
TORSDOF 5
ENDMDL
MODEL 4
REMARK VINA RESULT:      -6.6      0.085      1.250
REMARK  Name = 
REMARK  8 active torsions:
REMARK  status: ('A' for Active; 'I' for Inactive)
REMARK    1  A    between atoms: C_1  and  N_2
REMARK    2  A    between atoms: N_2  and  C_3
REMARK    3  A    between atoms: N_2  and  C_4
REMARK    4  A    between atoms: N_2  and  C_5
REMARK    5  A    between atoms: C_5  and  C_6
REMARK    6  A    between atoms: C_5  and  C_16
REMARK    7  A    between atoms: C_6  and  C_7
REMARK    8  A    between atoms: C_16  and  O_18
REMARK                            x       y       z     vdW  Elec       q    Type
REMARK                         _______ _______ _______ _____ _____    ______ ____
ROOT
ATOM      1  C   UNL     1       4.965   3.826  17.697  0.00  0.00    +0.000 C 
ENDROOT
BRANCH   1   2
ATOM      2  C   UNL     1       3.511   3.674  18.011  0.00  0.00    +0.000 A 
ATOM      3  C   UNL     1       2.440   3.947  17.179  0.00  0.00    +0.000 A 
ATOM      4  N   UNL     1       1.285   3.807  17.904  0.00  0.00    +0.000 N 
ATOM      5  C   UNL     1       1.576   3.410  19.187  0.00  0.00    +0.000 A 
ATOM      6  C   UNL     1       0.726   3.194  20.276  0.00  0.00    +0.000 A 
ATOM      7  C   UNL     1       1.305   2.782  21.480  0.00  0.00    +0.000 A 
ATOM      8  C   UNL     1       2.680   2.580  21.581  0.00  0.00    +0.000 A 
ATOM      9  C   UNL     1       3.516   2.809  20.485  0.00  0.00    +0.000 A 
ATOM     10  C   UNL     1       2.960   3.248  19.265  0.00  0.00    +0.000 A 
ATOM     11  H   UNL     1       0.352   3.996  17.561  0.00  0.00    +0.000 HD
ENDBRANCH   1   2
BRANCH   1  12
ATOM     12  C   UNL     1       5.614   5.163  18.142  0.00  0.00    +0.000 C 
BRANCH  12  14
ATOM     13  C   UNL     1       4.225   7.169  17.340  0.00  0.00    +0.000 C 
ATOM     14  N   UNL     1       5.492   6.348  17.078  0.00  0.00    +0.000 N 
ATOM     15  C   UNL     1       5.463   5.894  15.626  0.00  0.00    +0.000 C 
ATOM     16  C   UNL     1       6.671   7.315  17.241  0.00  0.00    +0.000 C 
ENDBRANCH  12  14
BRANCH  12  17
ATOM     17  C   UNL     1       7.037   4.931  18.706  0.00  0.00    +0.000 C 
ATOM     18  O   UNL     1       7.946   4.393  18.085  0.00  0.00    +0.000 OA
BRANCH  17  19
ATOM     19  O   UNL     1       7.255   5.405  19.953  0.00  0.00    +0.000 OA
ATOM     20  H   UNL     1       7.653   6.289  20.061  0.00  0.00    +0.000 HD
ENDBRANCH  17  19
ENDBRANCH  12  17
ENDBRANCH   1  12
TORSDOF 5
ENDMDL
MODEL 5
REMARK VINA RESULT:      -6.6      2.594      5.743
REMARK  Name = 
REMARK  8 active torsions:
REMARK  status: ('A' for Active; 'I' for Inactive)
REMARK    1  A    between atoms: C_1  and  N_2
REMARK    2  A    between atoms: N_2  and  C_3
REMARK    3  A    between atoms: N_2  and  C_4
REMARK    4  A    between atoms: N_2  and  C_5
REMARK    5  A    between atoms: C_5  and  C_6
REMARK    6  A    between atoms: C_5  and  C_16
REMARK    7  A    between atoms: C_6  and  C_7
REMARK    8  A    between atoms: C_16  and  O_18
REMARK                            x       y       z     vdW  Elec       q    Type
REMARK                         _______ _______ _______ _____ _____    ______ ____
ROOT
ATOM      1  C   UNL     1       3.689   5.273  19.132  0.00  0.00    +0.000 C 
ENDROOT
BRANCH   1   2
ATOM      2  C   UNL     1       5.080   5.046  18.630  0.00  0.00    +0.000 A 
ATOM      3  C   UNL     1       6.253   5.104  19.357  0.00  0.00    +0.000 A 
ATOM      4  N   UNL     1       7.306   4.975  18.489  0.00  0.00    +0.000 N 
ATOM      5  C   UNL     1       6.843   4.795  17.207  0.00  0.00    +0.000 A 
ATOM      6  C   UNL     1       7.546   4.671  16.006  0.00  0.00    +0.000 A 
ATOM      7  C   UNL     1       6.805   4.490  14.834  0.00  0.00    +0.000 A 
ATOM      8  C   UNL     1       5.414   4.422  14.871  0.00  0.00    +0.000 A 
ATOM      9  C   UNL     1       4.725   4.557  16.080  0.00  0.00    +0.000 A 
ATOM     10  C   UNL     1       5.449   4.764  17.273  0.00  0.00    +0.000 A 
ATOM     11  H   UNL     1       8.284   5.032  18.741  0.00  0.00    +0.000 HD
ENDBRANCH   1   2
BRANCH   1  12
ATOM     12  C   UNL     1       2.973   4.027  19.718  0.00  0.00    +0.000 C 
BRANCH  12  14
ATOM     13  C   UNL     1       1.509   4.260  17.621  0.00  0.00    +0.000 C 
ATOM     14  N   UNL     1       1.988   3.286  18.702  0.00  0.00    +0.000 N 
ATOM     15  C   UNL     1       0.760   2.666  19.351  0.00  0.00    +0.000 C 
ATOM     16  C   UNL     1       2.743   2.169  17.971  0.00  0.00    +0.000 C 
ENDBRANCH  12  14
BRANCH  12  17
ATOM     17  C   UNL     1       2.369   4.336  21.111  0.00  0.00    +0.000 C 
ATOM     18  O   UNL     1       2.309   3.529  22.030  0.00  0.00    +0.000 OA
BRANCH  17  19
ATOM     19  O   UNL     1       1.930   5.602  21.288  0.00  0.00    +0.000 OA
ATOM     20  H   UNL     1       2.442   6.206  21.859  0.00  0.00    +0.000 HD
ENDBRANCH  17  19
ENDBRANCH  12  17
ENDBRANCH   1  12
TORSDOF 5
ENDMDL
MODEL 6
REMARK VINA RESULT:      -6.6      2.721      6.335
REMARK  Name = 
REMARK  8 active torsions:
REMARK  status: ('A' for Active; 'I' for Inactive)
REMARK    1  A    between atoms: C_1  and  N_2
REMARK    2  A    between atoms: N_2  and  C_3
REMARK    3  A    between atoms: N_2  and  C_4
REMARK    4  A    between atoms: N_2  and  C_5
REMARK    5  A    between atoms: C_5  and  C_6
REMARK    6  A    between atoms: C_5  and  C_16
REMARK    7  A    between atoms: C_6  and  C_7
REMARK    8  A    between atoms: C_16  and  O_18
REMARK                            x       y       z     vdW  Elec       q    Type
REMARK                         _______ _______ _______ _____ _____    ______ ____
ROOT
ATOM      1  C   UNL     1       4.286   3.854  16.666  0.00  0.00    +0.000 C 
ENDROOT
BRANCH   1   2
ATOM      2  C   UNL     1       5.546   4.360  16.040  0.00  0.00    +0.000 A 
ATOM      3  C   UNL     1       6.520   5.144  16.630  0.00  0.00    +0.000 A 
ATOM      4  N   UNL     1       7.431   5.497  15.668  0.00  0.00    +0.000 N 
ATOM      5  C   UNL     1       7.092   4.927  14.464  0.00  0.00    +0.000 A 
ATOM      6  C   UNL     1       7.697   5.050  13.209  0.00  0.00    +0.000 A 
ATOM      7  C   UNL     1       7.133   4.342  12.144  0.00  0.00    +0.000 A 
ATOM      8  C   UNL     1       6.016   3.531  12.335  0.00  0.00    +0.000 A 
ATOM      9  C   UNL     1       5.419   3.426  13.594  0.00  0.00    +0.000 A 
ATOM     10  C   UNL     1       5.954   4.150  14.680  0.00  0.00    +0.000 A 
ATOM     11  H   UNL     1       8.222   6.111  15.808  0.00  0.00    +0.000 HD
ENDBRANCH   1   2
BRANCH   1  12
ATOM     12  C   UNL     1       4.198   3.990  18.209  0.00  0.00    +0.000 C 
BRANCH  12  14
ATOM     13  C   UNL     1       3.541   1.514  18.025  0.00  0.00    +0.000 C 
ATOM     14  N   UNL     1       3.547   2.734  18.952  0.00  0.00    +0.000 N 
ATOM     15  C   UNL     1       2.124   2.958  19.441  0.00  0.00    +0.000 C 
ATOM     16  C   UNL     1       4.402   2.349  20.165  0.00  0.00    +0.000 C 
ENDBRANCH  12  14
BRANCH  12  17
ATOM     17  C   UNL     1       3.618   5.367  18.615  0.00  0.00    +0.000 C 
ATOM     18  O   UNL     1       2.844   6.020  17.925  0.00  0.00    +0.000 OA
BRANCH  17  19
ATOM     19  O   UNL     1       3.986   5.818  19.835  0.00  0.00    +0.000 OA
ATOM     20  H   UNL     1       3.994   5.198  20.588  0.00  0.00    +0.000 HD
ENDBRANCH  17  19
ENDBRANCH  12  17
ENDBRANCH   1  12
TORSDOF 5
ENDMDL
MODEL 7
REMARK VINA RESULT:      -6.6      2.598      5.712
REMARK  Name = 
REMARK  8 active torsions:
REMARK  status: ('A' for Active; 'I' for Inactive)
REMARK    1  A    between atoms: C_1  and  N_2
REMARK    2  A    between atoms: N_2  and  C_3
REMARK    3  A    between atoms: N_2  and  C_4
REMARK    4  A    between atoms: N_2  and  C_5
REMARK    5  A    between atoms: C_5  and  C_6
REMARK    6  A    between atoms: C_5  and  C_16
REMARK    7  A    between atoms: C_6  and  C_7
REMARK    8  A    between atoms: C_16  and  O_18
REMARK                            x       y       z     vdW  Elec       q    Type
REMARK                         _______ _______ _______ _____ _____    ______ ____
ROOT
ATOM      1  C   UNL     1       3.718   5.294  19.155  0.00  0.00    +0.000 C 
ENDROOT
BRANCH   1   2
ATOM      2  C   UNL     1       5.105   5.065  18.644  0.00  0.00    +0.000 A 
ATOM      3  C   UNL     1       6.284   5.126  19.362  0.00  0.00    +0.000 A 
ATOM      4  N   UNL     1       7.330   4.993  18.486  0.00  0.00    +0.000 N 
ATOM      5  C   UNL     1       6.857   4.808  17.208  0.00  0.00    +0.000 A 
ATOM      6  C   UNL     1       7.552   4.678  16.002  0.00  0.00    +0.000 A 
ATOM      7  C   UNL     1       6.801   4.493  14.837  0.00  0.00    +0.000 A 
ATOM      8  C   UNL     1       5.410   4.424  14.885  0.00  0.00    +0.000 A 
ATOM      9  C   UNL     1       4.731   4.565  16.098  0.00  0.00    +0.000 A 
ATOM     10  C   UNL     1       5.464   4.777  17.285  0.00  0.00    +0.000 A 
ATOM     11  H   UNL     1       8.310   5.051  18.730  0.00  0.00    +0.000 HD
ENDBRANCH   1   2
BRANCH   1  12
ATOM     12  C   UNL     1       2.998   4.046  19.731  0.00  0.00    +0.000 C 
BRANCH  12  14
ATOM     13  C   UNL     1       0.815   2.729  19.423  0.00  0.00    +0.000 C 
ATOM     14  N   UNL     1       2.041   3.294  18.698  0.00  0.00    +0.000 N 
ATOM     15  C   UNL     1       2.702   2.153  17.939  0.00  0.00    +0.000 C 
ATOM     16  C   UNL     1       1.507   4.293  17.664  0.00  0.00    +0.000 C 
ENDBRANCH  12  14
BRANCH  12  17
ATOM     17  C   UNL     1       2.362   4.358  21.109  0.00  0.00    +0.000 C 
ATOM     18  O   UNL     1       2.298   3.558  22.035  0.00  0.00    +0.000 OA
BRANCH  17  19
ATOM     19  O   UNL     1       1.898   5.617  21.266  0.00  0.00    +0.000 OA
ATOM     20  H   UNL     1       2.006   6.058  22.130  0.00  0.00    +0.000 HD
ENDBRANCH  17  19
ENDBRANCH  12  17
ENDBRANCH   1  12
TORSDOF 5
ENDMDL
MODEL 8
REMARK VINA RESULT:      -6.6      1.139      1.365
REMARK  Name = 
REMARK  8 active torsions:
REMARK  status: ('A' for Active; 'I' for Inactive)
REMARK    1  A    between atoms: C_1  and  N_2
REMARK    2  A    between atoms: N_2  and  C_3
REMARK    3  A    between atoms: N_2  and  C_4
REMARK    4  A    between atoms: N_2  and  C_5
REMARK    5  A    between atoms: C_5  and  C_6
REMARK    6  A    between atoms: C_5  and  C_16
REMARK    7  A    between atoms: C_6  and  C_7
REMARK    8  A    between atoms: C_16  and  O_18
REMARK                            x       y       z     vdW  Elec       q    Type
REMARK                         _______ _______ _______ _____ _____    ______ ____
ROOT
ATOM      1  C   UNL     1       4.951   3.884  17.236  0.00  0.00    +0.000 C 
ENDROOT
BRANCH   1   2
ATOM      2  C   UNL     1       3.904   3.125  17.988  0.00  0.00    +0.000 A 
ATOM      3  C   UNL     1       3.573   1.790  17.847  0.00  0.00    +0.000 A 
ATOM      4  N   UNL     1       2.470   1.536  18.621  0.00  0.00    +0.000 N 
ATOM      5  C   UNL     1       2.094   2.672  19.297  0.00  0.00    +0.000 A 
ATOM      6  C   UNL     1       1.010   2.892  20.152  0.00  0.00    +0.000 A 
ATOM      7  C   UNL     1       0.872   4.165  20.712  0.00  0.00    +0.000 A 
ATOM      8  C   UNL     1       1.796   5.172  20.437  0.00  0.00    +0.000 A 
ATOM      9  C   UNL     1       2.869   4.937  19.573  0.00  0.00    +0.000 A 
ATOM     10  C   UNL     1       3.017   3.668  18.976  0.00  0.00    +0.000 A 
ATOM     11  H   UNL     1       1.980   0.652  18.670  0.00  0.00    +0.000 HD
ENDBRANCH   1   2
BRANCH   1  12
ATOM     12  C   UNL     1       5.473   5.173  17.924  0.00  0.00    +0.000 C 
BRANCH  12  14
ATOM     13  C   UNL     1       5.454   6.058  15.514  0.00  0.00    +0.000 C 
ATOM     14  N   UNL     1       5.486   6.468  16.989  0.00  0.00    +0.000 N 
ATOM     15  C   UNL     1       6.683   7.384  17.194  0.00  0.00    +0.000 C 
ATOM     16  C   UNL     1       4.218   7.296  17.233  0.00  0.00    +0.000 C 
ENDBRANCH  12  14
BRANCH  12  17
ATOM     17  C   UNL     1       6.793   4.900  18.688  0.00  0.00    +0.000 C 
ATOM     18  O   UNL     1       6.998   5.232  19.849  0.00  0.00    +0.000 OA
BRANCH  17  19
ATOM     19  O   UNL     1       7.733   4.214  18.001  0.00  0.00    +0.000 OA
ATOM     20  H   UNL     1       8.650   4.202  18.335  0.00  0.00    +0.000 HD
ENDBRANCH  17  19
ENDBRANCH  12  17
ENDBRANCH   1  12
TORSDOF 5
ENDMDL
MODEL 9
REMARK VINA RESULT:      -6.6      2.001      2.639
REMARK  Name = 
REMARK  8 active torsions:
REMARK  status: ('A' for Active; 'I' for Inactive)
REMARK    1  A    between atoms: C_1  and  N_2
REMARK    2  A    between atoms: N_2  and  C_3
REMARK    3  A    between atoms: N_2  and  C_4
REMARK    4  A    between atoms: N_2  and  C_5
REMARK    5  A    between atoms: C_5  and  C_6
REMARK    6  A    between atoms: C_5  and  C_16
REMARK    7  A    between atoms: C_6  and  C_7
REMARK    8  A    between atoms: C_16  and  O_18
REMARK                            x       y       z     vdW  Elec       q    Type
REMARK                         _______ _______ _______ _____ _____    ______ ____
ROOT
ATOM      1  C   UNL     1       4.139   5.403  17.381  0.00  0.00    +0.000 C 
ENDROOT
BRANCH   1   2
ATOM      2  C   UNL     1       3.395   4.165  17.772  0.00  0.00    +0.000 A 
ATOM      3  C   UNL     1       3.091   3.081  16.971  0.00  0.00    +0.000 A 
ATOM      4  N   UNL     1       2.280   2.233  17.681  0.00  0.00    +0.000 N 
ATOM      5  C   UNL     1       2.078   2.724  18.949  0.00  0.00    +0.000 A 
ATOM      6  C   UNL     1       1.291   2.225  19.991  0.00  0.00    +0.000 A 
ATOM      7  C   UNL     1       1.276   2.939  21.192  0.00  0.00    +0.000 A 
ATOM      8  C   UNL     1       2.034   4.098  21.346  0.00  0.00    +0.000 A 
ATOM      9  C   UNL     1       2.809   4.587  20.291  0.00  0.00    +0.000 A 
ATOM     10  C   UNL     1       2.822   3.899  19.061  0.00  0.00    +0.000 A 
ATOM     11  H   UNL     1       1.864   1.384  17.322  0.00  0.00    +0.000 HD
ENDBRANCH   1   2
BRANCH   1  12
ATOM     12  C   UNL     1       5.570   5.182  16.826  0.00  0.00    +0.000 C 
BRANCH  12  14
ATOM     13  C   UNL     1       6.229   5.438  19.294  0.00  0.00    +0.000 C 
ATOM     14  N   UNL     1       6.743   5.525  17.854  0.00  0.00    +0.000 N 
ATOM     15  C   UNL     1       7.370   6.898  17.663  0.00  0.00    +0.000 C 
ATOM     16  C   UNL     1       7.861   4.482  17.732  0.00  0.00    +0.000 C 
ENDBRANCH  12  14
BRANCH  12  17
ATOM     17  C   UNL     1       5.725   5.811  15.418  0.00  0.00    +0.000 C 
ATOM     18  O   UNL     1       6.433   5.350  14.532  0.00  0.00    +0.000 OA
BRANCH  17  19
ATOM     19  O   UNL     1       4.980   6.914  15.188  0.00  0.00    +0.000 OA
ATOM     20  H   UNL     1       5.047   7.668  15.804  0.00  0.00    +0.000 HD
ENDBRANCH  17  19
ENDBRANCH  12  17
ENDBRANCH   1  12
TORSDOF 5
ENDMDL
