MODEL 1
REMARK VINA RESULT:      -7.4      0.000      0.000
REMARK  Name = 
REMARK  7 active torsions:
REMARK  status: ('A' for Active; 'I' for Inactive)
REMARK    1  A    between atoms: N_1  and  S_2
REMARK    2  A    between atoms: S_2  and  N_5
REMARK    3  A    between atoms: N_5  and  C_6
REMARK    4  A    between atoms: C_6  and  C_7
REMARK    5  A    between atoms: C_9  and  C_10
REMARK    6  A    between atoms: N_15  and  C_16
REMARK    7  A    between atoms: C_16  and  C_17
REMARK                            x       y       z     vdW  Elec       q    Type
REMARK                         _______ _______ _______ _____ _____    ______ ____
ROOT
ATOM      1  C   UNL     1       3.834   3.725  18.146  0.00  0.00    +0.000 A 
ATOM      2  C   UNL     1       4.485   4.860  18.682  0.00  0.00    +0.000 A 
ATOM      3  C   UNL     1       5.524   5.134  17.821  0.00  0.00    +0.000 A 
ATOM      4  N   UNL     1       5.431   4.200  16.819  0.00  0.00    +0.000 N 
ATOM      5  N   UNL     1       4.443   3.300  17.029  0.00  0.00    +0.000 NA
ENDROOT
BRANCH   3   6
ATOM      6  C   UNL     1       6.519   6.152  17.911  0.00  0.00    +0.000 A 
ATOM      7  C   UNL     1       7.611   6.209  18.760  0.00  0.00    +0.000 A 
ATOM      8  C   UNL     1       8.299   7.411  18.474  0.00  0.00    +0.000 A 
ATOM      9  C   UNL     1       7.589   8.024  17.473  0.00  0.00    +0.000 A 
ATOM     10  O   UNL     1       6.523   7.264  17.115  0.00  0.00    +0.000 OA
ENDBRANCH   3   6
BRANCH   1  11
ATOM     11  C   UNL     1       2.649   3.005  18.720  0.00  0.00    +0.000 C 
BRANCH  11  12
ATOM     12  N   UNL     1       2.932   2.647  20.131  0.00  0.00    +0.000 NA
ATOM     13  H   UNL     1       2.908   1.637  20.257  0.00  0.00    +0.000 HD
BRANCH  12  14
ATOM     14  S   UNL     1       1.850   3.330  21.192  0.00  0.00    +0.000 S 
ATOM     15  O   UNL     1       2.202   4.710  21.379  0.00  0.00    +0.000 OA
ATOM     16  O   UNL     1       1.593   2.417  22.275  0.00  0.00    +0.000 OA
BRANCH  14  17
ATOM     17  N   UNL     1       0.533   3.278  20.189  0.00  0.00    +0.000 NA
ATOM     18  H   UNL     1       0.558   2.406  19.655  0.00  0.00    +0.000 HD
ATOM     19  H   UNL     1       0.561   4.081  19.559  0.00  0.00    +0.000 HD
ENDBRANCH  14  17
ENDBRANCH  12  14
ENDBRANCH  11  12
ENDBRANCH   1  11
BRANCH   4  20
ATOM     20  C   UNL     1       6.342   3.991  15.717  0.00  0.00    +0.000 C 
BRANCH  20  21
ATOM     21  C   UNL     1       5.955   4.755  14.474  0.00  0.00    +0.000 C 
ATOM     22  F   UNL     1       5.228   5.867  14.705  0.00  0.00    +0.000 F 
ATOM     23  F   UNL     1       7.060   5.135  13.784  0.00  0.00    +0.000 F 
ATOM     24  F   UNL     1       5.236   3.969  13.636  0.00  0.00    +0.000 F 
ENDBRANCH  20  21
ENDBRANCH   4  20
TORSDOF 7
ENDMDL
MODEL 2
REMARK VINA RESULT:      -7.2      0.787      1.261
REMARK  Name = 
REMARK  7 active torsions:
REMARK  status: ('A' for Active; 'I' for Inactive)
REMARK    1  A    between atoms: N_1  and  S_2
REMARK    2  A    between atoms: S_2  and  N_5
REMARK    3  A    between atoms: N_5  and  C_6
REMARK    4  A    between atoms: C_6  and  C_7
REMARK    5  A    between atoms: C_9  and  C_10
REMARK    6  A    between atoms: N_15  and  C_16
REMARK    7  A    between atoms: C_16  and  C_17
REMARK                            x       y       z     vdW  Elec       q    Type
REMARK                         _______ _______ _______ _____ _____    ______ ____
ROOT
ATOM      1  C   UNL     1       4.008   3.774  18.053  0.00  0.00    +0.000 A 
ATOM      2  C   UNL     1       4.595   4.945  18.583  0.00  0.00    +0.000 A 
ATOM      3  C   UNL     1       5.675   5.220  17.772  0.00  0.00    +0.000 A 
ATOM      4  N   UNL     1       5.664   4.250  16.801  0.00  0.00    +0.000 N 
ATOM      5  N   UNL     1       4.690   3.328  16.988  0.00  0.00    +0.000 NA
ENDROOT
BRANCH   3   6
ATOM      6  C   UNL     1       6.634   6.269  17.880  0.00  0.00    +0.000 A 
ATOM      7  C   UNL     1       7.707   6.361  18.749  0.00  0.00    +0.000 A 
ATOM      8  C   UNL     1       8.362   7.585  18.476  0.00  0.00    +0.000 A 
ATOM      9  C   UNL     1       7.651   8.175  17.461  0.00  0.00    +0.000 A 
ATOM     10  O   UNL     1       6.618   7.381  17.083  0.00  0.00    +0.000 OA
ENDBRANCH   3   6
BRANCH   1  11
ATOM     11  C   UNL     1       2.812   3.039  18.586  0.00  0.00    +0.000 C 
BRANCH  11  12
ATOM     12  N   UNL     1       2.998   2.794  20.036  0.00  0.00    +0.000 NA
ATOM     13  H   UNL     1       3.088   1.797  20.223  0.00  0.00    +0.000 HD
BRANCH  12  14
ATOM     14  S   UNL     1       1.740   3.383  20.949  0.00  0.00    +0.000 S 
ATOM     15  O   UNL     1       1.655   2.615  22.160  0.00  0.00    +0.000 OA
ATOM     16  O   UNL     1       0.612   3.657  20.097  0.00  0.00    +0.000 OA
BRANCH  14  17
ATOM     17  N   UNL     1       2.434   4.839  21.322  0.00  0.00    +0.000 NA
ATOM     18  H   UNL     1       1.707   5.557  21.338  0.00  0.00    +0.000 HD
ATOM     19  H   UNL     1       3.140   5.063  20.620  0.00  0.00    +0.000 HD
ENDBRANCH  14  17
ENDBRANCH  12  14
ENDBRANCH  11  12
ENDBRANCH   1  11
BRANCH   4  20
ATOM     20  C   UNL     1       6.641   4.029  15.759  0.00  0.00    +0.000 C 
BRANCH  20  21
ATOM     21  C   UNL     1       6.238   4.624  14.432  0.00  0.00    +0.000 C 
ATOM     22  F   UNL     1       7.243   5.215  13.756  0.00  0.00    +0.000 F 
ATOM     23  F   UNL     1       5.716   3.670  13.621  0.00  0.00    +0.000 F 
ATOM     24  F   UNL     1       5.265   5.552  14.602  0.00  0.00    +0.000 F 
ENDBRANCH  20  21
ENDBRANCH   4  20
TORSDOF 7
ENDMDL
MODEL 3
REMARK VINA RESULT:      -7.1      1.410      1.718
REMARK  Name = 
REMARK  7 active torsions:
REMARK  status: ('A' for Active; 'I' for Inactive)
REMARK    1  A    between atoms: N_1  and  S_2
REMARK    2  A    between atoms: S_2  and  N_5
REMARK    3  A    between atoms: N_5  and  C_6
REMARK    4  A    between atoms: C_6  and  C_7
REMARK    5  A    between atoms: C_9  and  C_10
REMARK    6  A    between atoms: N_15  and  C_16
REMARK    7  A    between atoms: C_16  and  C_17
REMARK                            x       y       z     vdW  Elec       q    Type
REMARK                         _______ _______ _______ _____ _____    ______ ____
ROOT
ATOM      1  C   UNL     1       3.110   4.773  17.507  0.00  0.00    +0.000 A 
ATOM      2  C   UNL     1       3.885   5.836  18.026  0.00  0.00    +0.000 A 
ATOM      3  C   UNL     1       5.149   5.664  17.506  0.00  0.00    +0.000 A 
ATOM      4  N   UNL     1       5.068   4.559  16.694  0.00  0.00    +0.000 N 
ATOM      5  N   UNL     1       3.850   3.970  16.727  0.00  0.00    +0.000 NA
ENDROOT
BRANCH   3   6
ATOM      6  C   UNL     1       6.326   6.434  17.736  0.00  0.00    +0.000 A 
ATOM      7  C   UNL     1       7.353   6.182  18.629  0.00  0.00    +0.000 A 
ATOM      8  C   UNL     1       8.292   7.231  18.492  0.00  0.00    +0.000 A 
ATOM      9  C   UNL     1       7.786   8.067  17.530  0.00  0.00    +0.000 A 
ATOM     10  O   UNL     1       6.609   7.587  17.056  0.00  0.00    +0.000 OA
ENDBRANCH   3   6
BRANCH   1  11
ATOM     11  C   UNL     1       1.665   4.485  17.788  0.00  0.00    +0.000 C 
BRANCH  11  12
ATOM     12  N   UNL     1       1.489   4.238  19.239  0.00  0.00    +0.000 NA
ATOM     13  H   UNL     1       2.261   4.641  19.767  0.00  0.00    +0.000 HD
BRANCH  12  14
ATOM     14  S   UNL     1       1.399   2.619  19.604  0.00  0.00    +0.000 S 
ATOM     15  O   UNL     1       2.730   2.083  19.644  0.00  0.00    +0.000 OA
ATOM     16  O   UNL     1       0.318   2.017  18.867  0.00  0.00    +0.000 OA
BRANCH  14  17
ATOM     17  N   UNL     1       0.881   2.799  21.167  0.00  0.00    +0.000 NA
ATOM     18  H   UNL     1      -0.015   3.290  21.164  0.00  0.00    +0.000 HD
ATOM     19  H   UNL     1       1.577   3.333  21.690  0.00  0.00    +0.000 HD
ENDBRANCH  14  17
ENDBRANCH  12  14
ENDBRANCH  11  12
ENDBRANCH   1  11
BRANCH   4  20
ATOM     20  C   UNL     1       6.142   3.900  15.987  0.00  0.00    +0.000 C 
BRANCH  20  21
ATOM     21  C   UNL     1       6.325   4.408  14.578  0.00  0.00    +0.000 C 
ATOM     22  F   UNL     1       6.258   3.456  13.627  0.00  0.00    +0.000 F 
ATOM     23  F   UNL     1       5.384   5.339  14.281  0.00  0.00    +0.000 F 
ATOM     24  F   UNL     1       7.525   5.026  14.447  0.00  0.00    +0.000 F 
ENDBRANCH  20  21
ENDBRANCH   4  20
TORSDOF 7
ENDMDL
MODEL 4
REMARK VINA RESULT:      -7.0      0.978      1.284
REMARK  Name = 
REMARK  7 active torsions:
REMARK  status: ('A' for Active; 'I' for Inactive)
REMARK    1  A    between atoms: N_1  and  S_2
REMARK    2  A    between atoms: S_2  and  N_5
REMARK    3  A    between atoms: N_5  and  C_6
REMARK    4  A    between atoms: C_6  and  C_7
REMARK    5  A    between atoms: C_9  and  C_10
REMARK    6  A    between atoms: N_15  and  C_16
REMARK    7  A    between atoms: C_16  and  C_17
REMARK                            x       y       z     vdW  Elec       q    Type
REMARK                         _______ _______ _______ _____ _____    ______ ____
ROOT
ATOM      1  C   UNL     1       4.008   3.485  18.197  0.00  0.00    +0.000 A 
ATOM      2  C   UNL     1       4.615   4.637  18.748  0.00  0.00    +0.000 A 
ATOM      3  C   UNL     1       5.614   4.988  17.866  0.00  0.00    +0.000 A 
ATOM      4  N   UNL     1       5.539   4.080  16.840  0.00  0.00    +0.000 N 
ATOM      5  N   UNL     1       4.605   3.123  17.052  0.00  0.00    +0.000 NA
ENDROOT
BRANCH   3   6
ATOM      6  C   UNL     1       6.557   6.054  17.958  0.00  0.00    +0.000 A 
ATOM      7  C   UNL     1       6.608   7.218  17.211  0.00  0.00    +0.000 A 
ATOM      8  C   UNL     1       7.725   7.958  17.667  0.00  0.00    +0.000 A 
ATOM      9  C   UNL     1       8.297   7.204  18.660  0.00  0.00    +0.000 A 
ATOM     10  O   UNL     1       7.590   6.062  18.855  0.00  0.00    +0.000 OA
ENDBRANCH   3   6
BRANCH   1  11
ATOM     11  C   UNL     1       2.880   2.688  18.783  0.00  0.00    +0.000 C 
BRANCH  11  12
ATOM     12  N   UNL     1       3.001   2.684  20.260  0.00  0.00    +0.000 NA
ATOM     13  H   UNL     1       3.137   1.736  20.607  0.00  0.00    +0.000 HD
BRANCH  12  14
ATOM     14  S   UNL     1       1.665   3.326  21.012  0.00  0.00    +0.000 S 
ATOM     15  O   UNL     1       1.431   2.599  22.228  0.00  0.00    +0.000 OA
ATOM     16  O   UNL     1       0.643   3.595  20.034  0.00  0.00    +0.000 OA
BRANCH  14  17
ATOM     17  N   UNL     1       2.347   4.780  21.416  0.00  0.00    +0.000 NA
ATOM     18  H   UNL     1       1.694   5.299  22.006  0.00  0.00    +0.000 HD
ATOM     19  H   UNL     1       2.549   5.303  20.564  0.00  0.00    +0.000 HD
ENDBRANCH  14  17
ENDBRANCH  12  14
ENDBRANCH  11  12
ENDBRANCH   1  11
BRANCH   4  20
ATOM     20  C   UNL     1       6.427   3.949  15.707  0.00  0.00    +0.000 C 
BRANCH  20  21
ATOM     21  C   UNL     1       5.960   4.719  14.496  0.00  0.00    +0.000 C 
ATOM     22  F   UNL     1       5.136   5.749  14.772  0.00  0.00    +0.000 F 
ATOM     23  F   UNL     1       7.019   5.223  13.814  0.00  0.00    +0.000 F 
ATOM     24  F   UNL     1       5.309   3.900  13.633  0.00  0.00    +0.000 F 
ENDBRANCH  20  21
ENDBRANCH   4  20
TORSDOF 7
ENDMDL
MODEL 5
REMARK VINA RESULT:      -7.0      1.100      1.270
REMARK  Name = 
REMARK  7 active torsions:
REMARK  status: ('A' for Active; 'I' for Inactive)
REMARK    1  A    between atoms: N_1  and  S_2
REMARK    2  A    between atoms: S_2  and  N_5
REMARK    3  A    between atoms: N_5  and  C_6
REMARK    4  A    between atoms: C_6  and  C_7
REMARK    5  A    between atoms: C_9  and  C_10
REMARK    6  A    between atoms: N_15  and  C_16
REMARK    7  A    between atoms: C_16  and  C_17
REMARK                            x       y       z     vdW  Elec       q    Type
REMARK                         _______ _______ _______ _____ _____    ______ ____
ROOT
ATOM      1  C   UNL     1       3.016   4.669  17.619  0.00  0.00    +0.000 A 
ATOM      2  C   UNL     1       3.806   5.732  18.113  0.00  0.00    +0.000 A 
ATOM      3  C   UNL     1       5.055   5.555  17.559  0.00  0.00    +0.000 A 
ATOM      4  N   UNL     1       4.949   4.448  16.754  0.00  0.00    +0.000 N 
ATOM      5  N   UNL     1       3.731   3.862  16.823  0.00  0.00    +0.000 NA
ENDROOT
BRANCH   3   6
ATOM      6  C   UNL     1       6.240   6.324  17.754  0.00  0.00    +0.000 A 
ATOM      7  C   UNL     1       7.259   6.110  18.667  0.00  0.00    +0.000 A 
ATOM      8  C   UNL     1       8.211   7.139  18.478  0.00  0.00    +0.000 A 
ATOM      9  C   UNL     1       7.720   7.926  17.467  0.00  0.00    +0.000 A 
ATOM     10  O   UNL     1       6.541   7.434  17.012  0.00  0.00    +0.000 OA
ENDBRANCH   3   6
BRANCH   1  11
ATOM     11  C   UNL     1       1.577   4.386  17.940  0.00  0.00    +0.000 C 
BRANCH  11  12
ATOM     12  N   UNL     1       1.506   3.270  18.915  0.00  0.00    +0.000 NA
ATOM     13  H   UNL     1       0.575   2.860  18.923  0.00  0.00    +0.000 HD
BRANCH  12  14
ATOM     14  S   UNL     1       1.877   3.751  20.462  0.00  0.00    +0.000 S 
ATOM     15  O   UNL     1       1.396   5.090  20.653  0.00  0.00    +0.000 OA
ATOM     16  O   UNL     1       3.213   3.328  20.793  0.00  0.00    +0.000 OA
BRANCH  14  17
ATOM     17  N   UNL     1       0.836   2.725  21.241  0.00  0.00    +0.000 NA
ATOM     18  H   UNL     1       1.293   2.364  22.080  0.00  0.00    +0.000 HD
ATOM     19  H   UNL     1       0.588   1.960  20.613  0.00  0.00    +0.000 HD
ENDBRANCH  14  17
ENDBRANCH  12  14
ENDBRANCH  11  12
ENDBRANCH   1  11
BRANCH   4  20
ATOM     20  C   UNL     1       6.003   3.783  16.021  0.00  0.00    +0.000 C 
BRANCH  20  21
ATOM     21  C   UNL     1       6.291   4.424  14.685  0.00  0.00    +0.000 C 
ATOM     22  F   UNL     1       7.460   5.091  14.625  0.00  0.00    +0.000 F 
ATOM     23  F   UNL     1       6.312   3.488  13.702  0.00  0.00    +0.000 F 
ATOM     24  F   UNL     1       5.309   5.298  14.355  0.00  0.00    +0.000 F 
ENDBRANCH  20  21
ENDBRANCH   4  20
TORSDOF 7
ENDMDL
MODEL 6
REMARK VINA RESULT:      -7.0      1.192      1.703
REMARK  Name = 
REMARK  7 active torsions:
REMARK  status: ('A' for Active; 'I' for Inactive)
REMARK    1  A    between atoms: N_1  and  S_2
REMARK    2  A    between atoms: S_2  and  N_5
REMARK    3  A    between atoms: N_5  and  C_6
REMARK    4  A    between atoms: C_6  and  C_7
REMARK    5  A    between atoms: C_9  and  C_10
REMARK    6  A    between atoms: N_15  and  C_16
REMARK    7  A    between atoms: C_16  and  C_17
REMARK                            x       y       z     vdW  Elec       q    Type
REMARK                         _______ _______ _______ _____ _____    ______ ____
ROOT
ATOM      1  C   UNL     1       3.071   4.423  17.690  0.00  0.00    +0.000 A 
ATOM      2  C   UNL     1       3.829   5.499  18.206  0.00  0.00    +0.000 A 
ATOM      3  C   UNL     1       5.064   5.407  17.604  0.00  0.00    +0.000 A 
ATOM      4  N   UNL     1       4.982   4.334  16.753  0.00  0.00    +0.000 N 
ATOM      5  N   UNL     1       3.795   3.687  16.833  0.00  0.00    +0.000 NA
ENDROOT
BRANCH   3   6
ATOM      6  C   UNL     1       6.219   6.222  17.795  0.00  0.00    +0.000 A 
ATOM      7  C   UNL     1       6.568   7.383  17.126  0.00  0.00    +0.000 A 
ATOM      8  C   UNL     1       7.799   7.821  17.666  0.00  0.00    +0.000 A 
ATOM      9  C   UNL     1       8.137   6.904  18.629  0.00  0.00    +0.000 A 
ATOM     10  O   UNL     1       7.182   5.945  18.726  0.00  0.00    +0.000 OA
ENDBRANCH   3   6
BRANCH   1  11
ATOM     11  C   UNL     1       1.660   4.056  18.044  0.00  0.00    +0.000 C 
BRANCH  11  12
ATOM     12  N   UNL     1       1.483   4.161  19.513  0.00  0.00    +0.000 NA
ATOM     13  H   UNL     1       2.028   4.937  19.885  0.00  0.00    +0.000 HD
BRANCH  12  14
ATOM     14  S   UNL     1       1.938   2.775  20.311  0.00  0.00    +0.000 S 
ATOM     15  O   UNL     1       1.074   2.596  21.444  0.00  0.00    +0.000 OA
ATOM     16  O   UNL     1       3.374   2.708  20.383  0.00  0.00    +0.000 OA
BRANCH  14  17
ATOM     17  N   UNL     1       1.458   1.709  19.138  0.00  0.00    +0.000 NA
ATOM     18  H   UNL     1       1.458   2.188  18.235  0.00  0.00    +0.000 HD
ATOM     19  H   UNL     1       0.522   1.367  19.359  0.00  0.00    +0.000 HD
ENDBRANCH  14  17
ENDBRANCH  12  14
ENDBRANCH  11  12
ENDBRANCH   1  11
BRANCH   4  20
ATOM     20  C   UNL     1       6.039   3.753  15.955  0.00  0.00    +0.000 C 
BRANCH  20  21
ATOM     21  C   UNL     1       6.207   4.426  14.614  0.00  0.00    +0.000 C 
ATOM     22  F   UNL     1       6.104   3.598  13.556  0.00  0.00    +0.000 F 
ATOM     23  F   UNL     1       5.280   5.403  14.451  0.00  0.00    +0.000 F 
ATOM     24  F   UNL     1       7.417   5.034  14.535  0.00  0.00    +0.000 F 
ENDBRANCH  20  21
ENDBRANCH   4  20
TORSDOF 7
ENDMDL
MODEL 7
REMARK VINA RESULT:      -7.0      1.062      1.366
REMARK  Name = 
REMARK  7 active torsions:
REMARK  status: ('A' for Active; 'I' for Inactive)
REMARK    1  A    between atoms: N_1  and  S_2
REMARK    2  A    between atoms: S_2  and  N_5
REMARK    3  A    between atoms: N_5  and  C_6
REMARK    4  A    between atoms: C_6  and  C_7
REMARK    5  A    between atoms: C_9  and  C_10
REMARK    6  A    between atoms: N_15  and  C_16
REMARK    7  A    between atoms: C_16  and  C_17
REMARK                            x       y       z     vdW  Elec       q    Type
REMARK                         _______ _______ _______ _____ _____    ______ ____
ROOT
ATOM      1  C   UNL     1       4.081   3.499  18.176  0.00  0.00    +0.000 A 
ATOM      2  C   UNL     1       4.955   4.407  18.817  0.00  0.00    +0.000 A 
ATOM      3  C   UNL     1       5.531   5.145  17.806  0.00  0.00    +0.000 A 
ATOM      4  N   UNL     1       4.967   4.683  16.643  0.00  0.00    +0.000 N 
ATOM      5  N   UNL     1       4.125   3.642  16.844  0.00  0.00    +0.000 NA
ENDROOT
BRANCH   3   6
ATOM      6  C   UNL     1       6.515   6.174  17.894  0.00  0.00    +0.000 A 
ATOM      7  C   UNL     1       7.628   6.225  18.715  0.00  0.00    +0.000 A 
ATOM      8  C   UNL     1       8.292   7.444  18.441  0.00  0.00    +0.000 A 
ATOM      9  C   UNL     1       7.547   8.071  17.475  0.00  0.00    +0.000 A 
ATOM     10  O   UNL     1       6.482   7.305  17.127  0.00  0.00    +0.000 OA
ENDBRANCH   3   6
BRANCH   1  11
ATOM     11  C   UNL     1       3.229   2.450  18.828  0.00  0.00    +0.000 C 
BRANCH  11  12
ATOM     12  N   UNL     1       3.246   2.651  20.297  0.00  0.00    +0.000 NA
ATOM     13  H   UNL     1       3.547   1.802  20.772  0.00  0.00    +0.000 HD
BRANCH  12  14
ATOM     14  S   UNL     1       1.758   3.084  20.898  0.00  0.00    +0.000 S 
ATOM     15  O   UNL     1       1.610   2.514  22.208  0.00  0.00    +0.000 OA
ATOM     16  O   UNL     1       0.766   2.970  19.862  0.00  0.00    +0.000 OA
BRANCH  14  17
ATOM     17  N   UNL     1       2.085   4.697  21.085  0.00  0.00    +0.000 NA
ATOM     18  H   UNL     1       1.952   5.168  20.187  0.00  0.00    +0.000 HD
ATOM     19  H   UNL     1       3.048   4.809  21.405  0.00  0.00    +0.000 HD
ENDBRANCH  14  17
ENDBRANCH  12  14
ENDBRANCH  11  12
ENDBRANCH   1  11
BRANCH   4  20
ATOM     20  C   UNL     1       5.299   5.060  15.288  0.00  0.00    +0.000 C 
BRANCH  20  21
ATOM     21  C   UNL     1       6.495   4.320  14.742  0.00  0.00    +0.000 C 
ATOM     22  F   UNL     1       6.212   3.452  13.750  0.00  0.00    +0.000 F 
ATOM     23  F   UNL     1       7.418   5.191  14.262  0.00  0.00    +0.000 F 
ATOM     24  F   UNL     1       7.112   3.620  15.727  0.00  0.00    +0.000 F 
ENDBRANCH  20  21
ENDBRANCH   4  20
TORSDOF 7
ENDMDL
MODEL 8
REMARK VINA RESULT:      -7.0      0.740      1.279
REMARK  Name = 
REMARK  7 active torsions:
REMARK  status: ('A' for Active; 'I' for Inactive)
REMARK    1  A    between atoms: N_1  and  S_2
REMARK    2  A    between atoms: S_2  and  N_5
REMARK    3  A    between atoms: N_5  and  C_6
REMARK    4  A    between atoms: C_6  and  C_7
REMARK    5  A    between atoms: C_9  and  C_10
REMARK    6  A    between atoms: N_15  and  C_16
REMARK    7  A    between atoms: C_16  and  C_17
REMARK                            x       y       z     vdW  Elec       q    Type
REMARK                         _______ _______ _______ _____ _____    ______ ____
ROOT
ATOM      1  C   UNL     1       3.748   3.925  17.905  0.00  0.00    +0.000 A 
ATOM      2  C   UNL     1       4.354   5.083  18.444  0.00  0.00    +0.000 A 
ATOM      3  C   UNL     1       5.520   5.258  17.731  0.00  0.00    +0.000 A 
ATOM      4  N   UNL     1       5.542   4.247  16.803  0.00  0.00    +0.000 N 
ATOM      5  N   UNL     1       4.500   3.393  16.930  0.00  0.00    +0.000 NA
ENDROOT
BRANCH   3   6
ATOM      6  C   UNL     1       6.529   6.253  17.891  0.00  0.00    +0.000 A 
ATOM      7  C   UNL     1       6.675   7.443  17.198  0.00  0.00    +0.000 A 
ATOM      8  C   UNL     1       7.825   8.086  17.712  0.00  0.00    +0.000 A 
ATOM      9  C   UNL     1       8.321   7.254  18.683  0.00  0.00    +0.000 A 
ATOM     10  O   UNL     1       7.537   6.154  18.810  0.00  0.00    +0.000 OA
ENDBRANCH   3   6
BRANCH   1  11
ATOM     11  C   UNL     1       2.464   3.286  18.347  0.00  0.00    +0.000 C 
BRANCH  11  12
ATOM     12  N   UNL     1       2.631   2.758  19.723  0.00  0.00    +0.000 NA
ATOM     13  H   UNL     1       2.602   1.740  19.722  0.00  0.00    +0.000 HD
BRANCH  12  14
ATOM     14  S   UNL     1       1.459   3.311  20.764  0.00  0.00    +0.000 S 
ATOM     15  O   UNL     1       1.432   4.745  20.701  0.00  0.00    +0.000 OA
ATOM     16  O   UNL     1       1.518   2.568  21.996  0.00  0.00    +0.000 OA
BRANCH  14  17
ATOM     17  N   UNL     1       0.157   2.743  19.914  0.00  0.00    +0.000 NA
ATOM     18  H   UNL     1       0.432   2.606  18.939  0.00  0.00    +0.000 HD
ATOM     19  H   UNL     1      -0.604   3.420  19.976  0.00  0.00    +0.000 HD
ENDBRANCH  14  17
ENDBRANCH  12  14
ENDBRANCH  11  12
ENDBRANCH   1  11
BRANCH   4  20
ATOM     20  C   UNL     1       6.598   3.924  15.871  0.00  0.00    +0.000 C 
BRANCH  20  21
ATOM     21  C   UNL     1       6.340   4.442  14.477  0.00  0.00    +0.000 C 
ATOM     22  F   UNL     1       6.037   3.490  13.573  0.00  0.00    +0.000 F 
ATOM     23  F   UNL     1       5.315   5.331  14.482  0.00  0.00    +0.000 F 
ATOM     24  F   UNL     1       7.422   5.113  14.011  0.00  0.00    +0.000 F 
ENDBRANCH  20  21
ENDBRANCH   4  20
TORSDOF 7
ENDMDL
MODEL 9
REMARK VINA RESULT:      -6.9      3.574      6.211
REMARK  Name = 
REMARK  7 active torsions:
REMARK  status: ('A' for Active; 'I' for Inactive)
REMARK    1  A    between atoms: N_1  and  S_2
REMARK    2  A    between atoms: S_2  and  N_5
REMARK    3  A    between atoms: N_5  and  C_6
REMARK    4  A    between atoms: C_6  and  C_7
REMARK    5  A    between atoms: C_9  and  C_10
REMARK    6  A    between atoms: N_15  and  C_16
REMARK    7  A    between atoms: C_16  and  C_17
REMARK                            x       y       z     vdW  Elec       q    Type
REMARK                         _______ _______ _______ _____ _____    ______ ____
ROOT
ATOM      1  C   UNL     1       5.876   4.711  18.347  0.00  0.00    +0.000 A 
ATOM      2  C   UNL     1       5.048   3.688  18.863  0.00  0.00    +0.000 A 
ATOM      3  C   UNL     1       3.906   4.321  19.302  0.00  0.00    +0.000 A 
ATOM      4  N   UNL     1       4.082   5.650  19.006  0.00  0.00    +0.000 N 
ATOM      5  N   UNL     1       5.299   5.914  18.476  0.00  0.00    +0.000 NA
ENDROOT
BRANCH   3   6
ATOM      6  C   UNL     1       2.760   3.763  19.942  0.00  0.00    +0.000 A 
ATOM      7  C   UNL     1       2.677   3.188  21.199  0.00  0.00    +0.000 A 
ATOM      8  C   UNL     1       1.335   2.780  21.383  0.00  0.00    +0.000 A 
ATOM      9  C   UNL     1       0.675   3.121  20.229  0.00  0.00    +0.000 A 
ATOM     10  O   UNL     1       1.522   3.730  19.361  0.00  0.00    +0.000 OA
ENDBRANCH   3   6
BRANCH   1  11
ATOM     11  C   UNL     1       7.251   4.555  17.766  0.00  0.00    +0.000 C 
BRANCH  11  12
ATOM     12  N   UNL     1       7.443   5.558  16.691  0.00  0.00    +0.000 NA
ATOM     13  H   UNL     1       6.985   6.435  16.932  0.00  0.00    +0.000 HD
BRANCH  12  14
ATOM     14  S   UNL     1       6.846   5.045  15.227  0.00  0.00    +0.000 S 
ATOM     15  O   UNL     1       6.356   3.704  15.378  0.00  0.00    +0.000 OA
ATOM     16  O   UNL     1       7.736   5.455  14.172  0.00  0.00    +0.000 OA
BRANCH  14  17
ATOM     17  N   UNL     1       5.537   6.058  15.183  0.00  0.00    +0.000 NA
ATOM     18  H   UNL     1       5.762   6.864  14.595  0.00  0.00    +0.000 HD
ATOM     19  H   UNL     1       5.317   6.361  16.132  0.00  0.00    +0.000 HD
ENDBRANCH  14  17
ENDBRANCH  12  14
ENDBRANCH  11  12
ENDBRANCH   1  11
BRANCH   4  20
ATOM     20  C   UNL     1       3.215   6.755  19.347  0.00  0.00    +0.000 C 
BRANCH  20  21
ATOM     21  C   UNL     1       2.454   7.299  18.163  0.00  0.00    +0.000 C 
ATOM     22  F   UNL     1       1.600   8.299  18.458  0.00  0.00    +0.000 F 
ATOM     23  F   UNL     1       3.310   7.768  17.220  0.00  0.00    +0.000 F 
ATOM     24  F   UNL     1       1.734   6.316  17.567  0.00  0.00    +0.000 F 
ENDBRANCH  20  21
ENDBRANCH   4  20
TORSDOF 7
ENDMDL
