MODEL 1
REMARK VINA RESULT:      -7.6      0.000      0.000
REMARK  Name = 
REMARK  5 active torsions:
REMARK  status: ('A' for Active; 'I' for Inactive)
REMARK    1  A    between atoms: C_1  and  O_2
REMARK    2  A    between atoms: O_2  and  C_3
REMARK    3  A    between atoms: N_8  and  C_9
REMARK    4  A    between atoms: C_26  and  O_27
REMARK    5  A    between atoms: O_27  and  C_28
REMARK                            x       y       z     vdW  Elec       q    Type
REMARK                         _______ _______ _______ _____ _____    ______ ____
ROOT
ATOM      1  C   UNL     1       0.983   9.581  19.847  0.00  0.00    +0.000 A 
ATOM      2  C   UNL     1       1.153   8.225  20.058  0.00  0.00    +0.000 A 
ATOM      3  C   UNL     1       2.019   7.461  19.256  0.00  0.00    +0.000 A 
ATOM      4  C   UNL     1       2.178   6.057  19.616  0.00  0.00    +0.000 A 
ATOM      5  O   UNL     1       1.579   5.723  20.631  0.00  0.00    +0.000 OA
ATOM      6  N   UNL     1       2.967   5.204  18.844  0.00  0.00    +0.000 N 
ATOM      7  C   UNL     1       3.731   5.727  17.714  0.00  0.00    +0.000 A 
ATOM      8  C   UNL     1       4.626   4.974  16.875  0.00  0.00    +0.000 A 
ATOM      9  C   UNL     1       5.137   3.635  16.742  0.00  0.00    +0.000 A 
ATOM     10  C   UNL     1       5.996   3.570  15.665  0.00  0.00    +0.000 A 
ATOM     11  N   UNL     1       6.058   4.818  15.127  0.00  0.00    +0.000 N 
ATOM     12  C   UNL     1       5.256   5.664  15.834  0.00  0.00    +0.000 A 
ATOM     13  N   UNL     1       5.151   6.954  15.505  0.00  0.00    +0.000 NA
ATOM     14  C   UNL     1       4.320   7.631  16.311  0.00  0.00    +0.000 A 
ATOM     15  C   UNL     1       3.595   7.123  17.396  0.00  0.00    +0.000 A 
ATOM     16  C   UNL     1       2.713   8.000  18.191  0.00  0.00    +0.000 A 
ATOM     17  C   UNL     1       2.507   9.379  17.960  0.00  0.00    +0.000 A 
ATOM     18  C   UNL     1       1.662  10.167  18.771  0.00  0.00    +0.000 A 
ATOM     19  H   UNL     1       6.607   5.108  14.329  0.00  0.00    +0.000 HD
ENDROOT
BRANCH   6  20
ATOM     20  C   UNL     1       3.017   3.786  19.278  0.00  0.00    +0.000 C 
ATOM     21  C   UNL     1       1.820   2.914  18.848  0.00  0.00    +0.000 C 
ATOM     22  C   UNL     1       0.677   2.806  19.856  0.00  0.00    +0.000 C 
ATOM     23  N   UNL     1       1.127   2.526  21.218  0.00  0.00    +0.000 NA
ATOM     24  C   UNL     1       2.141   3.468  21.694  0.00  0.00    +0.000 C 
ATOM     25  C   UNL     1       3.352   3.571  20.766  0.00  0.00    +0.000 C 
ATOM     26  H   UNL     1       1.490   1.580  21.270  0.00  0.00    +0.000 HD
ENDBRANCH   6  20
BRANCH   1  28
ATOM     27  C   UNL     1       0.118  10.012  22.013  0.00  0.00    +0.000 C 
ATOM     28  O   UNL     1       0.167  10.360  20.627  0.00  0.00    +0.000 OA
ENDBRANCH   1  28
BRANCH  18  29
ATOM     29  O   UNL     1       1.453  11.513  18.586  0.00  0.00    +0.000 OA
ATOM     30  C   UNL     1       2.540  12.283  18.094  0.00  0.00    +0.000 C 
ENDBRANCH  18  29
TORSDOF 3
ENDMDL
MODEL 2
REMARK VINA RESULT:      -7.4      1.653      4.815
REMARK  Name = 
REMARK  5 active torsions:
REMARK  status: ('A' for Active; 'I' for Inactive)
REMARK    1  A    between atoms: C_1  and  O_2
REMARK    2  A    between atoms: O_2  and  C_3
REMARK    3  A    between atoms: N_8  and  C_9
REMARK    4  A    between atoms: C_26  and  O_27
REMARK    5  A    between atoms: O_27  and  C_28
REMARK                            x       y       z     vdW  Elec       q    Type
REMARK                         _______ _______ _______ _____ _____    ______ ____
ROOT
ATOM      1  C   UNL     1       1.981   9.606  18.050  0.00  0.00    +0.000 A 
ATOM      2  C   UNL     1       2.929   8.713  17.586  0.00  0.00    +0.000 A 
ATOM      3  C   UNL     1       3.099   7.450  18.181  0.00  0.00    +0.000 A 
ATOM      4  C   UNL     1       4.075   6.561  17.562  0.00  0.00    +0.000 A 
ATOM      5  O   UNL     1       4.591   7.003  16.543  0.00  0.00    +0.000 OA
ATOM      6  N   UNL     1       4.358   5.312  18.116  0.00  0.00    +0.000 N 
ATOM      7  C   UNL     1       3.607   4.829  19.273  0.00  0.00    +0.000 A 
ATOM      8  C   UNL     1       3.755   3.545  19.903  0.00  0.00    +0.000 A 
ATOM      9  C   UNL     1       4.520   2.334  19.759  0.00  0.00    +0.000 A 
ATOM     10  C   UNL     1       4.172   1.442  20.750  0.00  0.00    +0.000 A 
ATOM     11  N   UNL     1       3.205   2.036  21.501  0.00  0.00    +0.000 N 
ATOM     12  C   UNL     1       2.943   3.280  21.011  0.00  0.00    +0.000 A 
ATOM     13  N   UNL     1       2.020   4.066  21.575  0.00  0.00    +0.000 NA
ATOM     14  C   UNL     1       1.897   5.250  20.958  0.00  0.00    +0.000 A 
ATOM     15  C   UNL     1       2.618   5.703  19.846  0.00  0.00    +0.000 A 
ATOM     16  C   UNL     1       2.369   7.043  19.281  0.00  0.00    +0.000 A 
ATOM     17  C   UNL     1       1.428   7.976  19.770  0.00  0.00    +0.000 A 
ATOM     18  C   UNL     1       1.225   9.238  19.170  0.00  0.00    +0.000 A 
ATOM     19  H   UNL     1       2.731   1.642  22.302  0.00  0.00    +0.000 HD
ENDROOT
BRANCH   6  20
ATOM     20  C   UNL     1       5.403   4.513  17.430  0.00  0.00    +0.000 C 
ATOM     21  C   UNL     1       6.856   4.975  17.661  0.00  0.00    +0.000 C 
ATOM     22  C   UNL     1       7.423   5.941  16.621  0.00  0.00    +0.000 C 
ATOM     23  N   UNL     1       7.167   5.527  15.242  0.00  0.00    +0.000 NA
ATOM     24  C   UNL     1       5.754   5.258  14.975  0.00  0.00    +0.000 C 
ATOM     25  C   UNL     1       5.140   4.240  15.937  0.00  0.00    +0.000 C 
ATOM     26  H   UNL     1       7.718   4.701  15.026  0.00  0.00    +0.000 HD
ENDBRANCH   6  20
BRANCH   1  28
ATOM     27  C   UNL     1       2.548  11.909  18.014  0.00  0.00    +0.000 C 
ATOM     28  O   UNL     1       1.772  10.835  17.477  0.00  0.00    +0.000 OA
ENDBRANCH   1  28
BRANCH  18  29
ATOM     29  O   UNL     1       0.306  10.161  19.609  0.00  0.00    +0.000 OA
ATOM     30  C   UNL     1       0.440  10.636  20.941  0.00  0.00    +0.000 C 
ENDBRANCH  18  29
TORSDOF 3
ENDMDL
MODEL 3
REMARK VINA RESULT:      -7.1      0.850      1.044
REMARK  Name = 
REMARK  5 active torsions:
REMARK  status: ('A' for Active; 'I' for Inactive)
REMARK    1  A    between atoms: C_1  and  O_2
REMARK    2  A    between atoms: O_2  and  C_3
REMARK    3  A    between atoms: N_8  and  C_9
REMARK    4  A    between atoms: C_26  and  O_27
REMARK    5  A    between atoms: O_27  and  C_28
REMARK                            x       y       z     vdW  Elec       q    Type
REMARK                         _______ _______ _______ _____ _____    ______ ____
ROOT
ATOM      1  C   UNL     1       0.901   9.118  20.315  0.00  0.00    +0.000 A 
ATOM      2  C   UNL     1       1.278   7.797  20.470  0.00  0.00    +0.000 A 
ATOM      3  C   UNL     1       2.166   7.177  19.573  0.00  0.00    +0.000 A 
ATOM      4  C   UNL     1       2.553   5.805  19.877  0.00  0.00    +0.000 A 
ATOM      5  O   UNL     1       2.103   5.372  20.931  0.00  0.00    +0.000 OA
ATOM      6  N   UNL     1       3.381   5.086  19.013  0.00  0.00    +0.000 N 
ATOM      7  C   UNL     1       3.956   5.730  17.835  0.00  0.00    +0.000 A 
ATOM      8  C   UNL     1       4.866   5.126  16.899  0.00  0.00    +0.000 A 
ATOM      9  C   UNL     1       5.547   3.877  16.682  0.00  0.00    +0.000 A 
ATOM     10  C   UNL     1       6.304   3.952  15.532  0.00  0.00    +0.000 A 
ATOM     11  N   UNL     1       6.140   5.204  15.027  0.00  0.00    +0.000 N 
ATOM     12  C   UNL     1       5.294   5.915  15.826  0.00  0.00    +0.000 A 
ATOM     13  N   UNL     1       4.979   7.183  15.545  0.00  0.00    +0.000 NA
ATOM     14  C   UNL     1       4.140   7.721  16.441  0.00  0.00    +0.000 A 
ATOM     15  C   UNL     1       3.596   7.098  17.572  0.00  0.00    +0.000 A 
ATOM     16  C   UNL     1       2.676   7.827  18.466  0.00  0.00    +0.000 A 
ATOM     17  C   UNL     1       2.257   9.166  18.295  0.00  0.00    +0.000 A 
ATOM     18  C   UNL     1       1.388   9.812  19.200  0.00  0.00    +0.000 A 
ATOM     19  H   UNL     1       6.566   5.583  14.192  0.00  0.00    +0.000 HD
ENDROOT
BRANCH   6  20
ATOM     20  C   UNL     1       3.669   3.683  19.400  0.00  0.00    +0.000 C 
ATOM     21  C   UNL     1       3.782   2.679  18.234  0.00  0.00    +0.000 C 
ATOM     22  C   UNL     1       2.498   1.934  17.869  0.00  0.00    +0.000 C 
ATOM     23  N   UNL     1       1.793   1.388  19.028  0.00  0.00    +0.000 NA
ATOM     24  C   UNL     1       1.527   2.387  20.063  0.00  0.00    +0.000 C 
ATOM     25  C   UNL     1       2.784   3.123  20.529  0.00  0.00    +0.000 C 
ATOM     26  H   UNL     1       2.328   0.622  19.424  0.00  0.00    +0.000 HD
ENDBRANCH   6  20
BRANCH   1  28
ATOM     27  C   UNL     1       0.129   9.328  22.547  0.00  0.00    +0.000 C 
ATOM     28  O   UNL     1       0.058   9.759  21.186  0.00  0.00    +0.000 OA
ENDBRANCH   1  28
BRANCH  18  29
ATOM     29  O   UNL     1       0.976  11.117  19.074  0.00  0.00    +0.000 OA
ATOM     30  C   UNL     1       1.911  12.052  18.555  0.00  0.00    +0.000 C 
ENDBRANCH  18  29
TORSDOF 3
ENDMDL
MODEL 4
REMARK VINA RESULT:      -6.8      6.797      9.606
REMARK  Name = 
REMARK  5 active torsions:
REMARK  status: ('A' for Active; 'I' for Inactive)
REMARK    1  A    between atoms: C_1  and  O_2
REMARK    2  A    between atoms: O_2  and  C_3
REMARK    3  A    between atoms: N_8  and  C_9
REMARK    4  A    between atoms: C_26  and  O_27
REMARK    5  A    between atoms: O_27  and  C_28
REMARK                            x       y       z     vdW  Elec       q    Type
REMARK                         _______ _______ _______ _____ _____    ______ ____
ROOT
ATOM      1  C   UNL     1      -4.246  13.643  23.536  0.00  0.00    +0.000 A 
ATOM      2  C   UNL     1      -3.111  13.364  22.797  0.00  0.00    +0.000 A 
ATOM      3  C   UNL     1      -3.195  12.890  21.476  0.00  0.00    +0.000 A 
ATOM      4  C   UNL     1      -1.935  12.703  20.766  0.00  0.00    +0.000 A 
ATOM      5  O   UNL     1      -0.942  13.050  21.395  0.00  0.00    +0.000 OA
ATOM      6  N   UNL     1      -1.912  12.179  19.473  0.00  0.00    +0.000 N 
ATOM      7  C   UNL     1      -3.160  11.900  18.767  0.00  0.00    +0.000 A 
ATOM      8  C   UNL     1      -3.280  11.416  17.418  0.00  0.00    +0.000 A 
ATOM      9  C   UNL     1      -2.443  11.054  16.304  0.00  0.00    +0.000 A 
ATOM     10  C   UNL     1      -3.225  10.636  15.249  0.00  0.00    +0.000 A 
ATOM     11  N   UNL     1      -4.522  10.738  15.649  0.00  0.00    +0.000 N 
ATOM     12  C   UNL     1      -4.573  11.202  16.929  0.00  0.00    +0.000 A 
ATOM     13  N   UNL     1      -5.741  11.397  17.549  0.00  0.00    +0.000 NA
ATOM     14  C   UNL     1      -5.596  11.859  18.799  0.00  0.00    +0.000 A 
ATOM     15  C   UNL     1      -4.396  12.129  19.467  0.00  0.00    +0.000 A 
ATOM     16  C   UNL     1      -4.401  12.632  20.855  0.00  0.00    +0.000 A 
ATOM     17  C   UNL     1      -5.555  12.886  21.629  0.00  0.00    +0.000 A 
ATOM     18  C   UNL     1      -5.492  13.386  22.947  0.00  0.00    +0.000 A 
ATOM     19  H   UNL     1      -5.344  10.515  15.104  0.00  0.00    +0.000 HD
ENDROOT
BRANCH   6  20
ATOM     20  C   UNL     1      -0.570  11.988  18.868  0.00  0.00    +0.000 C 
ATOM     21  C   UNL     1       0.400  11.092  19.666  0.00  0.00    +0.000 C 
ATOM     22  C   UNL     1       1.337  11.818  20.631  0.00  0.00    +0.000 C 
ATOM     23  N   UNL     1       1.990  12.984  20.040  0.00  0.00    +0.000 NA
ATOM     24  C   UNL     1       1.048  13.928  19.436  0.00  0.00    +0.000 C 
ATOM     25  C   UNL     1       0.125  13.280  18.403  0.00  0.00    +0.000 C 
ATOM     26  H   UNL     1       2.664  12.683  19.343  0.00  0.00    +0.000 HD
ENDBRANCH   6  20
BRANCH   1  28
ATOM     27  C   UNL     1      -3.027  14.874  25.155  0.00  0.00    +0.000 C 
ATOM     28  O   UNL     1      -4.200  14.130  24.817  0.00  0.00    +0.000 OA
ENDBRANCH   1  28
BRANCH  18  29
ATOM     29  O   UNL     1      -6.593  13.660  23.721  0.00  0.00    +0.000 OA
ATOM     30  C   UNL     1      -7.771  12.904  23.476  0.00  0.00    +0.000 C 
ENDBRANCH  18  29
TORSDOF 3
ENDMDL
MODEL 5
REMARK VINA RESULT:      -6.7      6.527     10.206
REMARK  Name = 
REMARK  5 active torsions:
REMARK  status: ('A' for Active; 'I' for Inactive)
REMARK    1  A    between atoms: C_1  and  O_2
REMARK    2  A    between atoms: O_2  and  C_3
REMARK    3  A    between atoms: N_8  and  C_9
REMARK    4  A    between atoms: C_26  and  O_27
REMARK    5  A    between atoms: O_27  and  C_28
REMARK                            x       y       z     vdW  Elec       q    Type
REMARK                         _______ _______ _______ _____ _____    ______ ____
ROOT
ATOM      1  C   UNL     1       0.293  10.718  20.908  0.00  0.00    +0.000 A 
ATOM      2  C   UNL     1      -0.701  11.509  21.453  0.00  0.00    +0.000 A 
ATOM      3  C   UNL     1      -1.884  11.790  20.746  0.00  0.00    +0.000 A 
ATOM      4  C   UNL     1      -2.896  12.571  21.448  0.00  0.00    +0.000 A 
ATOM      5  O   UNL     1      -2.617  12.837  22.610  0.00  0.00    +0.000 OA
ATOM      6  N   UNL     1      -4.076  12.952  20.808  0.00  0.00    +0.000 N 
ATOM      7  C   UNL     1      -4.364  12.491  19.453  0.00  0.00    +0.000 A 
ATOM      8  C   UNL     1      -5.563  12.759  18.703  0.00  0.00    +0.000 A 
ATOM      9  C   UNL     1      -6.820  13.443  18.854  0.00  0.00    +0.000 A 
ATOM     10  C   UNL     1      -7.558  13.323  17.695  0.00  0.00    +0.000 A 
ATOM     11  N   UNL     1      -6.821  12.577  16.828  0.00  0.00    +0.000 N 
ATOM     12  C   UNL     1      -5.638  12.230  17.410  0.00  0.00    +0.000 A 
ATOM     13  N   UNL     1      -4.739  11.486  16.760  0.00  0.00    +0.000 NA
ATOM     14  C   UNL     1      -3.640  11.244  17.488  0.00  0.00    +0.000 A 
ATOM     15  C   UNL     1      -3.373  11.686  18.790  0.00  0.00    +0.000 A 
ATOM     16  C   UNL     1      -2.106  11.337  19.461  0.00  0.00    +0.000 A 
ATOM     17  C   UNL     1      -1.069  10.559  18.898  0.00  0.00    +0.000 A 
ATOM     18  C   UNL     1       0.113  10.245  19.602  0.00  0.00    +0.000 A 
ATOM     19  H   UNL     1      -7.083  12.301  15.892  0.00  0.00    +0.000 HD
ENDROOT
BRANCH   6  20
ATOM     20  C   UNL     1      -5.011  13.787  21.604  0.00  0.00    +0.000 C 
ATOM     21  C   UNL     1      -4.424  15.099  22.163  0.00  0.00    +0.000 C 
ATOM     22  C   UNL     1      -3.857  15.025  23.580  0.00  0.00    +0.000 C 
ATOM     23  N   UNL     1      -4.740  14.344  24.526  0.00  0.00    +0.000 NA
ATOM     24  C   UNL     1      -5.156  13.017  24.072  0.00  0.00    +0.000 C 
ATOM     25  C   UNL     1      -5.802  13.028  22.686  0.00  0.00    +0.000 C 
ATOM     26  H   UNL     1      -5.560  14.917  24.700  0.00  0.00    +0.000 HD
ENDBRANCH   6  20
BRANCH   1  28
ATOM     27  C   UNL     1       1.380   9.245  22.417  0.00  0.00    +0.000 C 
ATOM     28  O   UNL     1       1.447  10.403  21.581  0.00  0.00    +0.000 OA
ENDBRANCH   1  28
BRANCH  18  29
ATOM     29  O   UNL     1       1.133   9.477  19.092  0.00  0.00    +0.000 OA
ATOM     30  C   UNL     1       1.842   9.990  17.973  0.00  0.00    +0.000 C 
ENDBRANCH  18  29
TORSDOF 3
ENDMDL
MODEL 6
REMARK VINA RESULT:      -6.7      6.536      9.427
REMARK  Name = 
REMARK  5 active torsions:
REMARK  status: ('A' for Active; 'I' for Inactive)
REMARK    1  A    between atoms: C_1  and  O_2
REMARK    2  A    between atoms: O_2  and  C_3
REMARK    3  A    between atoms: N_8  and  C_9
REMARK    4  A    between atoms: C_26  and  O_27
REMARK    5  A    between atoms: O_27  and  C_28
REMARK                            x       y       z     vdW  Elec       q    Type
REMARK                         _______ _______ _______ _____ _____    ______ ____
ROOT
ATOM      1  C   UNL     1      -4.929  14.171  22.970  0.00  0.00    +0.000 A 
ATOM      2  C   UNL     1      -3.758  13.585  22.525  0.00  0.00    +0.000 A 
ATOM      3  C   UNL     1      -3.668  13.006  21.247  0.00  0.00    +0.000 A 
ATOM      4  C   UNL     1      -2.364  12.485  20.854  0.00  0.00    +0.000 A 
ATOM      5  O   UNL     1      -1.473  12.678  21.672  0.00  0.00    +0.000 OA
ATOM      6  N   UNL     1      -2.190  11.838  19.630  0.00  0.00    +0.000 N 
ATOM      7  C   UNL     1      -3.292  11.756  18.675  0.00  0.00    +0.000 A 
ATOM      8  C   UNL     1      -3.233  11.173  17.361  0.00  0.00    +0.000 A 
ATOM      9  C   UNL     1      -2.286  10.530  16.489  0.00  0.00    +0.000 A 
ATOM     10  C   UNL     1      -2.904  10.180  15.307  0.00  0.00    +0.000 A 
ATOM     11  N   UNL     1      -4.197  10.593  15.395  0.00  0.00    +0.000 N 
ATOM     12  C   UNL     1      -4.409  11.187  16.603  0.00  0.00    +0.000 A 
ATOM     13  N   UNL     1      -5.605  11.686  16.929  0.00  0.00    +0.000 NA
ATOM     14  C   UNL     1      -5.624  12.233  18.153  0.00  0.00    +0.000 A 
ATOM     15  C   UNL     1      -4.562  12.311  19.062  0.00  0.00    +0.000 A 
ATOM     16  C   UNL     1      -4.743  12.945  20.382  0.00  0.00    +0.000 A 
ATOM     17  C   UNL     1      -5.945  13.514  20.859  0.00  0.00    +0.000 A 
ATOM     18  C   UNL     1      -6.048  14.123  22.128  0.00  0.00    +0.000 A 
ATOM     19  H   UNL     1      -4.915  10.493  14.690  0.00  0.00    +0.000 HD
ENDROOT
BRANCH   6  20
ATOM     20  C   UNL     1      -0.831  11.307  19.358  0.00  0.00    +0.000 C 
ATOM     21  C   UNL     1      -0.384  10.130  20.249  0.00  0.00    +0.000 C 
ATOM     22  C   UNL     1       0.408  10.505  21.501  0.00  0.00    +0.000 C 
ATOM     23  N   UNL     1       1.477  11.469  21.248  0.00  0.00    +0.000 NA
ATOM     24  C   UNL     1       1.014  12.672  20.556  0.00  0.00    +0.000 C 
ATOM     25  C   UNL     1       0.275  12.372  19.251  0.00  0.00    +0.000 C 
ATOM     26  H   UNL     1       2.214  11.027  20.706  0.00  0.00    +0.000 HD
ENDBRANCH   6  20
BRANCH   1  28
ATOM     27  C   UNL     1      -4.093  15.798  24.479  0.00  0.00    +0.000 C 
ATOM     28  O   UNL     1      -5.043  14.767  24.200  0.00  0.00    +0.000 OA
ENDBRANCH   1  28
BRANCH  18  29
ATOM     29  O   UNL     1      -7.195  14.701  22.615  0.00  0.00    +0.000 OA
ATOM     30  C   UNL     1      -7.760  15.767  21.865  0.00  0.00    +0.000 C 
ENDBRANCH  18  29
TORSDOF 3
ENDMDL
MODEL 7
REMARK VINA RESULT:      -6.6      1.666      4.540
REMARK  Name = 
REMARK  5 active torsions:
REMARK  status: ('A' for Active; 'I' for Inactive)
REMARK    1  A    between atoms: C_1  and  O_2
REMARK    2  A    between atoms: O_2  and  C_3
REMARK    3  A    between atoms: N_8  and  C_9
REMARK    4  A    between atoms: C_26  and  O_27
REMARK    5  A    between atoms: O_27  and  C_28
REMARK                            x       y       z     vdW  Elec       q    Type
REMARK                         _______ _______ _______ _____ _____    ______ ____
ROOT
ATOM      1  C   UNL     1       1.087   9.577  20.212  0.00  0.00    +0.000 A 
ATOM      2  C   UNL     1       1.976   9.060  19.289  0.00  0.00    +0.000 A 
ATOM      3  C   UNL     1       2.202   7.676  19.184  0.00  0.00    +0.000 A 
ATOM      4  C   UNL     1       3.103   7.237  18.125  0.00  0.00    +0.000 A 
ATOM      5  O   UNL     1       3.510   8.137  17.400  0.00  0.00    +0.000 OA
ATOM      6  N   UNL     1       3.436   5.890  17.981  0.00  0.00    +0.000 N 
ATOM      7  C   UNL     1       2.810   4.879  18.828  0.00  0.00    +0.000 A 
ATOM      8  C   UNL     1       3.017   3.458  18.747  0.00  0.00    +0.000 A 
ATOM      9  C   UNL     1       3.757   2.501  17.967  0.00  0.00    +0.000 A 
ATOM     10  C   UNL     1       3.510   1.228  18.435  0.00  0.00    +0.000 A 
ATOM     11  N   UNL     1       2.631   1.345  19.466  0.00  0.00    +0.000 N 
ATOM     12  C   UNL     1       2.325   2.658  19.663  0.00  0.00    +0.000 A 
ATOM     13  N   UNL     1       1.471   3.035  20.619  0.00  0.00    +0.000 NA
ATOM     14  C   UNL     1       1.289   4.362  20.662  0.00  0.00    +0.000 A 
ATOM     15  C   UNL     1       1.891   5.325  19.842  0.00  0.00    +0.000 A 
ATOM     16  C   UNL     1       1.591   6.759  20.017  0.00  0.00    +0.000 A 
ATOM     17  C   UNL     1       0.710   7.300  20.981  0.00  0.00    +0.000 A 
ATOM     18  C   UNL     1       0.452   8.683  21.083  0.00  0.00    +0.000 A 
ATOM     19  H   UNL     1       2.243   0.594  20.020  0.00  0.00    +0.000 HD
ENDROOT
BRANCH   6  20
ATOM     20  C   UNL     1       4.400   5.567  16.899  0.00  0.00    +0.000 C 
ATOM     21  C   UNL     1       5.355   4.390  17.186  0.00  0.00    +0.000 C 
ATOM     22  C   UNL     1       6.710   4.763  17.787  0.00  0.00    +0.000 C 
ATOM     23  N   UNL     1       7.364   5.877  17.102  0.00  0.00    +0.000 NA
ATOM     24  C   UNL     1       6.513   7.061  16.987  0.00  0.00    +0.000 C 
ATOM     25  C   UNL     1       5.165   6.774  16.325  0.00  0.00    +0.000 C 
ATOM     26  H   UNL     1       7.663   5.581  16.178  0.00  0.00    +0.000 HD
ENDBRANCH   6  20
BRANCH   1  28
ATOM     27  C   UNL     1       0.603  11.611  19.091  0.00  0.00    +0.000 C 
ATOM     28  O   UNL     1       0.825  10.919  20.323  0.00  0.00    +0.000 OA
ENDBRANCH   1  28
BRANCH  18  29
ATOM     29  O   UNL     1      -0.412   9.240  21.996  0.00  0.00    +0.000 OA
ATOM     30  C   UNL     1       0.074   9.445  23.316  0.00  0.00    +0.000 C 
ENDBRANCH  18  29
TORSDOF 3
ENDMDL
MODEL 8
REMARK VINA RESULT:      -6.5      6.716     10.855
REMARK  Name = 
REMARK  5 active torsions:
REMARK  status: ('A' for Active; 'I' for Inactive)
REMARK    1  A    between atoms: C_1  and  O_2
REMARK    2  A    between atoms: O_2  and  C_3
REMARK    3  A    between atoms: N_8  and  C_9
REMARK    4  A    between atoms: C_26  and  O_27
REMARK    5  A    between atoms: O_27  and  C_28
REMARK                            x       y       z     vdW  Elec       q    Type
REMARK                         _______ _______ _______ _____ _____    ______ ____
ROOT
ATOM      1  C   UNL     1      -2.141  10.437  17.606  0.00  0.00    +0.000 A 
ATOM      2  C   UNL     1      -3.197  11.132  18.166  0.00  0.00    +0.000 A 
ATOM      3  C   UNL     1      -3.043  11.868  19.354  0.00  0.00    +0.000 A 
ATOM      4  C   UNL     1      -4.203  12.624  19.811  0.00  0.00    +0.000 A 
ATOM      5  O   UNL     1      -5.167  12.579  19.058  0.00  0.00    +0.000 OA
ATOM      6  N   UNL     1      -4.167  13.335  21.011  0.00  0.00    +0.000 N 
ATOM      7  C   UNL     1      -2.930  13.416  21.785  0.00  0.00    +0.000 A 
ATOM      8  C   UNL     1      -2.739  14.160  23.001  0.00  0.00    +0.000 A 
ATOM      9  C   UNL     1      -3.475  15.025  23.885  0.00  0.00    +0.000 A 
ATOM     10  C   UNL     1      -2.671  15.413  24.935  0.00  0.00    +0.000 A 
ATOM     11  N   UNL     1      -1.453  14.841  24.737  0.00  0.00    +0.000 N 
ATOM     12  C   UNL     1      -1.473  14.098  23.595  0.00  0.00    +0.000 A 
ATOM     13  N   UNL     1      -0.388  13.440  23.177  0.00  0.00    +0.000 NA
ATOM     14  C   UNL     1      -0.594  12.767  22.036  0.00  0.00    +0.000 A 
ATOM     15  C   UNL     1      -1.782  12.698  21.298  0.00  0.00    +0.000 A 
ATOM     16  C   UNL     1      -1.853  11.906  20.054  0.00  0.00    +0.000 A 
ATOM     17  C   UNL     1      -0.790  11.164  19.495  0.00  0.00    +0.000 A 
ATOM     18  C   UNL     1      -0.918  10.441  18.290  0.00  0.00    +0.000 A 
ATOM     19  H   UNL     1      -0.636  14.934  25.326  0.00  0.00    +0.000 HD
ENDROOT
BRANCH   6  20
ATOM     20  C   UNL     1      -5.421  14.027  21.400  0.00  0.00    +0.000 C 
ATOM     21  C   UNL     1      -6.633  13.112  21.669  0.00  0.00    +0.000 C 
ATOM     22  C   UNL     1      -7.562  12.869  20.481  0.00  0.00    +0.000 C 
ATOM     23  N   UNL     1      -7.916  14.090  19.760  0.00  0.00    +0.000 NA
ATOM     24  C   UNL     1      -6.752  14.874  19.347  0.00  0.00    +0.000 C 
ATOM     25  C   UNL     1      -5.813  15.217  20.505  0.00  0.00    +0.000 C 
ATOM     26  H   UNL     1      -8.525  14.663  20.338  0.00  0.00    +0.000 HD
ENDBRANCH   6  20
BRANCH   1  28
ATOM     27  C   UNL     1      -2.793  10.451  15.326  0.00  0.00    +0.000 C 
ATOM     28  O   UNL     1      -2.251   9.731  16.435  0.00  0.00    +0.000 OA
ENDBRANCH   1  28
BRANCH  18  29
ATOM     29  O   UNL     1       0.100   9.724  17.709  0.00  0.00    +0.000 OA
ATOM     30  C   UNL     1       1.407   9.896  18.238  0.00  0.00    +0.000 C 
ENDBRANCH  18  29
TORSDOF 3
ENDMDL
MODEL 9
REMARK VINA RESULT:      -6.5      6.828     10.779
REMARK  Name = 
REMARK  5 active torsions:
REMARK  status: ('A' for Active; 'I' for Inactive)
REMARK    1  A    between atoms: C_1  and  O_2
REMARK    2  A    between atoms: O_2  and  C_3
REMARK    3  A    between atoms: N_8  and  C_9
REMARK    4  A    between atoms: C_26  and  O_27
REMARK    5  A    between atoms: O_27  and  C_28
REMARK                            x       y       z     vdW  Elec       q    Type
REMARK                         _______ _______ _______ _____ _____    ______ ____
ROOT
ATOM      1  C   UNL     1      -4.686  11.701  17.511  0.00  0.00    +0.000 A 
ATOM      2  C   UNL     1      -3.575  11.621  18.330  0.00  0.00    +0.000 A 
ATOM      3  C   UNL     1      -3.533  12.276  19.573  0.00  0.00    +0.000 A 
ATOM      4  C   UNL     1      -2.342  12.060  20.387  0.00  0.00    +0.000 A 
ATOM      5  O   UNL     1      -1.538  11.269  19.910  0.00  0.00    +0.000 OA
ATOM      6  N   UNL     1      -2.181  12.716  21.608  0.00  0.00    +0.000 N 
ATOM      7  C   UNL     1      -3.250  13.557  22.142  0.00  0.00    +0.000 A 
ATOM      8  C   UNL     1      -3.239  14.239  23.408  0.00  0.00    +0.000 A 
ATOM      9  C   UNL     1      -2.387  14.405  24.557  0.00  0.00    +0.000 A 
ATOM     10  C   UNL     1      -2.993  15.242  25.469  0.00  0.00    +0.000 A 
ATOM     11  N   UNL     1      -4.199  15.594  24.949  0.00  0.00    +0.000 N 
ATOM     12  C   UNL     1      -4.363  15.006  23.730  0.00  0.00    +0.000 A 
ATOM     13  N   UNL     1      -5.477  15.192  23.016  0.00  0.00    +0.000 NA
ATOM     14  C   UNL     1      -5.463  14.535  21.848  0.00  0.00    +0.000 A 
ATOM     15  C   UNL     1      -4.435  13.726  21.345  0.00  0.00    +0.000 A 
ATOM     16  C   UNL     1      -4.567  13.069  20.030  0.00  0.00    +0.000 A 
ATOM     17  C   UNL     1      -5.684  13.174  19.171  0.00  0.00    +0.000 A 
ATOM     18  C   UNL     1      -5.755  12.503  17.931  0.00  0.00    +0.000 A 
ATOM     19  H   UNL     1      -4.892  16.195  25.374  0.00  0.00    +0.000 HD
ENDROOT
BRANCH   6  20
ATOM     20  C   UNL     1      -0.908  12.457  22.327  0.00  0.00    +0.000 C 
ATOM     21  C   UNL     1       0.380  12.760  21.534  0.00  0.00    +0.000 C 
ATOM     22  C   UNL     1       0.989  11.581  20.775  0.00  0.00    +0.000 C 
ATOM     23  N   UNL     1       1.083  10.361  21.575  0.00  0.00    +0.000 NA
ATOM     24  C   UNL     1      -0.189   9.974  22.186  0.00  0.00    +0.000 C 
ATOM     25  C   UNL     1      -0.820  11.087  23.023  0.00  0.00    +0.000 C 
ATOM     26  H   UNL     1       1.786  10.480  22.298  0.00  0.00    +0.000 HD
ENDBRANCH   6  20
BRANCH   1  28
ATOM     27  C   UNL     1      -3.523  10.758  15.671  0.00  0.00    +0.000 C 
ATOM     28  O   UNL     1      -4.770  11.054  16.304  0.00  0.00    +0.000 OA
ENDBRANCH   1  28
BRANCH  18  29
ATOM     29  O   UNL     1      -6.832  12.568  17.080  0.00  0.00    +0.000 OA
ATOM     30  C   UNL     1      -7.295  13.859  16.709  0.00  0.00    +0.000 C 
ENDBRANCH  18  29
TORSDOF 3
ENDMDL
