MODEL 1
REMARK VINA RESULT:      -7.2      0.000      0.000
REMARK  Name = 
REMARK  10 active torsions:
REMARK  status: ('A' for Active; 'I' for Inactive)
REMARK    1  A    between atoms: C_1  and  C_2
REMARK    2  A    between atoms: C_2  and  C_3
REMARK    3  A    between atoms: C_5  and  C_6
REMARK    4  A    between atoms: N_8  and  C_9
REMARK    5  A    between atoms: C_9  and  C_10
REMARK    6  A    between atoms: C_10  and  N_11
REMARK    7  A    between atoms: N_11  and  C_12
REMARK    8  A    between atoms: C_12  and  C_13
REMARK    9  A    between atoms: C_20  and  C_21
REMARK   10  A    between atoms: C_20  and  C_22
REMARK                            x       y       z     vdW  Elec       q    Type
REMARK                         _______ _______ _______ _____ _____    ______ ____
ROOT
ATOM      1  C   UNL     1       5.377   4.060  19.063  0.00  0.00    +0.000 C 
ATOM      2  O   UNL     1       5.487   4.733  20.080  0.00  0.00    +0.000 OA
ATOM      3  N   UNL     1       4.932   2.759  19.050  0.00  0.00    +0.000 N 
ATOM      4  H   UNL     1       4.942   2.235  18.187  0.00  0.00    +0.000 HD
ENDROOT
BRANCH   1   9
ATOM      5  C   UNL     1       5.624   4.306  14.262  0.00  0.00    +0.000 C 
ATOM      6  C   UNL     1       5.693   5.226  15.488  0.00  0.00    +0.000 C 
ATOM      7  C   UNL     1       5.094   6.591  15.138  0.00  0.00    +0.000 C 
ATOM      8  C   UNL     1       4.987   4.607  16.649  0.00  0.00    +0.000 C 
ATOM      9  C   UNL     1       5.770   4.582  17.734  0.00  0.00    +0.000 C 
ATOM     10  C   UNL     1       7.085   5.251  17.450  0.00  0.00    +0.000 C 
ATOM     11  C   UNL     1       8.313   4.436  17.880  0.00  0.00    +0.000 C 
ATOM     12  C   UNL     1       7.178   6.660  18.057  0.00  0.00    +0.000 C 
ATOM     13  N   UNL     1       7.093   5.392  15.952  0.00  0.00    +0.000 NA
ATOM     14  H   UNL     1       7.655   4.632  15.567  0.00  0.00    +0.000 HD
ENDBRANCH   1   9
BRANCH   3  15
ATOM     15  C   UNL     1       4.491   2.067  20.245  0.00  0.00    +0.000 C 
BRANCH  15  16
ATOM     16  C   UNL     1       3.265   2.730  20.894  0.00  0.00    +0.000 C 
BRANCH  16  17
ATOM     17  N   UNL     1       2.034   2.150  20.353  0.00  0.00    +0.000 NA
ATOM     18  H   UNL     1       1.717   1.401  20.972  0.00  0.00    +0.000 HD
BRANCH  17  19
ATOM     19  C   UNL     1       0.963   3.142  20.252  0.00  0.00    +0.000 C 
BRANCH  19  20
ATOM     20  C   UNL     1       1.486   4.428  19.647  0.00  0.00    +0.000 A 
ATOM     21  C   UNL     1       1.671   4.549  18.261  0.00  0.00    +0.000 A 
ATOM     22  C   UNL     1       2.154   5.739  17.710  0.00  0.00    +0.000 A 
ATOM     23  C   UNL     1       2.457   6.816  18.541  0.00  0.00    +0.000 A 
ATOM     24 CL   UNL     1       3.050   8.280  17.860  0.00  0.00    +0.000 Cl
ATOM     25  C   UNL     1       2.280   6.714  19.918  0.00  0.00    +0.000 A 
ATOM     26  C   UNL     1       1.794   5.525  20.468  0.00  0.00    +0.000 A 
ENDBRANCH  19  20
ENDBRANCH  17  19
ENDBRANCH  16  17
ENDBRANCH  15  16
ENDBRANCH   3  15
TORSDOF 6
ENDMDL
MODEL 2
REMARK VINA RESULT:      -7.0      5.380      7.837
REMARK  Name = 
REMARK  10 active torsions:
REMARK  status: ('A' for Active; 'I' for Inactive)
REMARK    1  A    between atoms: C_1  and  C_2
REMARK    2  A    between atoms: C_2  and  C_3
REMARK    3  A    between atoms: C_5  and  C_6
REMARK    4  A    between atoms: N_8  and  C_9
REMARK    5  A    between atoms: C_9  and  C_10
REMARK    6  A    between atoms: C_10  and  N_11
REMARK    7  A    between atoms: N_11  and  C_12
REMARK    8  A    between atoms: C_12  and  C_13
REMARK    9  A    between atoms: C_20  and  C_21
REMARK   10  A    between atoms: C_20  and  C_22
REMARK                            x       y       z     vdW  Elec       q    Type
REMARK                         _______ _______ _______ _____ _____    ______ ____
ROOT
ATOM      1  C   UNL     1       0.537  10.230  18.963  0.00  0.00    +0.000 C 
ATOM      2  O   UNL     1       1.643  10.547  18.545  0.00  0.00    +0.000 OA
ATOM      3  N   UNL     1       0.333   9.383  20.027  0.00  0.00    +0.000 N 
ATOM      4  H   UNL     1      -0.605   9.099  20.268  0.00  0.00    +0.000 HD
ENDROOT
BRANCH   1   9
ATOM      5  C   UNL     1      -2.788  10.715  15.516  0.00  0.00    +0.000 C 
ATOM      6  C   UNL     1      -2.671  10.749  17.045  0.00  0.00    +0.000 C 
ATOM      7  C   UNL     1      -3.960  10.204  17.669  0.00  0.00    +0.000 C 
ATOM      8  C   UNL     1      -1.480   9.972  17.499  0.00  0.00    +0.000 C 
ATOM      9  C   UNL     1      -0.708  10.701  18.313  0.00  0.00    +0.000 C 
ATOM     10  C   UNL     1      -1.330  12.045  18.565  0.00  0.00    +0.000 C 
ATOM     11  C   UNL     1      -0.370  13.229  18.374  0.00  0.00    +0.000 C 
ATOM     12  C   UNL     1      -1.986  12.147  19.950  0.00  0.00    +0.000 C 
ATOM     13  N   UNL     1      -2.419  12.129  17.530  0.00  0.00    +0.000 NA
ATOM     14  H   UNL     1      -2.071  12.688  16.751  0.00  0.00    +0.000 HD
ENDBRANCH   1   9
BRANCH   3  15
ATOM     15  C   UNL     1       1.421   8.820  20.803  0.00  0.00    +0.000 C 
BRANCH  15  16
ATOM     16  C   UNL     1       1.383   7.283  20.847  0.00  0.00    +0.000 C 
BRANCH  16  17
ATOM     17  N   UNL     1       2.524   6.730  20.115  0.00  0.00    +0.000 NA
ATOM     18  H   UNL     1       2.439   5.713  20.081  0.00  0.00    +0.000 HD
BRANCH  17  19
ATOM     19  C   UNL     1       2.582   7.229  18.740  0.00  0.00    +0.000 C 
BRANCH  19  20
ATOM     20  C   UNL     1       3.445   6.327  17.883  0.00  0.00    +0.000 A 
ATOM     21  C   UNL     1       3.224   4.941  17.844  0.00  0.00    +0.000 A 
ATOM     22  C   UNL     1       4.025   4.115  17.052  0.00  0.00    +0.000 A 
ATOM     23  C   UNL     1       5.055   4.669  16.293  0.00  0.00    +0.000 A 
ATOM     24 CL   UNL     1       6.040   3.650  15.318  0.00  0.00    +0.000 Cl
ATOM     25  C   UNL     1       5.291   6.040  16.320  0.00  0.00    +0.000 A 
ATOM     26  C   UNL     1       4.487   6.866  17.110  0.00  0.00    +0.000 A 
ENDBRANCH  19  20
ENDBRANCH  17  19
ENDBRANCH  16  17
ENDBRANCH  15  16
ENDBRANCH   3  15
TORSDOF 6
ENDMDL
MODEL 3
REMARK VINA RESULT:      -7.0      5.047      6.911
REMARK  Name = 
REMARK  10 active torsions:
REMARK  status: ('A' for Active; 'I' for Inactive)
REMARK    1  A    between atoms: C_1  and  C_2
REMARK    2  A    between atoms: C_2  and  C_3
REMARK    3  A    between atoms: C_5  and  C_6
REMARK    4  A    between atoms: N_8  and  C_9
REMARK    5  A    between atoms: C_9  and  C_10
REMARK    6  A    between atoms: C_10  and  N_11
REMARK    7  A    between atoms: N_11  and  C_12
REMARK    8  A    between atoms: C_12  and  C_13
REMARK    9  A    between atoms: C_20  and  C_21
REMARK   10  A    between atoms: C_20  and  C_22
REMARK                            x       y       z     vdW  Elec       q    Type
REMARK                         _______ _______ _______ _____ _____    ______ ____
ROOT
ATOM      1  C   UNL     1       2.106   7.126  19.933  0.00  0.00    +0.000 C 
ATOM      2  O   UNL     1       2.444   7.811  18.976  0.00  0.00    +0.000 OA
ATOM      3  N   UNL     1       1.608   7.641  21.107  0.00  0.00    +0.000 N 
ATOM      4  H   UNL     1       1.425   7.026  21.886  0.00  0.00    +0.000 HD
ENDROOT
BRANCH   1   9
ATOM      5  C   UNL     1       1.976   2.627  21.639  0.00  0.00    +0.000 C 
ATOM      6  C   UNL     1       1.861   3.379  20.307  0.00  0.00    +0.000 C 
ATOM      7  C   UNL     1       0.882   2.643  19.387  0.00  0.00    +0.000 C 
ATOM      8  C   UNL     1       1.430   4.790  20.537  0.00  0.00    +0.000 C 
ATOM      9  C   UNL     1       2.254   5.653  19.931  0.00  0.00    +0.000 C 
ATOM     10  C   UNL     1       3.309   4.916  19.154  0.00  0.00    +0.000 C 
ATOM     11  C   UNL     1       4.740   5.408  19.412  0.00  0.00    +0.000 C 
ATOM     12  C   UNL     1       3.041   4.915  17.641  0.00  0.00    +0.000 C 
ATOM     13  N   UNL     1       3.184   3.499  19.646  0.00  0.00    +0.000 NA
ATOM     14  H   UNL     1       3.911   3.343  20.345  0.00  0.00    +0.000 HD
ENDBRANCH   1   9
BRANCH   3  15
ATOM     15  C   UNL     1       1.380   9.059  21.308  0.00  0.00    +0.000 C 
BRANCH  15  16
ATOM     16  C   UNL     1       0.044   9.533  20.712  0.00  0.00    +0.000 C 
BRANCH  16  17
ATOM     17  N   UNL     1       0.214   9.860  19.294  0.00  0.00    +0.000 NA
ATOM     18  H   UNL     1      -0.318   9.195  18.731  0.00  0.00    +0.000 HD
BRANCH  17  19
ATOM     19  C   UNL     1      -0.269  11.206  18.985  0.00  0.00    +0.000 C 
BRANCH  19  20
ATOM     20  C   UNL     1      -1.761  11.189  18.723  0.00  0.00    +0.000 A 
ATOM     21  C   UNL     1      -2.615  12.104  19.359  0.00  0.00    +0.000 A 
ATOM     22  C   UNL     1      -3.991  12.081  19.112  0.00  0.00    +0.000 A 
ATOM     23  C   UNL     1      -4.522  11.142  18.230  0.00  0.00    +0.000 A 
ATOM     24 CL   UNL     1      -6.215  11.117  17.928  0.00  0.00    +0.000 Cl
ATOM     25  C   UNL     1      -3.691  10.227  17.591  0.00  0.00    +0.000 A 
ATOM     26  C   UNL     1      -2.315  10.252  17.835  0.00  0.00    +0.000 A 
ENDBRANCH  19  20
ENDBRANCH  17  19
ENDBRANCH  16  17
ENDBRANCH  15  16
ENDBRANCH   3  15
TORSDOF 6
ENDMDL
MODEL 4
REMARK VINA RESULT:      -6.9      4.591      5.707
REMARK  Name = 
REMARK  10 active torsions:
REMARK  status: ('A' for Active; 'I' for Inactive)
REMARK    1  A    between atoms: C_1  and  C_2
REMARK    2  A    between atoms: C_2  and  C_3
REMARK    3  A    between atoms: C_5  and  C_6
REMARK    4  A    between atoms: N_8  and  C_9
REMARK    5  A    between atoms: C_9  and  C_10
REMARK    6  A    between atoms: C_10  and  N_11
REMARK    7  A    between atoms: N_11  and  C_12
REMARK    8  A    between atoms: C_12  and  C_13
REMARK    9  A    between atoms: C_20  and  C_21
REMARK   10  A    between atoms: C_20  and  C_22
REMARK                            x       y       z     vdW  Elec       q    Type
REMARK                         _______ _______ _______ _____ _____    ______ ____
ROOT
ATOM      1  C   UNL     1       2.881   5.947  18.072  0.00  0.00    +0.000 C 
ATOM      2  O   UNL     1       1.878   5.453  18.571  0.00  0.00    +0.000 OA
ATOM      3  N   UNL     1       3.091   7.301  17.954  0.00  0.00    +0.000 N 
ATOM      4  H   UNL     1       3.903   7.640  17.460  0.00  0.00    +0.000 HD
ENDROOT
BRANCH   1   9
ATOM      5  C   UNL     1       6.049   4.396  14.797  0.00  0.00    +0.000 C 
ATOM      6  C   UNL     1       5.868   4.449  16.319  0.00  0.00    +0.000 C 
ATOM      7  C   UNL     1       7.235   4.615  16.992  0.00  0.00    +0.000 C 
ATOM      8  C   UNL     1       4.940   5.555  16.699  0.00  0.00    +0.000 C 
ATOM      9  C   UNL     1       3.957   5.112  17.492  0.00  0.00    +0.000 C 
ATOM     10  C   UNL     1       4.148   3.653  17.801  0.00  0.00    +0.000 C 
ATOM     11  C   UNL     1       2.892   2.795  17.590  0.00  0.00    +0.000 C 
ATOM     12  C   UNL     1       4.691   3.412  19.217  0.00  0.00    +0.000 C 
ATOM     13  N   UNL     1       5.204   3.220  16.821  0.00  0.00    +0.000 NA
ATOM     14  H   UNL     1       4.738   2.761  16.038  0.00  0.00    +0.000 HD
ENDBRANCH   1   9
BRANCH   3  15
ATOM     15  C   UNL     1       2.161   8.288  18.466  0.00  0.00    +0.000 C 
BRANCH  15  16
ATOM     16  C   UNL     1       2.192   9.601  17.666  0.00  0.00    +0.000 C 
BRANCH  16  17
ATOM     17  N   UNL     1       1.287  10.581  18.273  0.00  0.00    +0.000 NA
ATOM     18  H   UNL     1       0.884  11.164  17.538  0.00  0.00    +0.000 HD
BRANCH  17  19
ATOM     19  C   UNL     1       0.190   9.935  18.995  0.00  0.00    +0.000 C 
BRANCH  19  20
ATOM     20  C   UNL     1      -1.147  10.414  18.469  0.00  0.00    +0.000 A 
ATOM     21  C   UNL     1      -1.677   9.903  17.275  0.00  0.00    +0.000 A 
ATOM     22  C   UNL     1      -2.912  10.350  16.796  0.00  0.00    +0.000 A 
ATOM     23  C   UNL     1      -3.624  11.314  17.508  0.00  0.00    +0.000 A 
ATOM     24 CL   UNL     1      -5.143  11.863  16.918  0.00  0.00    +0.000 Cl
ATOM     25  C   UNL     1      -3.113  11.833  18.694  0.00  0.00    +0.000 A 
ATOM     26  C   UNL     1      -1.880  11.383  19.174  0.00  0.00    +0.000 A 
ENDBRANCH  19  20
ENDBRANCH  17  19
ENDBRANCH  16  17
ENDBRANCH  15  16
ENDBRANCH   3  15
TORSDOF 6
ENDMDL
MODEL 5
REMARK VINA RESULT:      -6.8      0.437      1.095
REMARK  Name = 
REMARK  10 active torsions:
REMARK  status: ('A' for Active; 'I' for Inactive)
REMARK    1  A    between atoms: C_1  and  C_2
REMARK    2  A    between atoms: C_2  and  C_3
REMARK    3  A    between atoms: C_5  and  C_6
REMARK    4  A    between atoms: N_8  and  C_9
REMARK    5  A    between atoms: C_9  and  C_10
REMARK    6  A    between atoms: C_10  and  N_11
REMARK    7  A    between atoms: N_11  and  C_12
REMARK    8  A    between atoms: C_12  and  C_13
REMARK    9  A    between atoms: C_20  and  C_21
REMARK   10  A    between atoms: C_20  and  C_22
REMARK                            x       y       z     vdW  Elec       q    Type
REMARK                         _______ _______ _______ _____ _____    ______ ____
ROOT
ATOM      1  C   UNL     1       5.149   3.721  18.615  0.00  0.00    +0.000 C 
ATOM      2  O   UNL     1       5.363   4.152  19.741  0.00  0.00    +0.000 OA
ATOM      3  N   UNL     1       4.483   2.546  18.357  0.00  0.00    +0.000 N 
ATOM      4  H   UNL     1       4.412   2.208  17.409  0.00  0.00    +0.000 HD
ENDROOT
BRANCH   1   9
ATOM      5  C   UNL     1       5.900   4.536  13.931  0.00  0.00    +0.000 C 
ATOM      6  C   UNL     1       5.764   5.310  15.248  0.00  0.00    +0.000 C 
ATOM      7  C   UNL     1       5.103   6.666  14.978  0.00  0.00    +0.000 C 
ATOM      8  C   UNL     1       4.985   4.517  16.245  0.00  0.00    +0.000 C 
ATOM      9  C   UNL     1       5.644   4.417  17.405  0.00  0.00    +0.000 C 
ATOM     10  C   UNL     1       6.927   5.198  17.351  0.00  0.00    +0.000 C 
ATOM     11  C   UNL     1       8.159   4.418  17.831  0.00  0.00    +0.000 C 
ATOM     12  C   UNL     1       6.845   6.529  18.112  0.00  0.00    +0.000 C 
ATOM     13  N   UNL     1       7.088   5.511  15.888  0.00  0.00    +0.000 NA
ATOM     14  H   UNL     1       7.745   4.838  15.492  0.00  0.00    +0.000 HD
ENDBRANCH   1   9
BRANCH   3  15
ATOM     15  C   UNL     1       3.913   1.721  19.404  0.00  0.00    +0.000 C 
BRANCH  15  16
ATOM     16  C   UNL     1       3.138   2.541  20.448  0.00  0.00    +0.000 C 
BRANCH  16  17
ATOM     17  N   UNL     1       1.725   2.153  20.446  0.00  0.00    +0.000 NA
ATOM     18  H   UNL     1       1.548   1.530  21.236  0.00  0.00    +0.000 HD
BRANCH  17  19
ATOM     19  C   UNL     1       0.841   3.312  20.573  0.00  0.00    +0.000 C 
BRANCH  19  20
ATOM     20  C   UNL     1       1.423   4.506  19.845  0.00  0.00    +0.000 A 
ATOM     21  C   UNL     1       1.860   5.638  20.550  0.00  0.00    +0.000 A 
ATOM     22  C   UNL     1       2.394   6.736  19.871  0.00  0.00    +0.000 A 
ATOM     23  C   UNL     1       2.495   6.710  18.481  0.00  0.00    +0.000 A 
ATOM     24 CL   UNL     1       3.155   8.063  17.648  0.00  0.00    +0.000 Cl
ATOM     25  C   UNL     1       2.067   5.597  17.765  0.00  0.00    +0.000 A 
ATOM     26  C   UNL     1       1.535   4.498  18.445  0.00  0.00    +0.000 A 
ENDBRANCH  19  20
ENDBRANCH  17  19
ENDBRANCH  16  17
ENDBRANCH  15  16
ENDBRANCH   3  15
TORSDOF 6
ENDMDL
MODEL 6
REMARK VINA RESULT:      -6.8      5.495      8.100
REMARK  Name = 
REMARK  10 active torsions:
REMARK  status: ('A' for Active; 'I' for Inactive)
REMARK    1  A    between atoms: C_1  and  C_2
REMARK    2  A    between atoms: C_2  and  C_3
REMARK    3  A    between atoms: C_5  and  C_6
REMARK    4  A    between atoms: N_8  and  C_9
REMARK    5  A    between atoms: C_9  and  C_10
REMARK    6  A    between atoms: C_10  and  N_11
REMARK    7  A    between atoms: N_11  and  C_12
REMARK    8  A    between atoms: C_12  and  C_13
REMARK    9  A    between atoms: C_20  and  C_21
REMARK   10  A    between atoms: C_20  and  C_22
REMARK                            x       y       z     vdW  Elec       q    Type
REMARK                         _______ _______ _______ _____ _____    ______ ____
ROOT
ATOM      1  C   UNL     1       0.287  10.031  18.670  0.00  0.00    +0.000 C 
ATOM      2  O   UNL     1       0.540  10.043  19.867  0.00  0.00    +0.000 OA
ATOM      3  N   UNL     1       1.139   9.536  17.711  0.00  0.00    +0.000 N 
ATOM      4  H   UNL     1       0.902   9.630  16.734  0.00  0.00    +0.000 HD
ENDROOT
BRANCH   1   9
ATOM      5  C   UNL     1      -3.254  10.836  15.510  0.00  0.00    +0.000 C 
ATOM      6  C   UNL     1      -3.015  10.827  17.025  0.00  0.00    +0.000 C 
ATOM      7  C   UNL     1      -4.288  10.362  17.741  0.00  0.00    +0.000 C 
ATOM      8  C   UNL     1      -1.853   9.954  17.368  0.00  0.00    +0.000 C 
ATOM      9  C   UNL     1      -0.967  10.605  18.131  0.00  0.00    +0.000 C 
ATOM     10  C   UNL     1      -1.465  11.986  18.455  0.00  0.00    +0.000 C 
ATOM     11  C   UNL     1      -0.439  13.100  18.209  0.00  0.00    +0.000 C 
ATOM     12  C   UNL     1      -2.001  12.102  19.890  0.00  0.00    +0.000 C 
ATOM     13  N   UNL     1      -2.624  12.173  17.512  0.00  0.00    +0.000 NA
ATOM     14  H   UNL     1      -2.298  12.723  16.718  0.00  0.00    +0.000 HD
ENDBRANCH   1   9
BRANCH   3  15
ATOM     15  C   UNL     1       2.413   8.923  18.033  0.00  0.00    +0.000 C 
BRANCH  15  16
ATOM     16  C   UNL     1       2.272   7.745  19.011  0.00  0.00    +0.000 C 
BRANCH  16  17
ATOM     17  N   UNL     1       2.351   6.476  18.285  0.00  0.00    +0.000 NA
ATOM     18  H   UNL     1       2.380   6.665  17.282  0.00  0.00    +0.000 HD
BRANCH  17  19
ATOM     19  C   UNL     1       3.552   5.719  18.641  0.00  0.00    +0.000 C 
BRANCH  19  20
ATOM     20  C   UNL     1       4.350   5.375  17.400  0.00  0.00    +0.000 A 
ATOM     21  C   UNL     1       4.720   6.370  16.482  0.00  0.00    +0.000 A 
ATOM     22  C   UNL     1       5.456   6.045  15.340  0.00  0.00    +0.000 A 
ATOM     23  C   UNL     1       5.827   4.722  15.107  0.00  0.00    +0.000 A 
ATOM     24 CL   UNL     1       6.734   4.325  13.700  0.00  0.00    +0.000 Cl
ATOM     25  C   UNL     1       5.469   3.722  16.005  0.00  0.00    +0.000 A 
ATOM     26  C   UNL     1       4.735   4.048  17.149  0.00  0.00    +0.000 A 
ENDBRANCH  19  20
ENDBRANCH  17  19
ENDBRANCH  16  17
ENDBRANCH  15  16
ENDBRANCH   3  15
TORSDOF 6
ENDMDL
MODEL 7
REMARK VINA RESULT:      -6.8      5.690      8.069
REMARK  Name = 
REMARK  10 active torsions:
REMARK  status: ('A' for Active; 'I' for Inactive)
REMARK    1  A    between atoms: C_1  and  C_2
REMARK    2  A    between atoms: C_2  and  C_3
REMARK    3  A    between atoms: C_5  and  C_6
REMARK    4  A    between atoms: N_8  and  C_9
REMARK    5  A    between atoms: C_9  and  C_10
REMARK    6  A    between atoms: C_10  and  N_11
REMARK    7  A    between atoms: N_11  and  C_12
REMARK    8  A    between atoms: C_12  and  C_13
REMARK    9  A    between atoms: C_20  and  C_21
REMARK   10  A    between atoms: C_20  and  C_22
REMARK                            x       y       z     vdW  Elec       q    Type
REMARK                         _______ _______ _______ _____ _____    ______ ____
ROOT
ATOM      1  C   UNL     1      -0.046   9.987  18.776  0.00  0.00    +0.000 C 
ATOM      2  O   UNL     1       0.087   9.757  19.971  0.00  0.00    +0.000 OA
ATOM      3  N   UNL     1       0.939   9.772  17.839  0.00  0.00    +0.000 N 
ATOM      4  H   UNL     1       0.791  10.059  16.883  0.00  0.00    +0.000 HD
ENDROOT
BRANCH   1   9
ATOM      5  C   UNL     1      -3.633  10.723  15.652  0.00  0.00    +0.000 C 
ATOM      6  C   UNL     1      -3.354  10.810  17.158  0.00  0.00    +0.000 C 
ATOM      7  C   UNL     1      -4.625  10.454  17.935  0.00  0.00    +0.000 C 
ATOM      8  C   UNL     1      -2.221   9.914  17.534  0.00  0.00    +0.000 C 
ATOM      9  C   UNL     1      -1.288  10.577  18.227  0.00  0.00    +0.000 C 
ATOM     10  C   UNL     1      -1.718  11.998  18.463  0.00  0.00    +0.000 C 
ATOM     11  C   UNL     1      -0.653  13.046  18.112  0.00  0.00    +0.000 C 
ATOM     12  C   UNL     1      -2.210  12.239  19.898  0.00  0.00    +0.000 C 
ATOM     13  N   UNL     1      -2.893  12.169  17.538  0.00  0.00    +0.000 NA
ATOM     14  H   UNL     1      -2.565  12.646  16.698  0.00  0.00    +0.000 HD
ENDBRANCH   1   9
BRANCH   3  15
ATOM     15  C   UNL     1       2.226   9.193  18.172  0.00  0.00    +0.000 C 
BRANCH  15  16
ATOM     16  C   UNL     1       2.127   7.703  18.536  0.00  0.00    +0.000 C 
BRANCH  16  17
ATOM     17  N   UNL     1       2.369   7.518  19.969  0.00  0.00    +0.000 NA
ATOM     18  H   UNL     1       2.108   8.372  20.465  0.00  0.00    +0.000 HD
BRANCH  17  19
ATOM     19  C   UNL     1       1.579   6.414  20.516  0.00  0.00    +0.000 C 
BRANCH  19  20
ATOM     20  C   UNL     1       2.105   5.085  20.015  0.00  0.00    +0.000 A 
ATOM     21  C   UNL     1       1.236   4.010  19.775  0.00  0.00    +0.000 A 
ATOM     22  C   UNL     1       1.729   2.786  19.314  0.00  0.00    +0.000 A 
ATOM     23  C   UNL     1       3.096   2.629  19.091  0.00  0.00    +0.000 A 
ATOM     24 CL   UNL     1       3.701   1.122  18.523  0.00  0.00    +0.000 Cl
ATOM     25  C   UNL     1       3.973   3.683  19.326  0.00  0.00    +0.000 A 
ATOM     26  C   UNL     1       3.479   4.907  19.784  0.00  0.00    +0.000 A 
ENDBRANCH  19  20
ENDBRANCH  17  19
ENDBRANCH  16  17
ENDBRANCH  15  16
ENDBRANCH   3  15
TORSDOF 6
ENDMDL
MODEL 8
REMARK VINA RESULT:      -6.7      4.384      5.691
REMARK  Name = 
REMARK  10 active torsions:
REMARK  status: ('A' for Active; 'I' for Inactive)
REMARK    1  A    between atoms: C_1  and  C_2
REMARK    2  A    between atoms: C_2  and  C_3
REMARK    3  A    between atoms: C_5  and  C_6
REMARK    4  A    between atoms: N_8  and  C_9
REMARK    5  A    between atoms: C_9  and  C_10
REMARK    6  A    between atoms: C_10  and  N_11
REMARK    7  A    between atoms: N_11  and  C_12
REMARK    8  A    between atoms: C_12  and  C_13
REMARK    9  A    between atoms: C_20  and  C_21
REMARK   10  A    between atoms: C_20  and  C_22
REMARK                            x       y       z     vdW  Elec       q    Type
REMARK                         _______ _______ _______ _____ _____    ______ ____
ROOT
ATOM      1  C   UNL     1       2.732   5.748  19.964  0.00  0.00    +0.000 C 
ATOM      2  O   UNL     1       2.476   4.978  20.880  0.00  0.00    +0.000 OA
ATOM      3  N   UNL     1       2.287   7.048  19.908  0.00  0.00    +0.000 N 
ATOM      4  H   UNL     1       2.468   7.604  19.085  0.00  0.00    +0.000 HD
ENDROOT
BRANCH   1   9
ATOM      5  C   UNL     1       5.262   6.199  15.894  0.00  0.00    +0.000 C 
ATOM      6  C   UNL     1       5.142   5.261  17.101  0.00  0.00    +0.000 C 
ATOM      7  C   UNL     1       6.518   4.673  17.432  0.00  0.00    +0.000 C 
ATOM      8  C   UNL     1       4.567   5.984  18.273  0.00  0.00    +0.000 C 
ATOM      9  C   UNL     1       3.520   5.325  18.784  0.00  0.00    +0.000 C 
ATOM     10  C   UNL     1       3.307   4.029  18.053  0.00  0.00    +0.000 C 
ATOM     11  C   UNL     1       1.858   3.789  17.606  0.00  0.00    +0.000 C 
ATOM     12  C   UNL     1       3.798   2.810  18.848  0.00  0.00    +0.000 C 
ATOM     13  N   UNL     1       4.176   4.166  16.832  0.00  0.00    +0.000 NA
ATOM     14  H   UNL     1       3.582   4.443  16.051  0.00  0.00    +0.000 HD
ENDBRANCH   1   9
BRANCH   3  15
ATOM     15  C   UNL     1       1.508   7.658  20.968  0.00  0.00    +0.000 C 
BRANCH  15  16
ATOM     16  C   UNL     1       0.944   9.033  20.572  0.00  0.00    +0.000 C 
BRANCH  16  17
ATOM     17  N   UNL     1       1.225   9.304  19.160  0.00  0.00    +0.000 NA
ATOM     18  H   UNL     1       0.682   8.662  18.581  0.00  0.00    +0.000 HD
BRANCH  17  19
ATOM     19  C   UNL     1       0.865  10.672  18.787  0.00  0.00    +0.000 C 
BRANCH  19  20
ATOM     20  C   UNL     1      -0.618  10.771  18.496  0.00  0.00    +0.000 A 
ATOM     21  C   UNL     1      -1.416  11.729  19.139  0.00  0.00    +0.000 A 
ATOM     22  C   UNL     1      -2.784  11.814  18.866  0.00  0.00    +0.000 A 
ATOM     23  C   UNL     1      -3.364  10.939  17.950  0.00  0.00    +0.000 A 
ATOM     24 CL   UNL     1      -5.048  11.045  17.615  0.00  0.00    +0.000 Cl
ATOM     25  C   UNL     1      -2.589   9.981  17.303  0.00  0.00    +0.000 A 
ATOM     26  C   UNL     1      -1.220   9.899  17.574  0.00  0.00    +0.000 A 
ENDBRANCH  19  20
ENDBRANCH  17  19
ENDBRANCH  16  17
ENDBRANCH  15  16
ENDBRANCH   3  15
TORSDOF 6
ENDMDL
MODEL 9
REMARK VINA RESULT:      -6.7      1.935      5.020
REMARK  Name = 
REMARK  10 active torsions:
REMARK  status: ('A' for Active; 'I' for Inactive)
REMARK    1  A    between atoms: C_1  and  C_2
REMARK    2  A    between atoms: C_2  and  C_3
REMARK    3  A    between atoms: C_5  and  C_6
REMARK    4  A    between atoms: N_8  and  C_9
REMARK    5  A    between atoms: C_9  and  C_10
REMARK    6  A    between atoms: C_10  and  N_11
REMARK    7  A    between atoms: N_11  and  C_12
REMARK    8  A    between atoms: C_12  and  C_13
REMARK    9  A    between atoms: C_20  and  C_21
REMARK   10  A    between atoms: C_20  and  C_22
REMARK                            x       y       z     vdW  Elec       q    Type
REMARK                         _______ _______ _______ _____ _____    ______ ____
ROOT
ATOM      1  C   UNL     1       5.110   4.018  18.809  0.00  0.00    +0.000 C 
ATOM      2  O   UNL     1       6.018   4.308  19.576  0.00  0.00    +0.000 OA
ATOM      3  N   UNL     1       5.160   4.219  17.449  0.00  0.00    +0.000 N 
ATOM      4  H   UNL     1       4.344   4.032  16.885  0.00  0.00    +0.000 HD
ENDROOT
BRANCH   1   9
ATOM      5  C   UNL     1       1.809   2.520  21.976  0.00  0.00    +0.000 C 
ATOM      6  C   UNL     1       1.894   3.104  20.560  0.00  0.00    +0.000 C 
ATOM      7  C   UNL     1       0.674   3.992  20.299  0.00  0.00    +0.000 C 
ATOM      8  C   UNL     1       3.166   3.866  20.383  0.00  0.00    +0.000 C 
ATOM      9  C   UNL     1       3.827   3.459  19.293  0.00  0.00    +0.000 C 
ATOM     10  C   UNL     1       3.037   2.411  18.559  0.00  0.00    +0.000 C 
ATOM     11  C   UNL     1       3.843   1.159  18.189  0.00  0.00    +0.000 C 
ATOM     12  C   UNL     1       2.350   2.959  17.299  0.00  0.00    +0.000 C 
ATOM     13  N   UNL     1       1.963   2.027  19.541  0.00  0.00    +0.000 NA
ATOM     14  H   UNL     1       2.252   1.163  20.001  0.00  0.00    +0.000 HD
ENDBRANCH   1   9
BRANCH   3  15
ATOM     15  C   UNL     1       6.330   4.750  16.777  0.00  0.00    +0.000 C 
BRANCH  15  16
ATOM     16  C   UNL     1       6.227   6.261  16.514  0.00  0.00    +0.000 C 
BRANCH  16  17
ATOM     17  N   UNL     1       5.305   6.876  17.471  0.00  0.00    +0.000 NA
ATOM     18  H   UNL     1       5.696   7.764  17.791  0.00  0.00    +0.000 HD
BRANCH  17  19
ATOM     19  C   UNL     1       3.997   7.145  16.872  0.00  0.00    +0.000 C 
BRANCH  19  20
ATOM     20  C   UNL     1       3.040   7.695  17.910  0.00  0.00    +0.000 A 
ATOM     21  C   UNL     1       2.840   7.031  19.129  0.00  0.00    +0.000 A 
ATOM     22  C   UNL     1       1.954   7.544  20.081  0.00  0.00    +0.000 A 
ATOM     23  C   UNL     1       1.262   8.724  19.820  0.00  0.00    +0.000 A 
ATOM     24 CL   UNL     1       0.174   9.355  20.993  0.00  0.00    +0.000 Cl
ATOM     25  C   UNL     1       1.447   9.397  18.615  0.00  0.00    +0.000 A 
ATOM     26  C   UNL     1       2.334   8.885  17.665  0.00  0.00    +0.000 A 
ENDBRANCH  19  20
ENDBRANCH  17  19
ENDBRANCH  16  17
ENDBRANCH  15  16
ENDBRANCH   3  15
TORSDOF 6
ENDMDL
