MODEL 1
REMARK VINA RESULT:      -8.5      0.000      0.000
REMARK  Name = 
REMARK  4 active torsions:
REMARK  status: ('A' for Active; 'I' for Inactive)
REMARK    1  A    between atoms: C_7  and  C_8
REMARK    2  A    between atoms: N_9  and  C_10
REMARK    3  A    between atoms: C_15  and  N_16
REMARK    4  A    between atoms: N_16  and  C_17
REMARK                            x       y       z     vdW  Elec       q    Type
REMARK                         _______ _______ _______ _____ _____    ______ ____
ROOT
ATOM      1  C   UNL     1       5.034   5.606  17.265  0.00  0.00    +0.000 A 
ATOM      2  C   UNL     1       6.301   6.151  16.998  0.00  0.00    +0.000 A 
ATOM      3  C   UNL     1       7.159   5.539  16.094  0.00  0.00    +0.000 A 
ATOM      4  C   UNL     1       6.715   4.403  15.450  0.00  0.00    +0.000 A 
ATOM      5  N   UNL     1       5.506   3.850  15.665  0.00  0.00    +0.000 NA
ATOM      6  C   UNL     1       4.666   4.443  16.554  0.00  0.00    +0.000 A 
ENDROOT
BRANCH   1   8
ATOM      7  C   UNL     1       3.517   7.289  17.743  0.00  0.00    +0.000 C 
ATOM      8  N   UNL     1       4.157   6.244  18.178  0.00  0.00    +0.000 NA
BRANCH   7  15
ATOM      9  F   UNL     1      -1.276  11.463  21.594  0.00  0.00    +0.000 F 
ATOM     10  C   UNL     1      -0.461  10.496  21.151  0.00  0.00    +0.000 A 
ATOM     11  C   UNL     1      -0.142   9.444  21.996  0.00  0.00    +0.000 A 
ATOM     12  C   UNL     1       0.721   8.431  21.559  0.00  0.00    +0.000 A 
ATOM     13  C   UNL     1       1.271   8.495  20.262  0.00  0.00    +0.000 A 
ATOM     14  N   UNL     1       2.162   7.590  19.711  0.00  0.00    +0.000 NA
ATOM     15  C   UNL     1       2.502   7.984  18.499  0.00  0.00    +0.000 A 
ATOM     16  S   UNL     1       1.732   9.393  17.921  0.00  0.00    +0.000 S 
ATOM     17  C   UNL     1       0.921   9.566  19.433  0.00  0.00    +0.000 A 
ATOM     18  C   UNL     1       0.049  10.581  19.858  0.00  0.00    +0.000 A 
ENDBRANCH   7  15
ENDBRANCH   1   8
BRANCH   6  19
ATOM     19  N   UNL     1       3.403   3.844  16.800  0.00  0.00    +0.000 N 
ATOM     20  H   UNL     1       3.160   3.217  16.042  0.00  0.00    +0.000 HD
BRANCH  19  21
ATOM     21  C   UNL     1       2.881   3.518  18.069  0.00  0.00    +0.000 A 
ATOM     22  C   UNL     1       3.662   2.814  19.000  0.00  0.00    +0.000 A 
ATOM     23  C   UNL     1       3.167   2.476  20.261  0.00  0.00    +0.000 A 
ATOM     24  C   UNL     1       1.870   2.838  20.604  0.00  0.00    +0.000 A 
ATOM     25 CL   UNL     1       1.253   2.424  22.155  0.00  0.00    +0.000 Cl
ATOM     26  C   UNL     1       1.071   3.532  19.696  0.00  0.00    +0.000 A 
ATOM     27  C   UNL     1       1.578   3.875  18.434  0.00  0.00    +0.000 A 
ENDBRANCH  19  21
ENDBRANCH   6  19
TORSDOF 4
ENDMDL
MODEL 2
REMARK VINA RESULT:      -8.3      4.152      8.442
REMARK  Name = 
REMARK  4 active torsions:
REMARK  status: ('A' for Active; 'I' for Inactive)
REMARK    1  A    between atoms: C_7  and  C_8
REMARK    2  A    between atoms: N_9  and  C_10
REMARK    3  A    between atoms: C_15  and  N_16
REMARK    4  A    between atoms: N_16  and  C_17
REMARK                            x       y       z     vdW  Elec       q    Type
REMARK                         _______ _______ _______ _____ _____    ______ ____
ROOT
ATOM      1  C   UNL     1       0.730   9.474  21.056  0.00  0.00    +0.000 A 
ATOM      2  C   UNL     1       0.709   8.917  22.346  0.00  0.00    +0.000 A 
ATOM      3  C   UNL     1      -0.070   9.481  23.348  0.00  0.00    +0.000 A 
ATOM      4  C   UNL     1      -0.840  10.579  23.028  0.00  0.00    +0.000 A 
ATOM      5  N   UNL     1      -0.862  11.141  21.804  0.00  0.00    +0.000 NA
ATOM      6  C   UNL     1      -0.096  10.597  20.822  0.00  0.00    +0.000 A 
ENDROOT
BRANCH   1   8
ATOM      7  C   UNL     1       1.851   7.641  20.194  0.00  0.00    +0.000 C 
ATOM      8  N   UNL     1       1.515   8.886  20.033  0.00  0.00    +0.000 NA
BRANCH   7  15
ATOM      9  F   UNL     1       5.811   3.321  15.626  0.00  0.00    +0.000 F 
ATOM     10  C   UNL     1       5.180   4.338  16.229  0.00  0.00    +0.000 A 
ATOM     11  C   UNL     1       5.424   5.633  15.799  0.00  0.00    +0.000 A 
ATOM     12  C   UNL     1       4.788   6.711  16.427  0.00  0.00    +0.000 A 
ATOM     13  C   UNL     1       3.909   6.471  17.504  0.00  0.00    +0.000 A 
ATOM     14  N   UNL     1       3.242   7.436  18.240  0.00  0.00    +0.000 NA
ATOM     15  C   UNL     1       2.545   6.858  19.199  0.00  0.00    +0.000 A 
ATOM     16  S   UNL     1       2.578   5.152  19.232  0.00  0.00    +0.000 S 
ATOM     17  C   UNL     1       3.680   5.151  17.906  0.00  0.00    +0.000 A 
ATOM     18  C   UNL     1       4.305   4.063  17.277  0.00  0.00    +0.000 A 
ENDBRANCH   7  15
ENDBRANCH   1   8
BRANCH   6  19
ATOM     19  N   UNL     1      -0.098  11.206  19.540  0.00  0.00    +0.000 N 
ATOM     20  H   UNL     1       0.853  11.367  19.229  0.00  0.00    +0.000 HD
BRANCH  19  21
ATOM     21  C   UNL     1      -1.056  10.989  18.529  0.00  0.00    +0.000 A 
ATOM     22  C   UNL     1      -0.899   9.935  17.613  0.00  0.00    +0.000 A 
ATOM     23  C   UNL     1      -1.831   9.702  16.601  0.00  0.00    +0.000 A 
ATOM     24  C   UNL     1      -2.938  10.533  16.489  0.00  0.00    +0.000 A 
ATOM     25 CL   UNL     1      -4.090  10.253  15.242  0.00  0.00    +0.000 Cl
ATOM     26  C   UNL     1      -3.115  11.592  17.379  0.00  0.00    +0.000 A 
ATOM     27  C   UNL     1      -2.178  11.815  18.400  0.00  0.00    +0.000 A 
ENDBRANCH  19  21
ENDBRANCH   6  19
TORSDOF 4
ENDMDL
MODEL 3
REMARK VINA RESULT:      -8.3      4.050      7.921
REMARK  Name = 
REMARK  4 active torsions:
REMARK  status: ('A' for Active; 'I' for Inactive)
REMARK    1  A    between atoms: C_7  and  C_8
REMARK    2  A    between atoms: N_9  and  C_10
REMARK    3  A    between atoms: C_15  and  N_16
REMARK    4  A    between atoms: N_16  and  C_17
REMARK                            x       y       z     vdW  Elec       q    Type
REMARK                         _______ _______ _______ _____ _____    ______ ____
ROOT
ATOM      1  C   UNL     1       2.764   3.931  19.055  0.00  0.00    +0.000 A 
ATOM      2  C   UNL     1       2.239   2.633  19.180  0.00  0.00    +0.000 A 
ATOM      3  C   UNL     1       1.578   2.246  20.338  0.00  0.00    +0.000 A 
ATOM      4  C   UNL     1       1.429   3.181  21.341  0.00  0.00    +0.000 A 
ATOM      5  N   UNL     1       1.905   4.439  21.263  0.00  0.00    +0.000 NA
ATOM      6  C   UNL     1       2.558   4.820  20.133  0.00  0.00    +0.000 A 
ENDROOT
BRANCH   1   8
ATOM      7  C   UNL     1       4.665   3.960  17.733  0.00  0.00    +0.000 C 
ATOM      8  N   UNL     1       3.424   4.325  17.864  0.00  0.00    +0.000 NA
BRANCH   7  15
ATOM      9  F   UNL     1       8.435   5.762  11.588  0.00  0.00    +0.000 F 
ATOM     10  C   UNL     1       7.660   5.174  12.511  0.00  0.00    +0.000 A 
ATOM     11  C   UNL     1       6.837   4.126  12.132  0.00  0.00    +0.000 A 
ATOM     12  C   UNL     1       6.007   3.509  13.077  0.00  0.00    +0.000 A 
ATOM     13  C   UNL     1       6.008   3.969  14.411  0.00  0.00    +0.000 A 
ATOM     14  N   UNL     1       5.219   3.482  15.439  0.00  0.00    +0.000 NA
ATOM     15  C   UNL     1       5.446   4.175  16.538  0.00  0.00    +0.000 A 
ATOM     16  S   UNL     1       6.653   5.377  16.435  0.00  0.00    +0.000 S 
ATOM     17  C   UNL     1       6.858   5.023  14.760  0.00  0.00    +0.000 A 
ATOM     18  C   UNL     1       7.700   5.641  13.822  0.00  0.00    +0.000 A 
ENDBRANCH   7  15
ENDBRANCH   1   8
BRANCH   6  19
ATOM     19  N   UNL     1       3.083   6.136  20.062  0.00  0.00    +0.000 N 
ATOM     20  H   UNL     1       4.055   6.110  19.778  0.00  0.00    +0.000 HD
BRANCH  19  21
ATOM     21  C   UNL     1       2.360   7.291  19.699  0.00  0.00    +0.000 A 
ATOM     22  C   UNL     1       1.591   7.979  20.652  0.00  0.00    +0.000 A 
ATOM     23  C   UNL     1       0.863   9.122  20.316  0.00  0.00    +0.000 A 
ATOM     24  C   UNL     1       0.894   9.590  19.009  0.00  0.00    +0.000 A 
ATOM     25 CL   UNL     1      -0.002  10.997  18.587  0.00  0.00    +0.000 Cl
ATOM     26  C   UNL     1       1.643   8.923  18.041  0.00  0.00    +0.000 A 
ATOM     27  C   UNL     1       2.379   7.779  18.387  0.00  0.00    +0.000 A 
ENDBRANCH  19  21
ENDBRANCH   6  19
TORSDOF 4
ENDMDL
MODEL 4
REMARK VINA RESULT:      -8.1      2.818      4.769
REMARK  Name = 
REMARK  4 active torsions:
REMARK  status: ('A' for Active; 'I' for Inactive)
REMARK    1  A    between atoms: C_7  and  C_8
REMARK    2  A    between atoms: N_9  and  C_10
REMARK    3  A    between atoms: C_15  and  N_16
REMARK    4  A    between atoms: N_16  and  C_17
REMARK                            x       y       z     vdW  Elec       q    Type
REMARK                         _______ _______ _______ _____ _____    ______ ____
ROOT
ATOM      1  C   UNL     1       2.432   5.195  20.027  0.00  0.00    +0.000 A 
ATOM      2  C   UNL     1       1.418   4.349  20.506  0.00  0.00    +0.000 A 
ATOM      3  C   UNL     1       1.661   2.996  20.705  0.00  0.00    +0.000 A 
ATOM      4  C   UNL     1       2.930   2.522  20.446  0.00  0.00    +0.000 A 
ATOM      5  N   UNL     1       3.936   3.296  19.996  0.00  0.00    +0.000 NA
ATOM      6  C   UNL     1       3.701   4.620  19.794  0.00  0.00    +0.000 A 
ENDROOT
BRANCH   1   8
ATOM      7  C   UNL     1       1.423   7.161  20.719  0.00  0.00    +0.000 C 
ATOM      8  N   UNL     1       2.184   6.578  19.840  0.00  0.00    +0.000 NA
BRANCH   7  15
ATOM      9  F   UNL     1      -0.584  14.306  21.088  0.00  0.00    +0.000 F 
ATOM     10  C   UNL     1      -0.114  13.107  20.718  0.00  0.00    +0.000 A 
ATOM     11  C   UNL     1       0.250  12.905  19.396  0.00  0.00    +0.000 A 
ATOM     12  C   UNL     1       0.728  11.654  18.984  0.00  0.00    +0.000 A 
ATOM     13  C   UNL     1       0.826  10.603  19.919  0.00  0.00    +0.000 A 
ATOM     14  N   UNL     1       1.244   9.311  19.649  0.00  0.00    +0.000 NA
ATOM     15  C   UNL     1       1.165   8.581  20.745  0.00  0.00    +0.000 A 
ATOM     16  S   UNL     1       0.673   9.398  22.160  0.00  0.00    +0.000 S 
ATOM     17  C   UNL     1       0.458  10.845  21.246  0.00  0.00    +0.000 A 
ATOM     18  C   UNL     1      -0.013  12.097  21.671  0.00  0.00    +0.000 A 
ENDBRANCH   7  15
ENDBRANCH   1   8
BRANCH   6  19
ATOM     19  N   UNL     1       4.754   5.429  19.293  0.00  0.00    +0.000 N 
ATOM     20  H   UNL     1       5.379   5.694  20.046  0.00  0.00    +0.000 HD
BRANCH  19  21
ATOM     21  C   UNL     1       5.332   5.326  18.011  0.00  0.00    +0.000 A 
ATOM     22  C   UNL     1       6.577   4.700  17.840  0.00  0.00    +0.000 A 
ATOM     23  C   UNL     1       7.173   4.589  16.583  0.00  0.00    +0.000 A 
ATOM     24  C   UNL     1       6.523   5.114  15.472  0.00  0.00    +0.000 A 
ATOM     25 CL   UNL     1       7.251   4.982  13.919  0.00  0.00    +0.000 Cl
ATOM     26  C   UNL     1       5.289   5.747  15.614  0.00  0.00    +0.000 A 
ATOM     27  C   UNL     1       4.693   5.848  16.881  0.00  0.00    +0.000 A 
ENDBRANCH  19  21
ENDBRANCH   6  19
TORSDOF 4
ENDMDL
MODEL 5
REMARK VINA RESULT:      -8.0      4.523      8.952
REMARK  Name = 
REMARK  4 active torsions:
REMARK  status: ('A' for Active; 'I' for Inactive)
REMARK    1  A    between atoms: C_7  and  C_8
REMARK    2  A    between atoms: N_9  and  C_10
REMARK    3  A    between atoms: C_15  and  N_16
REMARK    4  A    between atoms: N_16  and  C_17
REMARK                            x       y       z     vdW  Elec       q    Type
REMARK                         _______ _______ _______ _____ _____    ______ ____
ROOT
ATOM      1  C   UNL     1       0.782   9.517  20.912  0.00  0.00    +0.000 A 
ATOM      2  C   UNL     1       0.734   8.961  22.202  0.00  0.00    +0.000 A 
ATOM      3  C   UNL     1      -0.044   9.542  23.195  0.00  0.00    +0.000 A 
ATOM      4  C   UNL     1      -0.787  10.656  22.865  0.00  0.00    +0.000 A 
ATOM      5  N   UNL     1      -0.782  11.218  21.641  0.00  0.00    +0.000 NA
ATOM      6  C   UNL     1      -0.017  10.657  20.668  0.00  0.00    +0.000 A 
ENDROOT
BRANCH   1   8
ATOM      7  C   UNL     1       1.911   7.673  20.085  0.00  0.00    +0.000 C 
ATOM      8  N   UNL     1       1.566   8.912  19.898  0.00  0.00    +0.000 NA
BRANCH   7  15
ATOM      9  F   UNL     1       5.885   3.286  15.593  0.00  0.00    +0.000 F 
ATOM     10  C   UNL     1       5.246   4.310  16.176  0.00  0.00    +0.000 A 
ATOM     11  C   UNL     1       5.468   5.596  15.709  0.00  0.00    +0.000 A 
ATOM     12  C   UNL     1       4.824   6.683  16.315  0.00  0.00    +0.000 A 
ATOM     13  C   UNL     1       3.959   6.459  17.407  0.00  0.00    +0.000 A 
ATOM     14  N   UNL     1       3.286   7.435  18.123  0.00  0.00    +0.000 NA
ATOM     15  C   UNL     1       2.606   6.874  19.104  0.00  0.00    +0.000 A 
ATOM     16  S   UNL     1       2.663   5.170  19.182  0.00  0.00    +0.000 S 
ATOM     17  C   UNL     1       3.752   5.148  17.846  0.00  0.00    +0.000 A 
ATOM     18  C   UNL     1       4.385   4.052  17.239  0.00  0.00    +0.000 A 
ENDBRANCH   7  15
ENDBRANCH   1   8
BRANCH   6  19
ATOM     19  N   UNL     1       0.009  11.266  19.386  0.00  0.00    +0.000 N 
ATOM     20  H   UNL     1      -0.902  11.197  18.949  0.00  0.00    +0.000 HD
BRANCH  19  21
ATOM     21  C   UNL     1       0.792  12.380  19.021  0.00  0.00    +0.000 A 
ATOM     22  C   UNL     1       2.100  12.204  18.541  0.00  0.00    +0.000 A 
ATOM     23  C   UNL     1       2.897  13.291  18.177  0.00  0.00    +0.000 A 
ATOM     24  C   UNL     1       2.390  14.578  18.296  0.00  0.00    +0.000 A 
ATOM     25 CL   UNL     1       3.366  15.923  17.851  0.00  0.00    +0.000 Cl
ATOM     26  C   UNL     1       1.096  14.783  18.776  0.00  0.00    +0.000 A 
ATOM     27  C   UNL     1       0.298  13.685  19.133  0.00  0.00    +0.000 A 
ENDBRANCH  19  21
ENDBRANCH   6  19
TORSDOF 4
ENDMDL
MODEL 6
REMARK VINA RESULT:      -8.0      4.347      8.653
REMARK  Name = 
REMARK  4 active torsions:
REMARK  status: ('A' for Active; 'I' for Inactive)
REMARK    1  A    between atoms: C_7  and  C_8
REMARK    2  A    between atoms: N_9  and  C_10
REMARK    3  A    between atoms: C_15  and  N_16
REMARK    4  A    between atoms: N_16  and  C_17
REMARK                            x       y       z     vdW  Elec       q    Type
REMARK                         _______ _______ _______ _____ _____    ______ ____
ROOT
ATOM      1  C   UNL     1       0.910   9.215  20.737  0.00  0.00    +0.000 A 
ATOM      2  C   UNL     1       1.164   8.823  22.063  0.00  0.00    +0.000 A 
ATOM      3  C   UNL     1       0.434   9.364  23.113  0.00  0.00    +0.000 A 
ATOM      4  C   UNL     1      -0.561  10.270  22.810  0.00  0.00    +0.000 A 
ATOM      5  N   UNL     1      -0.848  10.667  21.556  0.00  0.00    +0.000 NA
ATOM      6  C   UNL     1      -0.133  10.145  20.525  0.00  0.00    +0.000 A 
ENDROOT
BRANCH   1   8
ATOM      7  C   UNL     1       2.142   7.461  19.861  0.00  0.00    +0.000 C 
ATOM      8  N   UNL     1       1.647   8.647  19.668  0.00  0.00    +0.000 NA
BRANCH   7  15
ATOM      9  F   UNL     1       5.991   3.192  15.151  0.00  0.00    +0.000 F 
ATOM     10  C   UNL     1       5.384   4.204  15.787  0.00  0.00    +0.000 A 
ATOM     11  C   UNL     1       5.654   5.506  15.393  0.00  0.00    +0.000 A 
ATOM     12  C   UNL     1       5.044   6.579  16.055  0.00  0.00    +0.000 A 
ATOM     13  C   UNL     1       4.165   6.326  17.129  0.00  0.00    +0.000 A 
ATOM     14  N   UNL     1       3.521   7.284  17.895  0.00  0.00    +0.000 NA
ATOM     15  C   UNL     1       2.815   6.693  18.840  0.00  0.00    +0.000 A 
ATOM     16  S   UNL     1       2.812   4.987  18.824  0.00  0.00    +0.000 S 
ATOM     17  C   UNL     1       3.909   5.001  17.493  0.00  0.00    +0.000 A 
ATOM     18  C   UNL     1       4.508   3.918  16.830  0.00  0.00    +0.000 A 
ENDBRANCH   7  15
ENDBRANCH   1   8
BRANCH   6  19
ATOM     19  N   UNL     1      -0.418  10.584  19.206  0.00  0.00    +0.000 N 
ATOM     20  H   UNL     1       0.264  10.207  18.558  0.00  0.00    +0.000 HD
BRANCH  19  21
ATOM     21  C   UNL     1      -1.703  10.834  18.683  0.00  0.00    +0.000 A 
ATOM     22  C   UNL     1      -2.488  11.881  19.192  0.00  0.00    +0.000 A 
ATOM     23  C   UNL     1      -3.765  12.146  18.694  0.00  0.00    +0.000 A 
ATOM     24  C   UNL     1      -4.277  11.354  17.674  0.00  0.00    +0.000 A 
ATOM     25 CL   UNL     1      -5.850  11.673  17.056  0.00  0.00    +0.000 Cl
ATOM     26  C   UNL     1      -3.522  10.303  17.155  0.00  0.00    +0.000 A 
ATOM     27  C   UNL     1      -2.236  10.047  17.655  0.00  0.00    +0.000 A 
ENDBRANCH  19  21
ENDBRANCH   6  19
TORSDOF 4
ENDMDL
MODEL 7
REMARK VINA RESULT:      -7.9      2.805      4.691
REMARK  Name = 
REMARK  4 active torsions:
REMARK  status: ('A' for Active; 'I' for Inactive)
REMARK    1  A    between atoms: C_7  and  C_8
REMARK    2  A    between atoms: N_9  and  C_10
REMARK    3  A    between atoms: C_15  and  N_16
REMARK    4  A    between atoms: N_16  and  C_17
REMARK                            x       y       z     vdW  Elec       q    Type
REMARK                         _______ _______ _______ _____ _____    ______ ____
ROOT
ATOM      1  C   UNL     1       2.266   5.267  20.218  0.00  0.00    +0.000 A 
ATOM      2  C   UNL     1       1.170   4.467  20.584  0.00  0.00    +0.000 A 
ATOM      3  C   UNL     1       1.241   3.083  20.492  0.00  0.00    +0.000 A 
ATOM      4  C   UNL     1       2.426   2.524  20.061  0.00  0.00    +0.000 A 
ATOM      5  N   UNL     1       3.506   3.248  19.710  0.00  0.00    +0.000 NA
ATOM      6  C   UNL     1       3.438   4.603  19.792  0.00  0.00    +0.000 A 
ENDROOT
BRANCH   1   8
ATOM      7  C   UNL     1       1.744   7.325  19.295  0.00  0.00    +0.000 C 
ATOM      8  N   UNL     1       2.193   6.678  20.329  0.00  0.00    +0.000 NA
BRANCH   7  15
ATOM      9  F   UNL     1       1.191  14.733  19.125  0.00  0.00    +0.000 F 
ATOM     10  C   UNL     1       1.103  13.431  19.431  0.00  0.00    +0.000 A 
ATOM     11  C   UNL     1       0.587  13.062  20.663  0.00  0.00    +0.000 A 
ATOM     12  C   UNL     1       0.502  11.707  21.009  0.00  0.00    +0.000 A 
ATOM     13  C   UNL     1       0.953  10.726  20.101  0.00  0.00    +0.000 A 
ATOM     14  N   UNL     1       0.964   9.359  20.321  0.00  0.00    +0.000 NA
ATOM     15  C   UNL     1       1.495   8.747  19.280  0.00  0.00    +0.000 A 
ATOM     16  S   UNL     1       1.935   9.742  17.965  0.00  0.00    +0.000 S 
ATOM     17  C   UNL     1       1.459  11.135  18.863  0.00  0.00    +0.000 A 
ATOM     18  C   UNL     1       1.540  12.489  18.503  0.00  0.00    +0.000 A 
ENDBRANCH   7  15
ENDBRANCH   1   8
BRANCH   6  19
ATOM     19  N   UNL     1       4.567   5.367  19.396  0.00  0.00    +0.000 N 
ATOM     20  H   UNL     1       5.163   5.549  20.195  0.00  0.00    +0.000 HD
BRANCH  19  21
ATOM     21  C   UNL     1       5.211   5.293  18.144  0.00  0.00    +0.000 A 
ATOM     22  C   UNL     1       6.474   4.691  18.027  0.00  0.00    +0.000 A 
ATOM     23  C   UNL     1       7.134   4.609  16.799  0.00  0.00    +0.000 A 
ATOM     24  C   UNL     1       6.532   5.140  15.665  0.00  0.00    +0.000 A 
ATOM     25 CL   UNL     1       7.339   5.044  14.149  0.00  0.00    +0.000 Cl
ATOM     26  C   UNL     1       5.281   5.749  15.754  0.00  0.00    +0.000 A 
ATOM     27  C   UNL     1       4.620   5.821  16.990  0.00  0.00    +0.000 A 
ENDBRANCH  19  21
ENDBRANCH   6  19
TORSDOF 4
ENDMDL
MODEL 8
REMARK VINA RESULT:      -7.9      2.756      4.823
REMARK  Name = 
REMARK  4 active torsions:
REMARK  status: ('A' for Active; 'I' for Inactive)
REMARK    1  A    between atoms: C_7  and  C_8
REMARK    2  A    between atoms: N_9  and  C_10
REMARK    3  A    between atoms: C_15  and  N_16
REMARK    4  A    between atoms: N_16  and  C_17
REMARK                            x       y       z     vdW  Elec       q    Type
REMARK                         _______ _______ _______ _____ _____    ______ ____
ROOT
ATOM      1  C   UNL     1       2.349   5.315  20.250  0.00  0.00    +0.000 A 
ATOM      2  C   UNL     1       1.528   4.354  20.863  0.00  0.00    +0.000 A 
ATOM      3  C   UNL     1       1.937   3.030  20.958  0.00  0.00    +0.000 A 
ATOM      4  C   UNL     1       3.180   2.701  20.460  0.00  0.00    +0.000 A 
ATOM      5  N   UNL     1       4.006   3.589  19.874  0.00  0.00    +0.000 NA
ATOM      6  C   UNL     1       3.607   4.884  19.773  0.00  0.00    +0.000 A 
ENDROOT
BRANCH   1   8
ATOM      7  C   UNL     1       1.043   7.060  21.032  0.00  0.00    +0.000 C 
ATOM      8  N   UNL     1       1.933   6.668  20.170  0.00  0.00    +0.000 NA
BRANCH   7  15
ATOM      9  F   UNL     1      -0.536  14.282  21.785  0.00  0.00    +0.000 F 
ATOM     10  C   UNL     1      -0.488  12.946  21.883  0.00  0.00    +0.000 A 
ATOM     11  C   UNL     1      -1.157  12.323  22.925  0.00  0.00    +0.000 A 
ATOM     12  C   UNL     1      -1.106  10.929  23.056  0.00  0.00    +0.000 A 
ATOM     13  C   UNL     1      -0.362  10.168  22.129  0.00  0.00    +0.000 A 
ATOM     14  N   UNL     1      -0.193   8.794  22.155  0.00  0.00    +0.000 NA
ATOM     15  C   UNL     1       0.598   8.427  21.166  0.00  0.00    +0.000 A 
ATOM     16  S   UNL     1       1.117   9.667  20.115  0.00  0.00    +0.000 S 
ATOM     17  C   UNL     1       0.292  10.830  21.085  0.00  0.00    +0.000 A 
ATOM     18  C   UNL     1       0.239  12.225  20.940  0.00  0.00    +0.000 A 
ENDBRANCH   7  15
ENDBRANCH   1   8
BRANCH   6  19
ATOM     19  N   UNL     1       4.466   5.813  19.132  0.00  0.00    +0.000 N 
ATOM     20  H   UNL     1       4.928   6.395  19.820  0.00  0.00    +0.000 HD
BRANCH  19  21
ATOM     21  C   UNL     1       5.174   5.587  17.933  0.00  0.00    +0.000 A 
ATOM     22  C   UNL     1       4.657   6.030  16.705  0.00  0.00    +0.000 A 
ATOM     23  C   UNL     1       5.336   5.814  15.505  0.00  0.00    +0.000 A 
ATOM     24  C   UNL     1       6.550   5.140  15.521  0.00  0.00    +0.000 A 
ATOM     25 CL   UNL     1       7.393   4.869  14.046  0.00  0.00    +0.000 Cl
ATOM     26  C   UNL     1       7.084   4.682  16.725  0.00  0.00    +0.000 A 
ATOM     27  C   UNL     1       6.399   4.910  17.929  0.00  0.00    +0.000 A 
ENDBRANCH  19  21
ENDBRANCH   6  19
TORSDOF 4
ENDMDL
MODEL 9
REMARK VINA RESULT:      -7.9      2.793      4.571
REMARK  Name = 
REMARK  4 active torsions:
REMARK  status: ('A' for Active; 'I' for Inactive)
REMARK    1  A    between atoms: C_7  and  C_8
REMARK    2  A    between atoms: N_9  and  C_10
REMARK    3  A    between atoms: C_15  and  N_16
REMARK    4  A    between atoms: N_16  and  C_17
REMARK                            x       y       z     vdW  Elec       q    Type
REMARK                         _______ _______ _______ _____ _____    ______ ____
ROOT
ATOM      1  C   UNL     1       3.341   4.914  19.616  0.00  0.00    +0.000 A 
ATOM      2  C   UNL     1       2.527   4.102  20.423  0.00  0.00    +0.000 A 
ATOM      3  C   UNL     1       2.940   2.828  20.791  0.00  0.00    +0.000 A 
ATOM      4  C   UNL     1       4.181   2.403  20.364  0.00  0.00    +0.000 A 
ATOM      5  N   UNL     1       5.001   3.149  19.599  0.00  0.00    +0.000 NA
ATOM      6  C   UNL     1       4.597   4.394  19.231  0.00  0.00    +0.000 A 
ENDROOT
BRANCH   1   8
ATOM      7  C   UNL     1       2.035   6.783  20.024  0.00  0.00    +0.000 C 
ATOM      8  N   UNL     1       2.921   6.219  19.257  0.00  0.00    +0.000 NA
BRANCH   7  15
ATOM      9  F   UNL     1       0.431  13.977  19.086  0.00  0.00    +0.000 F 
ATOM     10  C   UNL     1       0.543  12.720  19.537  0.00  0.00    +0.000 A 
ATOM     11  C   UNL     1       0.148  12.431  20.833  0.00  0.00    +0.000 A 
ATOM     12  C   UNL     1       0.272  11.126  21.329  0.00  0.00    +0.000 A 
ATOM     13  C   UNL     1       0.812  10.116  20.506  0.00  0.00    +0.000 A 
ATOM     14  N   UNL     1       1.027   8.798  20.872  0.00  0.00    +0.000 NA
ATOM     15  C   UNL     1       1.588   8.147  19.871  0.00  0.00    +0.000 A 
ATOM     16  S   UNL     1       1.816   9.031  18.429  0.00  0.00    +0.000 S 
ATOM     17  C   UNL     1       1.193  10.442  19.200  0.00  0.00    +0.000 A 
ATOM     18  C   UNL     1       1.063  11.744  18.691  0.00  0.00    +0.000 A 
ENDBRANCH   7  15
ENDBRANCH   1   8
BRANCH   6  19
ATOM     19  N   UNL     1       5.449   5.169  18.402  0.00  0.00    +0.000 N 
ATOM     20  H   UNL     1       6.190   5.585  18.955  0.00  0.00    +0.000 HD
BRANCH  19  21
ATOM     21  C   UNL     1       5.758   4.893  17.055  0.00  0.00    +0.000 A 
ATOM     22  C   UNL     1       7.037   5.173  16.545  0.00  0.00    +0.000 A 
ATOM     23  C   UNL     1       7.366   4.912  15.214  0.00  0.00    +0.000 A 
ATOM     24  C   UNL     1       6.407   4.369  14.368  0.00  0.00    +0.000 A 
ATOM     25 CL   UNL     1       6.805   4.047  12.726  0.00  0.00    +0.000 Cl
ATOM     26  C   UNL     1       5.128   4.088  14.846  0.00  0.00    +0.000 A 
ATOM     27  C   UNL     1       4.806   4.345  16.187  0.00  0.00    +0.000 A 
ENDBRANCH  19  21
ENDBRANCH   6  19
TORSDOF 4
ENDMDL
