MODEL 1
REMARK VINA RESULT:      -8.6      0.000      0.000
REMARK  Name = 
REMARK  5 active torsions:
REMARK  status: ('A' for Active; 'I' for Inactive)
REMARK    1  A    between atoms: C_1  and  C_2
REMARK    2  A    between atoms: C_6  and  C_7
REMARK    3  A    between atoms: C_10  and  N_11
REMARK    4  A    between atoms: N_14  and  C_15
REMARK    5  A    between atoms: C_15  and  C_16
REMARK                            x       y       z     vdW  Elec       q    Type
REMARK                         _______ _______ _______ _____ _____    ______ ____
ROOT
ATOM      1  C   UNL     1       6.557   4.826  15.516  0.00  0.00    +0.000 A 
ATOM      2  N   UNL     1       7.528   4.847  16.392  0.00  0.00    +0.000 NA
ATOM      3  C   UNL     1       6.863   5.022  17.573  0.00  0.00    +0.000 A 
ATOM      4  C   UNL     1       7.275   5.158  18.851  0.00  0.00    +0.000 A 
ATOM      5  N   UNL     1       6.378   5.381  19.888  0.00  0.00    +0.000 NA
ATOM      6  C   UNL     1       5.112   5.426  19.590  0.00  0.00    +0.000 A 
ATOM      7  N   UNL     1       4.549   5.281  18.337  0.00  0.00    +0.000 N 
ATOM      8  C   UNL     1       5.425   5.109  17.292  0.00  0.00    +0.000 A 
ATOM      9  N   UNL     1       5.270   5.015  16.010  0.00  0.00    +0.000 NA
ENDROOT
BRANCH   1  15
ATOM     10  C   UNL     1       5.552   2.203  11.356  0.00  0.00    +0.000 C 
ATOM     11  C   UNL     1       6.293   3.308  12.050  0.00  0.00    +0.000 A 
ATOM     12  C   UNL     1       7.219   4.097  11.359  0.00  0.00    +0.000 A 
ATOM     13  C   UNL     1       7.904   5.123  12.013  0.00  0.00    +0.000 A 
ATOM     14  C   UNL     1       7.673   5.368  13.366  0.00  0.00    +0.000 A 
ATOM     15  C   UNL     1       6.755   4.583  14.069  0.00  0.00    +0.000 A 
ATOM     16  C   UNL     1       6.066   3.554  13.413  0.00  0.00    +0.000 A 
ENDBRANCH   1  15
BRANCH   4  17
ATOM     17  N   UNL     1       8.624   5.128  19.148  0.00  0.00    +0.000 N 
ATOM     18  H   UNL     1       9.185   5.106  18.300  0.00  0.00    +0.000 HD
ATOM     19  H   UNL     1       8.854   5.894  19.773  0.00  0.00    +0.000 HD
ENDBRANCH   4  17
BRANCH   7  20
ATOM     20  C   UNL     1       3.138   5.556  18.084  0.00  0.00    +0.000 C 
BRANCH  20  21
ATOM     21  C   UNL     1       2.176   4.553  18.701  0.00  0.00    +0.000 A 
ATOM     22  C   UNL     1       1.962   3.284  18.124  0.00  0.00    +0.000 A 
ATOM     23 CL   UNL     1       2.769   2.756  16.689  0.00  0.00    +0.000 Cl
ATOM     24  C   UNL     1       1.121   2.335  18.726  0.00  0.00    +0.000 A 
ATOM     25  C   UNL     1       0.476   2.619  19.920  0.00  0.00    +0.000 A 
ATOM     26  C   UNL     1       0.669   3.858  20.513  0.00  0.00    +0.000 A 
ATOM     27  C   UNL     1       1.510   4.811  19.918  0.00  0.00    +0.000 A 
ATOM     28 CL   UNL     1       1.731   6.261  20.833  0.00  0.00    +0.000 Cl
ENDBRANCH  20  21
ENDBRANCH   7  20
TORSDOF 4
ENDMDL
MODEL 2
REMARK VINA RESULT:      -8.5      0.090      1.800
REMARK  Name = 
REMARK  5 active torsions:
REMARK  status: ('A' for Active; 'I' for Inactive)
REMARK    1  A    between atoms: C_1  and  C_2
REMARK    2  A    between atoms: C_6  and  C_7
REMARK    3  A    between atoms: C_10  and  N_11
REMARK    4  A    between atoms: N_14  and  C_15
REMARK    5  A    between atoms: C_15  and  C_16
REMARK                            x       y       z     vdW  Elec       q    Type
REMARK                         _______ _______ _______ _____ _____    ______ ____
ROOT
ATOM      1  C   UNL     1       6.586   4.785  15.500  0.00  0.00    +0.000 A 
ATOM      2  N   UNL     1       7.578   4.805  16.353  0.00  0.00    +0.000 NA
ATOM      3  C   UNL     1       6.940   4.979  17.549  0.00  0.00    +0.000 A 
ATOM      4  C   UNL     1       7.382   5.115  18.817  0.00  0.00    +0.000 A 
ATOM      5  N   UNL     1       6.510   5.338  19.875  0.00  0.00    +0.000 NA
ATOM      6  C   UNL     1       5.238   5.383  19.607  0.00  0.00    +0.000 A 
ATOM      7  N   UNL     1       4.646   5.238  18.367  0.00  0.00    +0.000 N 
ATOM      8  C   UNL     1       5.496   5.066  17.302  0.00  0.00    +0.000 A 
ATOM      9  N   UNL     1       5.311   4.973  16.024  0.00  0.00    +0.000 NA
ENDROOT
BRANCH   1  15
ATOM     10  C   UNL     1       5.520   2.134  11.373  0.00  0.00    +0.000 C 
ATOM     11  C   UNL     1       6.259   3.254  12.045  0.00  0.00    +0.000 A 
ATOM     12  C   UNL     1       7.152   4.058  11.328  0.00  0.00    +0.000 A 
ATOM     13  C   UNL     1       7.835   5.098  11.961  0.00  0.00    +0.000 A 
ATOM     14  C   UNL     1       7.634   5.342  13.319  0.00  0.00    +0.000 A 
ATOM     15  C   UNL     1       6.750   4.541  14.048  0.00  0.00    +0.000 A 
ATOM     16  C   UNL     1       6.063   3.499  13.412  0.00  0.00    +0.000 A 
ENDBRANCH   1  15
BRANCH   4  17
ATOM     17  N   UNL     1       8.738   5.085  19.083  0.00  0.00    +0.000 N 
ATOM     18  H   UNL     1       8.939   5.469  20.004  0.00  0.00    +0.000 HD
ATOM     19  H   UNL     1       9.092   4.143  18.944  0.00  0.00    +0.000 HD
ENDBRANCH   4  17
BRANCH   7  20
ATOM     20  C   UNL     1       3.228   5.514  18.148  0.00  0.00    +0.000 C 
BRANCH  20  21
ATOM     21  C   UNL     1       2.282   4.502  18.774  0.00  0.00    +0.000 A 
ATOM     22  C   UNL     1       1.562   4.795  19.951  0.00  0.00    +0.000 A 
ATOM     23 CL   UNL     1       1.681   6.312  20.773  0.00  0.00    +0.000 Cl
ATOM     24  C   UNL     1       0.642   3.886  20.497  0.00  0.00    +0.000 A 
ATOM     25  C   UNL     1       0.407   2.664  19.882  0.00  0.00    +0.000 A 
ATOM     26  C   UNL     1       1.099   2.349  18.722  0.00  0.00    +0.000 A 
ATOM     27  C   UNL     1       2.018   3.254  18.170  0.00  0.00    +0.000 A 
ATOM     28 CL   UNL     1       2.715   2.762  16.667  0.00  0.00    +0.000 Cl
ENDBRANCH  20  21
ENDBRANCH   7  20
TORSDOF 4
ENDMDL
MODEL 3
REMARK VINA RESULT:      -8.4      1.634      1.831
REMARK  Name = 
REMARK  5 active torsions:
REMARK  status: ('A' for Active; 'I' for Inactive)
REMARK    1  A    between atoms: C_1  and  C_2
REMARK    2  A    between atoms: C_6  and  C_7
REMARK    3  A    between atoms: C_10  and  N_11
REMARK    4  A    between atoms: N_14  and  C_15
REMARK    5  A    between atoms: C_15  and  C_16
REMARK                            x       y       z     vdW  Elec       q    Type
REMARK                         _______ _______ _______ _____ _____    ______ ____
ROOT
ATOM      1  C   UNL     1       6.633   4.710  15.280  0.00  0.00    +0.000 A 
ATOM      2  N   UNL     1       7.305   5.579  15.990  0.00  0.00    +0.000 NA
ATOM      3  C   UNL     1       6.851   5.345  17.257  0.00  0.00    +0.000 A 
ATOM      4  C   UNL     1       7.115   5.918  18.451  0.00  0.00    +0.000 A 
ATOM      5  N   UNL     1       6.465   5.519  19.613  0.00  0.00    +0.000 NA
ATOM      6  C   UNL     1       5.607   4.546  19.518  0.00  0.00    +0.000 A 
ATOM      7  N   UNL     1       5.257   3.857  18.374  0.00  0.00    +0.000 N 
ATOM      8  C   UNL     1       5.853   4.270  17.206  0.00  0.00    +0.000 A 
ATOM      9  N   UNL     1       5.718   3.919  15.968  0.00  0.00    +0.000 NA
ENDROOT
BRANCH   1  15
ATOM     10  C   UNL     1       5.893   2.006  11.116  0.00  0.00    +0.000 C 
ATOM     11  C   UNL     1       6.489   3.199  11.803  0.00  0.00    +0.000 A 
ATOM     12  C   UNL     1       7.274   4.118  11.098  0.00  0.00    +0.000 A 
ATOM     13  C   UNL     1       7.825   5.225  11.746  0.00  0.00    +0.000 A 
ATOM     14  C   UNL     1       7.600   5.423  13.107  0.00  0.00    +0.000 A 
ATOM     15  C   UNL     1       6.823   4.509  13.825  0.00  0.00    +0.000 A 
ATOM     16  C   UNL     1       6.268   3.399  13.174  0.00  0.00    +0.000 A 
ENDBRANCH   1  15
BRANCH   4  17
ATOM     17  N   UNL     1       8.015   6.964  18.531  0.00  0.00    +0.000 N 
ATOM     18  H   UNL     1       8.254   7.166  19.499  0.00  0.00    +0.000 HD
ATOM     19  H   UNL     1       8.818   6.769  17.941  0.00  0.00    +0.000 HD
ENDBRANCH   4  17
BRANCH   7  20
ATOM     20  C   UNL     1       4.132   2.925  18.342  0.00  0.00    +0.000 C 
BRANCH  20  21
ATOM     21  C   UNL     1       3.135   3.097  19.477  0.00  0.00    +0.000 A 
ATOM     22  C   UNL     1       1.919   3.787  19.293  0.00  0.00    +0.000 A 
ATOM     23 CL   UNL     1       1.452   4.482  17.780  0.00  0.00    +0.000 Cl
ATOM     24  C   UNL     1       0.971   3.894  20.323  0.00  0.00    +0.000 A 
ATOM     25  C   UNL     1       1.203   3.312  21.560  0.00  0.00    +0.000 A 
ATOM     26  C   UNL     1       2.389   2.624  21.770  0.00  0.00    +0.000 A 
ATOM     27  C   UNL     1       3.341   2.512  20.745  0.00  0.00    +0.000 A 
ATOM     28 CL   UNL     1       4.714   1.535  21.128  0.00  0.00    +0.000 Cl
ENDBRANCH  20  21
ENDBRANCH   7  20
TORSDOF 4
ENDMDL
MODEL 4
REMARK VINA RESULT:      -8.1      1.543      2.356
REMARK  Name = 
REMARK  5 active torsions:
REMARK  status: ('A' for Active; 'I' for Inactive)
REMARK    1  A    between atoms: C_1  and  C_2
REMARK    2  A    between atoms: C_6  and  C_7
REMARK    3  A    between atoms: C_10  and  N_11
REMARK    4  A    between atoms: N_14  and  C_15
REMARK    5  A    between atoms: C_15  and  C_16
REMARK                            x       y       z     vdW  Elec       q    Type
REMARK                         _______ _______ _______ _____ _____    ______ ____
ROOT
ATOM      1  C   UNL     1       6.473   4.728  15.649  0.00  0.00    +0.000 A 
ATOM      2  N   UNL     1       7.454   4.847  16.506  0.00  0.00    +0.000 NA
ATOM      3  C   UNL     1       6.799   4.926  17.702  0.00  0.00    +0.000 A 
ATOM      4  C   UNL     1       7.221   5.089  18.974  0.00  0.00    +0.000 A 
ATOM      5  N   UNL     1       6.328   5.192  20.033  0.00  0.00    +0.000 NA
ATOM      6  C   UNL     1       5.059   5.097  19.761  0.00  0.00    +0.000 A 
ATOM      7  N   UNL     1       4.489   4.908  18.517  0.00  0.00    +0.000 N 
ATOM      8  C   UNL     1       5.355   4.853  17.452  0.00  0.00    +0.000 A 
ATOM      9  N   UNL     1       5.184   4.762  16.172  0.00  0.00    +0.000 NA
ENDROOT
BRANCH   1  15
ATOM     10  C   UNL     1       5.406   2.279  11.400  0.00  0.00    +0.000 C 
ATOM     11  C   UNL     1       6.173   3.340  12.132  0.00  0.00    +0.000 A 
ATOM     12  C   UNL     1       7.119   4.130  11.469  0.00  0.00    +0.000 A 
ATOM     13  C   UNL     1       7.829   5.115  12.158  0.00  0.00    +0.000 A 
ATOM     14  C   UNL     1       7.603   5.318  13.519  0.00  0.00    +0.000 A 
ATOM     15  C   UNL     1       6.665   4.531  14.194  0.00  0.00    +0.000 A 
ATOM     16  C   UNL     1       5.952   3.544  13.502  0.00  0.00    +0.000 A 
ENDBRANCH   1  15
BRANCH   4  17
ATOM     17  N   UNL     1       8.572   5.208  19.244  0.00  0.00    +0.000 N 
ATOM     18  H   UNL     1       9.064   5.632  18.461  0.00  0.00    +0.000 HD
ATOM     19  H   UNL     1       8.702   5.695  20.125  0.00  0.00    +0.000 HD
ENDBRANCH   4  17
BRANCH   7  20
ATOM     20  C   UNL     1       3.050   5.024  18.298  0.00  0.00    +0.000 C 
BRANCH  20  21
ATOM     21  C   UNL     1       2.367   6.098  19.129  0.00  0.00    +0.000 A 
ATOM     22  C   UNL     1       1.734   5.794  20.352  0.00  0.00    +0.000 A 
ATOM     23 CL   UNL     1       1.685   4.197  21.013  0.00  0.00    +0.000 Cl
ATOM     24  C   UNL     1       1.155   6.793  21.150  0.00  0.00    +0.000 A 
ATOM     25  C   UNL     1       1.198   8.123  20.758  0.00  0.00    +0.000 A 
ATOM     26  C   UNL     1       1.816   8.454  19.561  0.00  0.00    +0.000 A 
ATOM     27  C   UNL     1       2.397   7.459  18.759  0.00  0.00    +0.000 A 
ATOM     28 CL   UNL     1       3.222   8.043  17.356  0.00  0.00    +0.000 Cl
ENDBRANCH  20  21
ENDBRANCH   7  20
TORSDOF 4
ENDMDL
MODEL 5
REMARK VINA RESULT:      -8.1      1.640      1.832
REMARK  Name = 
REMARK  5 active torsions:
REMARK  status: ('A' for Active; 'I' for Inactive)
REMARK    1  A    between atoms: C_1  and  C_2
REMARK    2  A    between atoms: C_6  and  C_7
REMARK    3  A    between atoms: C_10  and  N_11
REMARK    4  A    between atoms: N_14  and  C_15
REMARK    5  A    between atoms: C_15  and  C_16
REMARK                            x       y       z     vdW  Elec       q    Type
REMARK                         _______ _______ _______ _____ _____    ______ ____
ROOT
ATOM      1  C   UNL     1       6.590   4.689  15.215  0.00  0.00    +0.000 A 
ATOM      2  N   UNL     1       7.229   5.590  15.916  0.00  0.00    +0.000 NA
ATOM      3  C   UNL     1       6.767   5.366  17.183  0.00  0.00    +0.000 A 
ATOM      4  C   UNL     1       7.001   5.967  18.368  0.00  0.00    +0.000 A 
ATOM      5  N   UNL     1       6.349   5.572  19.530  0.00  0.00    +0.000 NA
ATOM      6  C   UNL     1       5.519   4.575  19.444  0.00  0.00    +0.000 A 
ATOM      7  N   UNL     1       5.201   3.855  18.308  0.00  0.00    +0.000 N 
ATOM      8  C   UNL     1       5.799   4.264  17.140  0.00  0.00    +0.000 A 
ATOM      9  N   UNL     1       5.688   3.887  15.907  0.00  0.00    +0.000 NA
ENDROOT
BRANCH   1  15
ATOM     10  C   UNL     1       5.967   1.895  11.092  0.00  0.00    +0.000 C 
ATOM     11  C   UNL     1       6.525   3.115  11.765  0.00  0.00    +0.000 A 
ATOM     12  C   UNL     1       7.295   4.040  11.052  0.00  0.00    +0.000 A 
ATOM     13  C   UNL     1       7.811   5.172  11.686  0.00  0.00    +0.000 A 
ATOM     14  C   UNL     1       7.564   5.388  13.041  0.00  0.00    +0.000 A 
ATOM     15  C   UNL     1       6.802   4.468  13.766  0.00  0.00    +0.000 A 
ATOM     16  C   UNL     1       6.282   3.333  13.129  0.00  0.00    +0.000 A 
ENDBRANCH   1  15
BRANCH   4  17
ATOM     17  N   UNL     1       7.872   7.039  18.439  0.00  0.00    +0.000 N 
ATOM     18  H   UNL     1       7.489   7.853  17.963  0.00  0.00    +0.000 HD
ATOM     19  H   UNL     1       8.124   7.209  19.408  0.00  0.00    +0.000 HD
ENDBRANCH   4  17
BRANCH   7  20
ATOM     20  C   UNL     1       4.102   2.893  18.281  0.00  0.00    +0.000 C 
BRANCH  20  21
ATOM     21  C   UNL     1       3.093   3.052  19.407  0.00  0.00    +0.000 A 
ATOM     22  C   UNL     1       3.311   2.483  20.680  0.00  0.00    +0.000 A 
ATOM     23 CL   UNL     1       4.728   1.574  21.072  0.00  0.00    +0.000 Cl
ATOM     24  C   UNL     1       2.410   2.679  21.738  0.00  0.00    +0.000 A 
ATOM     25  C   UNL     1       1.272   3.453  21.562  0.00  0.00    +0.000 A 
ATOM     26  C   UNL     1       1.032   4.028  20.322  0.00  0.00    +0.000 A 
ATOM     27  C   UNL     1       1.930   3.837  19.261  0.00  0.00    +0.000 A 
ATOM     28 CL   UNL     1       1.548   4.706  17.817  0.00  0.00    +0.000 Cl
ENDBRANCH  20  21
ENDBRANCH   7  20
TORSDOF 4
ENDMDL
MODEL 6
REMARK VINA RESULT:      -8.1      1.569      2.344
REMARK  Name = 
REMARK  5 active torsions:
REMARK  status: ('A' for Active; 'I' for Inactive)
REMARK    1  A    between atoms: C_1  and  C_2
REMARK    2  A    between atoms: C_6  and  C_7
REMARK    3  A    between atoms: C_10  and  N_11
REMARK    4  A    between atoms: N_14  and  C_15
REMARK    5  A    between atoms: C_15  and  C_16
REMARK                            x       y       z     vdW  Elec       q    Type
REMARK                         _______ _______ _______ _____ _____    ______ ____
ROOT
ATOM      1  C   UNL     1       6.421   4.720  15.591  0.00  0.00    +0.000 A 
ATOM      2  N   UNL     1       7.402   4.760  16.456  0.00  0.00    +0.000 NA
ATOM      3  C   UNL     1       6.746   4.894  17.647  0.00  0.00    +0.000 A 
ATOM      4  C   UNL     1       7.170   5.024  18.922  0.00  0.00    +0.000 A 
ATOM      5  N   UNL     1       6.279   5.202  19.973  0.00  0.00    +0.000 NA
ATOM      6  C   UNL     1       5.009   5.209  19.692  0.00  0.00    +0.000 A 
ATOM      7  N   UNL     1       4.436   5.065  18.443  0.00  0.00    +0.000 N 
ATOM      8  C   UNL     1       5.303   4.937  17.385  0.00  0.00    +0.000 A 
ATOM      9  N   UNL     1       5.134   4.858  16.104  0.00  0.00    +0.000 NA
ENDROOT
BRANCH   1  15
ATOM     10  C   UNL     1       5.322   2.233  11.371  0.00  0.00    +0.000 C 
ATOM     11  C   UNL     1       6.100   3.296  12.090  0.00  0.00    +0.000 A 
ATOM     12  C   UNL     1       7.052   4.070  11.416  0.00  0.00    +0.000 A 
ATOM     13  C   UNL     1       7.772   5.056  12.093  0.00  0.00    +0.000 A 
ATOM     14  C   UNL     1       7.551   5.276  13.452  0.00  0.00    +0.000 A 
ATOM     15  C   UNL     1       6.608   4.505  14.138  0.00  0.00    +0.000 A 
ATOM     16  C   UNL     1       5.884   3.516  13.459  0.00  0.00    +0.000 A 
ENDBRANCH   1  15
BRANCH   4  17
ATOM     17  N   UNL     1       8.523   5.034  19.202  0.00  0.00    +0.000 N 
ATOM     18  H   UNL     1       9.045   4.511  18.502  0.00  0.00    +0.000 HD
ATOM     19  H   UNL     1       8.840   5.991  19.321  0.00  0.00    +0.000 HD
ENDBRANCH   4  17
BRANCH   7  20
ATOM     20  C   UNL     1       3.012   5.297  18.212  0.00  0.00    +0.000 C 
BRANCH  20  21
ATOM     21  C   UNL     1       2.370   6.294  19.163  0.00  0.00    +0.000 A 
ATOM     22  C   UNL     1       2.319   7.672  18.863  0.00  0.00    +0.000 A 
ATOM     23 CL   UNL     1       2.963   8.341  17.405  0.00  0.00    +0.000 Cl
ATOM     24  C   UNL     1       1.673   8.586  19.710  0.00  0.00    +0.000 A 
ATOM     25  C   UNL     1       1.054   8.154  20.874  0.00  0.00    +0.000 A 
ATOM     26  C   UNL     1       1.086   6.804  21.195  0.00  0.00    +0.000 A 
ATOM     27  C   UNL     1       1.729   5.885  20.351  0.00  0.00    +0.000 A 
ATOM     28 CL   UNL     1       1.587   4.231  20.831  0.00  0.00    +0.000 Cl
ENDBRANCH  20  21
ENDBRANCH   7  20
TORSDOF 4
ENDMDL
MODEL 7
REMARK VINA RESULT:      -8.0      2.983      4.865
REMARK  Name = 
REMARK  5 active torsions:
REMARK  status: ('A' for Active; 'I' for Inactive)
REMARK    1  A    between atoms: C_1  and  C_2
REMARK    2  A    between atoms: C_6  and  C_7
REMARK    3  A    between atoms: C_10  and  N_11
REMARK    4  A    between atoms: N_14  and  C_15
REMARK    5  A    between atoms: C_15  and  C_16
REMARK                            x       y       z     vdW  Elec       q    Type
REMARK                         _______ _______ _______ _____ _____    ______ ____
ROOT
ATOM      1  C   UNL     1       4.128   4.439  17.326  0.00  0.00    +0.000 A 
ATOM      2  N   UNL     1       3.411   3.361  17.518  0.00  0.00    +0.000 NA
ATOM      3  C   UNL     1       2.532   3.755  18.486  0.00  0.00    +0.000 A 
ATOM      4  C   UNL     1       1.547   3.115  19.152  0.00  0.00    +0.000 A 
ATOM      5  N   UNL     1       0.814   3.742  20.152  0.00  0.00    +0.000 NA
ATOM      6  C   UNL     1       1.089   4.987  20.409  0.00  0.00    +0.000 A 
ATOM      7  N   UNL     1       2.048   5.769  19.795  0.00  0.00    +0.000 N 
ATOM      8  C   UNL     1       2.816   5.151  18.837  0.00  0.00    +0.000 A 
ATOM      9  N   UNL     1       3.827   5.536  18.126  0.00  0.00    +0.000 NA
ENDROOT
BRANCH   1  15
ATOM     10  C   UNL     1       5.845   3.511  12.701  0.00  0.00    +0.000 C 
ATOM     11  C   UNL     1       6.044   4.092  14.070  0.00  0.00    +0.000 A 
ATOM     12  C   UNL     1       7.250   4.707  14.422  0.00  0.00    +0.000 A 
ATOM     13  C   UNL     1       7.426   5.245  15.699  0.00  0.00    +0.000 A 
ATOM     14  C   UNL     1       6.399   5.170  16.637  0.00  0.00    +0.000 A 
ATOM     15  C   UNL     1       5.191   4.551  16.301  0.00  0.00    +0.000 A 
ATOM     16  C   UNL     1       5.013   4.014  15.019  0.00  0.00    +0.000 A 
ENDBRANCH   1  15
BRANCH   4  17
ATOM     17  N   UNL     1       1.281   1.786  18.881  0.00  0.00    +0.000 N 
ATOM     18  H   UNL     1       1.870   1.174  19.441  0.00  0.00    +0.000 HD
ATOM     19  H   UNL     1       0.287   1.609  18.986  0.00  0.00    +0.000 HD
ENDBRANCH   4  17
BRANCH   7  20
ATOM     20  C   UNL     1       2.414   7.089  20.302  0.00  0.00    +0.000 C 
BRANCH  20  21
ATOM     21  C   UNL     1       1.554   8.229  19.782  0.00  0.00    +0.000 A 
ATOM     22  C   UNL     1       0.559   8.828  20.583  0.00  0.00    +0.000 A 
ATOM     23 CL   UNL     1       0.237   8.333  22.208  0.00  0.00    +0.000 Cl
ATOM     24  C   UNL     1      -0.195   9.920  20.125  0.00  0.00    +0.000 A 
ATOM     25  C   UNL     1       0.026  10.452  18.863  0.00  0.00    +0.000 A 
ATOM     26  C   UNL     1       1.000   9.886  18.054  0.00  0.00    +0.000 A 
ATOM     27  C   UNL     1       1.758   8.795  18.505  0.00  0.00    +0.000 A 
ATOM     28 CL   UNL     1       3.003   8.274  17.425  0.00  0.00    +0.000 Cl
ENDBRANCH  20  21
ENDBRANCH   7  20
TORSDOF 4
ENDMDL
MODEL 8
REMARK VINA RESULT:      -7.9      2.979      4.611
REMARK  Name = 
REMARK  5 active torsions:
REMARK  status: ('A' for Active; 'I' for Inactive)
REMARK    1  A    between atoms: C_1  and  C_2
REMARK    2  A    between atoms: C_6  and  C_7
REMARK    3  A    between atoms: C_10  and  N_11
REMARK    4  A    between atoms: N_14  and  C_15
REMARK    5  A    between atoms: C_15  and  C_16
REMARK                            x       y       z     vdW  Elec       q    Type
REMARK                         _______ _______ _______ _____ _____    ______ ____
ROOT
ATOM      1  C   UNL     1       4.099   4.451  17.328  0.00  0.00    +0.000 A 
ATOM      2  N   UNL     1       3.361   3.385  17.509  0.00  0.00    +0.000 NA
ATOM      3  C   UNL     1       2.486   3.788  18.479  0.00  0.00    +0.000 A 
ATOM      4  C   UNL     1       1.488   3.162  19.137  0.00  0.00    +0.000 A 
ATOM      5  N   UNL     1       0.764   3.794  20.140  0.00  0.00    +0.000 NA
ATOM      6  C   UNL     1       1.062   5.031  20.409  0.00  0.00    +0.000 A 
ATOM      7  N   UNL     1       2.038   5.800  19.803  0.00  0.00    +0.000 N 
ATOM      8  C   UNL     1       2.797   5.176  18.842  0.00  0.00    +0.000 A 
ATOM      9  N   UNL     1       3.817   5.547  18.137  0.00  0.00    +0.000 NA
ENDROOT
BRANCH   1  15
ATOM     10  C   UNL     1       5.825   3.497  12.712  0.00  0.00    +0.000 C 
ATOM     11  C   UNL     1       6.023   4.080  14.081  0.00  0.00    +0.000 A 
ATOM     12  C   UNL     1       7.234   4.685  14.436  0.00  0.00    +0.000 A 
ATOM     13  C   UNL     1       7.410   5.224  15.712  0.00  0.00    +0.000 A 
ATOM     14  C   UNL     1       6.378   5.160  16.647  0.00  0.00    +0.000 A 
ATOM     15  C   UNL     1       5.166   4.552  16.307  0.00  0.00    +0.000 A 
ATOM     16  C   UNL     1       4.989   4.013  15.026  0.00  0.00    +0.000 A 
ENDBRANCH   1  15
BRANCH   4  17
ATOM     17  N   UNL     1       1.197   1.840  18.853  0.00  0.00    +0.000 N 
ATOM     18  H   UNL     1       2.039   1.269  18.871  0.00  0.00    +0.000 HD
ATOM     19  H   UNL     1       0.464   1.512  19.474  0.00  0.00    +0.000 HD
ENDBRANCH   4  17
BRANCH   7  20
ATOM     20  C   UNL     1       2.428   7.108  20.323  0.00  0.00    +0.000 C 
BRANCH  20  21
ATOM     21  C   UNL     1       1.579   8.266  19.826  0.00  0.00    +0.000 A 
ATOM     22  C   UNL     1       1.762   8.818  18.540  0.00  0.00    +0.000 A 
ATOM     23 CL   UNL     1       2.945   8.229  17.425  0.00  0.00    +0.000 Cl
ATOM     24  C   UNL     1       0.939   9.847  18.057  0.00  0.00    +0.000 A 
ATOM     25  C   UNL     1      -0.094  10.350  18.836  0.00  0.00    +0.000 A 
ATOM     26  C   UNL     1      -0.300   9.826  20.104  0.00  0.00    +0.000 A 
ATOM     27  C   UNL     1       0.519   8.796  20.592  0.00  0.00    +0.000 A 
ATOM     28 CL   UNL     1       0.067   8.178  22.141  0.00  0.00    +0.000 Cl
ENDBRANCH  20  21
ENDBRANCH   7  20
TORSDOF 4
ENDMDL
MODEL 9
REMARK VINA RESULT:      -7.9      1.009      1.274
REMARK  Name = 
REMARK  5 active torsions:
REMARK  status: ('A' for Active; 'I' for Inactive)
REMARK    1  A    between atoms: C_1  and  C_2
REMARK    2  A    between atoms: C_6  and  C_7
REMARK    3  A    between atoms: C_10  and  N_11
REMARK    4  A    between atoms: N_14  and  C_15
REMARK    5  A    between atoms: C_15  and  C_16
REMARK                            x       y       z     vdW  Elec       q    Type
REMARK                         _______ _______ _______ _____ _____    ______ ____
ROOT
ATOM      1  C   UNL     1       5.997   4.063  14.825  0.00  0.00    +0.000 A 
ATOM      2  N   UNL     1       7.105   4.049  15.519  0.00  0.00    +0.000 NA
ATOM      3  C   UNL     1       6.682   4.412  16.767  0.00  0.00    +0.000 A 
ATOM      4  C   UNL     1       7.326   4.616  17.935  0.00  0.00    +0.000 A 
ATOM      5  N   UNL     1       6.655   5.041  19.075  0.00  0.00    +0.000 NA
ATOM      6  C   UNL     1       5.368   5.210  18.988  0.00  0.00    +0.000 A 
ATOM      7  N   UNL     1       4.580   5.017  17.871  0.00  0.00    +0.000 N 
ATOM      8  C   UNL     1       5.233   4.644  16.721  0.00  0.00    +0.000 A 
ATOM      9  N   UNL     1       4.844   4.451  15.501  0.00  0.00    +0.000 NA
ENDROOT
BRANCH   1  15
ATOM     10  C   UNL     1       3.271   3.157  10.709  0.00  0.00    +0.000 C 
ATOM     11  C   UNL     1       4.599   3.202  11.406  0.00  0.00    +0.000 A 
ATOM     12  C   UNL     1       5.771   2.821  10.744  0.00  0.00    +0.000 A 
ATOM     13  C   UNL     1       7.003   2.865  11.400  0.00  0.00    +0.000 A 
ATOM     14  C   UNL     1       7.074   3.287  12.727  0.00  0.00    +0.000 A 
ATOM     15  C   UNL     1       5.909   3.663  13.402  0.00  0.00    +0.000 A 
ATOM     16  C   UNL     1       4.673   3.621  12.742  0.00  0.00    +0.000 A 
ENDBRANCH   1  15
BRANCH   4  17
ATOM     17  N   UNL     1       8.697   4.452  18.006  0.00  0.00    +0.000 N 
ATOM     18  H   UNL     1       9.180   5.328  17.820  0.00  0.00    +0.000 HD
ATOM     19  H   UNL     1       8.944   4.026  18.894  0.00  0.00    +0.000 HD
ENDBRANCH   4  17
BRANCH   7  20
ATOM     20  C   UNL     1       3.181   5.435  17.826  0.00  0.00    +0.000 C 
BRANCH  20  21
ATOM     21  C   UNL     1       2.252   4.635  18.724  0.00  0.00    +0.000 A 
ATOM     22  C   UNL     1       1.960   3.279  18.465  0.00  0.00    +0.000 A 
ATOM     23 CL   UNL     1       2.630   2.414  17.126  0.00  0.00    +0.000 Cl
ATOM     24  C   UNL     1       1.150   2.522  19.327  0.00  0.00    +0.000 A 
ATOM     25  C   UNL     1       0.616   3.090  20.474  0.00  0.00    +0.000 A 
ATOM     26  C   UNL     1       0.888   4.421  20.757  0.00  0.00    +0.000 A 
ATOM     27  C   UNL     1       1.697   5.183  19.901  0.00  0.00    +0.000 A 
ATOM     28 CL   UNL     1       2.030   6.788  20.447  0.00  0.00    +0.000 Cl
ENDBRANCH  20  21
ENDBRANCH   7  20
TORSDOF 4
ENDMDL
