MODEL 1
REMARK VINA RESULT:      -7.6      0.000      0.000
REMARK  Name = 
REMARK  5 active torsions:
REMARK  status: ('A' for Active; 'I' for Inactive)
REMARK    1  A    between atoms: C_1  and  O_2
REMARK    2  A    between atoms: O_2  and  C_3
REMARK    3  A    between atoms: C_7  and  C_8
REMARK    4  A    between atoms: C_8  and  N_9
REMARK    5  A    between atoms: C_12  and  N_13
REMARK                            x       y       z     vdW  Elec       q    Type
REMARK                         _______ _______ _______ _____ _____    ______ ____
ROOT
ATOM      1  C   UNL     1       1.777   3.720  20.248  0.00  0.00    +0.000 A 
ATOM      2  C   UNL     1       1.236   4.862  20.821  0.00  0.00    +0.000 A 
ATOM      3  C   UNL     1       1.551   6.128  20.335  0.00  0.00    +0.000 A 
ATOM      4  C   UNL     1       2.415   6.303  19.230  0.00  0.00    +0.000 A 
ATOM      5  C   UNL     1       2.724   7.609  18.726  0.00  0.00    +0.000 A 
ATOM      6  C   UNL     1       3.600   7.711  17.632  0.00  0.00    +0.000 A 
ATOM      7  C   UNL     1       4.155   6.579  17.015  0.00  0.00    +0.000 A 
ATOM      8  C   UNL     1       5.035   6.741  15.915  0.00  0.00    +0.000 A 
ATOM      9  C   UNL     1       5.577   5.606  15.320  0.00  0.00    +0.000 A 
ATOM     10  C   UNL     1       5.290   4.372  15.764  0.00  0.00    +0.000 A 
ATOM     11  C   UNL     1       4.444   4.146  16.839  0.00  0.00    +0.000 A 
ATOM     12  C   UNL     1       3.851   5.265  17.501  0.00  0.00    +0.000 A 
ATOM     13  C   UNL     1       2.977   5.132  18.619  0.00  0.00    +0.000 A 
ATOM     14  C   UNL     1       2.645   3.854  19.154  0.00  0.00    +0.000 A 
ATOM     15  O   UNL     1       5.938   3.468  15.021  0.00  0.00    +0.000 OA
ATOM     16  C   UNL     1       6.670   4.161  14.063  0.00  0.00    +0.000 C 
ATOM     17  O   UNL     1       6.416   5.516  14.283  0.00  0.00    +0.000 OA
ENDROOT
BRANCH   1  19
ATOM     18  C   UNL     1       1.353   2.169  22.108  0.00  0.00    +0.000 C 
ATOM     19  O   UNL     1       1.421   2.514  20.772  0.00  0.00    +0.000 OA
ENDBRANCH   1  19
BRANCH   5  20
ATOM     20  C   UNL     1       2.203   8.921  19.368  0.00  0.00    +0.000 C 
BRANCH  20  21
ATOM     21  N   UNL     1       0.761   9.247  19.156  0.00  0.00    +0.000 NA
ATOM     22  C   UNL     1       0.466   9.541  17.732  0.00  0.00    +0.000 C 
ATOM     23  C   UNL     1      -0.972  10.023  17.493  0.00  0.00    +0.000 C 
ATOM     24  C   UNL     1      -1.282  11.207  18.416  0.00  0.00    +0.000 C 
ATOM     25  C   UNL     1      -1.170  10.699  19.854  0.00  0.00    +0.000 C 
ATOM     26  C   UNL     1       0.281  10.266  20.120  0.00  0.00    +0.000 C 
BRANCH  24  27
ATOM     27  N   UNL     1      -2.615  11.751  18.158  0.00  0.00    +0.000 NA
ATOM     28  H   UNL     1      -2.747  12.660  18.657  0.00  0.00    +0.000 HD
ATOM     29  H   UNL     1      -3.333  11.070  18.499  0.00  0.00    +0.000 HD
ENDBRANCH  24  27
ENDBRANCH  20  21
ENDBRANCH   5  20
TORSDOF 4
ENDMDL
MODEL 2
REMARK VINA RESULT:      -7.6      3.405      7.086
REMARK  Name = 
REMARK  5 active torsions:
REMARK  status: ('A' for Active; 'I' for Inactive)
REMARK    1  A    between atoms: C_1  and  O_2
REMARK    2  A    between atoms: O_2  and  C_3
REMARK    3  A    between atoms: C_7  and  C_8
REMARK    4  A    between atoms: C_8  and  N_9
REMARK    5  A    between atoms: C_12  and  N_13
REMARK                            x       y       z     vdW  Elec       q    Type
REMARK                         _______ _______ _______ _____ _____    ______ ____
ROOT
ATOM      1  C   UNL     1       2.706   3.973  20.322  0.00  0.00    +0.000 A 
ATOM      2  C   UNL     1       3.469   3.815  19.174  0.00  0.00    +0.000 A 
ATOM      3  C   UNL     1       3.659   4.871  18.286  0.00  0.00    +0.000 A 
ATOM      4  C   UNL     1       3.103   6.148  18.526  0.00  0.00    +0.000 A 
ATOM      5  C   UNL     1       3.314   7.235  17.615  0.00  0.00    +0.000 A 
ATOM      6  C   UNL     1       2.721   8.475  17.908  0.00  0.00    +0.000 A 
ATOM      7  C   UNL     1       1.956   8.679  19.067  0.00  0.00    +0.000 A 
ATOM      8  C   UNL     1       1.379   9.951  19.311  0.00  0.00    +0.000 A 
ATOM      9  C   UNL     1       0.622  10.131  20.464  0.00  0.00    +0.000 A 
ATOM     10  C   UNL     1       0.424   9.133  21.341  0.00  0.00    +0.000 A 
ATOM     11  C   UNL     1       0.952   7.865  21.156  0.00  0.00    +0.000 A 
ATOM     12  C   UNL     1       1.741   7.606  19.992  0.00  0.00    +0.000 A 
ATOM     13  C   UNL     1       2.317   6.333  19.713  0.00  0.00    +0.000 A 
ATOM     14  C   UNL     1       2.131   5.225  20.590  0.00  0.00    +0.000 A 
ATOM     15  O   UNL     1      -0.335   9.571  22.351  0.00  0.00    +0.000 OA
ATOM     16  C   UNL     1      -0.631  10.907  22.104  0.00  0.00    +0.000 C 
ATOM     17  O   UNL     1      -0.007  11.228  20.898  0.00  0.00    +0.000 OA
ENDROOT
BRANCH   1  19
ATOM     18  C   UNL     1       1.441   2.533  21.862  0.00  0.00    +0.000 C 
ATOM     19  O   UNL     1       2.566   2.899  21.148  0.00  0.00    +0.000 OA
ENDBRANCH   1  19
BRANCH   5  20
ATOM     20  C   UNL     1       4.100   7.098  16.284  0.00  0.00    +0.000 C 
BRANCH  20  21
ATOM     21  N   UNL     1       5.493   6.571  16.379  0.00  0.00    +0.000 NA
ATOM     22  C   UNL     1       5.585   5.165  15.912  0.00  0.00    +0.000 C 
ATOM     23  C   UNL     1       6.969   4.539  16.129  0.00  0.00    +0.000 C 
ATOM     24  C   UNL     1       7.387   4.701  17.594  0.00  0.00    +0.000 C 
ATOM     25  C   UNL     1       7.482   6.201  17.873  0.00  0.00    +0.000 C 
ATOM     26  C   UNL     1       6.089   6.829  17.712  0.00  0.00    +0.000 C 
BRANCH  24  27
ATOM     27  N   UNL     1       8.665   4.039  17.862  0.00  0.00    +0.000 NA
ATOM     28  H   UNL     1       8.763   3.177  17.281  0.00  0.00    +0.000 HD
ATOM     29  H   UNL     1       8.706   3.773  18.873  0.00  0.00    +0.000 HD
ENDBRANCH  24  27
ENDBRANCH  20  21
ENDBRANCH   5  20
TORSDOF 4
ENDMDL
MODEL 3
REMARK VINA RESULT:      -7.4      1.056      4.985
REMARK  Name = 
REMARK  5 active torsions:
REMARK  status: ('A' for Active; 'I' for Inactive)
REMARK    1  A    between atoms: C_1  and  O_2
REMARK    2  A    between atoms: O_2  and  C_3
REMARK    3  A    between atoms: C_7  and  C_8
REMARK    4  A    between atoms: C_8  and  N_9
REMARK    5  A    between atoms: C_12  and  N_13
REMARK                            x       y       z     vdW  Elec       q    Type
REMARK                         _______ _______ _______ _____ _____    ______ ____
ROOT
ATOM      1  C   UNL     1       5.594   5.337  15.893  0.00  0.00    +0.000 A 
ATOM      2  C   UNL     1       5.329   6.649  15.525  0.00  0.00    +0.000 A 
ATOM      3  C   UNL     1       4.412   7.422  16.232  0.00  0.00    +0.000 A 
ATOM      4  C   UNL     1       3.731   6.914  17.362  0.00  0.00    +0.000 A 
ATOM      5  C   UNL     1       2.799   7.720  18.095  0.00  0.00    +0.000 A 
ATOM      6  C   UNL     1       2.148   7.148  19.200  0.00  0.00    +0.000 A 
ATOM      7  C   UNL     1       2.401   5.831  19.614  0.00  0.00    +0.000 A 
ATOM      8  C   UNL     1       1.714   5.304  20.736  0.00  0.00    +0.000 A 
ATOM      9  C   UNL     1       1.978   3.996  21.127  0.00  0.00    +0.000 A 
ATOM     10  C   UNL     1       2.858   3.226  20.468  0.00  0.00    +0.000 A 
ATOM     11  C   UNL     1       3.556   3.678  19.359  0.00  0.00    +0.000 A 
ATOM     12  C   UNL     1       3.336   5.013  18.898  0.00  0.00    +0.000 A 
ATOM     13  C   UNL     1       4.000   5.562  17.763  0.00  0.00    +0.000 A 
ATOM     14  C   UNL     1       4.932   4.796  17.005  0.00  0.00    +0.000 A 
ATOM     15  O   UNL     1       2.921   2.022  21.047  0.00  0.00    +0.000 OA
ATOM     16  C   UNL     1       2.039   2.029  22.122  0.00  0.00    +0.000 C 
ATOM     17  O   UNL     1       1.459   3.297  22.143  0.00  0.00    +0.000 OA
ENDROOT
BRANCH   1  19
ATOM     18  C   UNL     1       6.301   4.018  13.943  0.00  0.00    +0.000 C 
ATOM     19  O   UNL     1       6.506   4.641  15.159  0.00  0.00    +0.000 OA
ENDBRANCH   1  19
BRANCH   5  20
ATOM     20  C   UNL     1       2.413   9.167  17.688  0.00  0.00    +0.000 C 
BRANCH  20  21
ATOM     21  N   UNL     1       1.257   9.781  18.407  0.00  0.00    +0.000 NA
ATOM     22  C   UNL     1      -0.020   9.569  17.681  0.00  0.00    +0.000 C 
ATOM     23  C   UNL     1      -1.209  10.308  18.309  0.00  0.00    +0.000 C 
ATOM     24  C   UNL     1      -0.867  11.793  18.478  0.00  0.00    +0.000 C 
ATOM     25  C   UNL     1       0.321  11.875  19.438  0.00  0.00    +0.000 C 
ATOM     26  C   UNL     1       1.534  11.185  18.793  0.00  0.00    +0.000 C 
BRANCH  24  27
ATOM     27  N   UNL     1      -2.008  12.549  18.994  0.00  0.00    +0.000 NA
ATOM     28  H   UNL     1      -1.727  13.528  19.226  0.00  0.00    +0.000 HD
ATOM     29  H   UNL     1      -2.362  12.083  19.861  0.00  0.00    +0.000 HD
ENDBRANCH  24  27
ENDBRANCH  20  21
ENDBRANCH   5  20
TORSDOF 4
ENDMDL
MODEL 4
REMARK VINA RESULT:      -7.4      3.698      7.004
REMARK  Name = 
REMARK  5 active torsions:
REMARK  status: ('A' for Active; 'I' for Inactive)
REMARK    1  A    between atoms: C_1  and  O_2
REMARK    2  A    between atoms: O_2  and  C_3
REMARK    3  A    between atoms: C_7  and  C_8
REMARK    4  A    between atoms: C_8  and  N_9
REMARK    5  A    between atoms: C_12  and  N_13
REMARK                            x       y       z     vdW  Elec       q    Type
REMARK                         _______ _______ _______ _____ _____    ______ ____
ROOT
ATOM      1  C   UNL     1       2.206   4.667  20.696  0.00  0.00    +0.000 A 
ATOM      2  C   UNL     1       3.150   4.177  19.805  0.00  0.00    +0.000 A 
ATOM      3  C   UNL     1       3.628   4.963  18.760  0.00  0.00    +0.000 A 
ATOM      4  C   UNL     1       3.191   6.295  18.576  0.00  0.00    +0.000 A 
ATOM      5  C   UNL     1       3.698   7.104  17.506  0.00  0.00    +0.000 A 
ATOM      6  C   UNL     1       3.211   8.415  17.373  0.00  0.00    +0.000 A 
ATOM      7  C   UNL     1       2.269   8.953  18.264  0.00  0.00    +0.000 A 
ATOM      8  C   UNL     1       1.811  10.282  18.081  0.00  0.00    +0.000 A 
ATOM      9  C   UNL     1       0.875  10.794  18.973  0.00  0.00    +0.000 A 
ATOM     10  C   UNL     1       0.397  10.062  19.993  0.00  0.00    +0.000 A 
ATOM     11  C   UNL     1       0.797   8.755  20.221  0.00  0.00    +0.000 A 
ATOM     12  C   UNL     1       1.757   8.161  19.344  0.00  0.00    +0.000 A 
ATOM     13  C   UNL     1       2.222   6.822  19.494  0.00  0.00    +0.000 A 
ATOM     14  C   UNL     1       1.742   5.982  20.540  0.00  0.00    +0.000 A 
ATOM     15  O   UNL     1      -0.483  10.789  20.691  0.00  0.00    +0.000 OA
ATOM     16  C   UNL     1      -0.567  12.038  20.086  0.00  0.00    +0.000 C 
ATOM     17  O   UNL     1       0.308  12.006  19.000  0.00  0.00    +0.000 OA
ENDROOT
BRANCH   1  19
ATOM     18  C   UNL     1       1.752   2.463  21.686  0.00  0.00    +0.000 C 
ATOM     19  O   UNL     1       1.787   3.845  21.697  0.00  0.00    +0.000 OA
ENDBRANCH   1  19
BRANCH   5  20
ATOM     20  C   UNL     1       4.701   6.586  16.441  0.00  0.00    +0.000 C 
BRANCH  20  21
ATOM     21  N   UNL     1       6.082   6.274  16.915  0.00  0.00    +0.000 NA
ATOM     22  C   UNL     1       6.224   4.848  17.301  0.00  0.00    +0.000 C 
ATOM     23  C   UNL     1       7.584   4.518  17.930  0.00  0.00    +0.000 C 
ATOM     24  C   UNL     1       7.861   5.475  19.096  0.00  0.00    +0.000 C 
ATOM     25  C   UNL     1       7.922   6.888  18.516  0.00  0.00    +0.000 C 
ATOM     26  C   UNL     1       6.547   7.248  17.932  0.00  0.00    +0.000 C 
BRANCH  24  27
ATOM     27  N   UNL     1       9.110   5.137  19.779  0.00  0.00    +0.000 NA
ATOM     28  H   UNL     1       8.999   5.217  20.815  0.00  0.00    +0.000 HD
ATOM     29  H   UNL     1       9.859   5.799  19.467  0.00  0.00    +0.000 HD
ENDBRANCH  24  27
ENDBRANCH  20  21
ENDBRANCH   5  20
TORSDOF 4
ENDMDL
MODEL 5
REMARK VINA RESULT:      -7.2      0.899      1.021
REMARK  Name = 
REMARK  5 active torsions:
REMARK  status: ('A' for Active; 'I' for Inactive)
REMARK    1  A    between atoms: C_1  and  O_2
REMARK    2  A    between atoms: O_2  and  C_3
REMARK    3  A    between atoms: C_7  and  C_8
REMARK    4  A    between atoms: C_8  and  N_9
REMARK    5  A    between atoms: C_12  and  N_13
REMARK                            x       y       z     vdW  Elec       q    Type
REMARK                         _______ _______ _______ _____ _____    ______ ____
ROOT
ATOM      1  C   UNL     1       1.964   3.445  20.329  0.00  0.00    +0.000 A 
ATOM      2  C   UNL     1       1.339   4.525  20.937  0.00  0.00    +0.000 A 
ATOM      3  C   UNL     1       1.547   5.825  20.483  0.00  0.00    +0.000 A 
ATOM      4  C   UNL     1       2.383   6.098  19.377  0.00  0.00    +0.000 A 
ATOM      5  C   UNL     1       2.581   7.437  18.906  0.00  0.00    +0.000 A 
ATOM      6  C   UNL     1       3.435   7.639  17.809  0.00  0.00    +0.000 A 
ATOM      7  C   UNL     1       4.074   6.572  17.157  0.00  0.00    +0.000 A 
ATOM      8  C   UNL     1       4.927   6.834  16.056  0.00  0.00    +0.000 A 
ATOM      9  C   UNL     1       5.552   5.763  15.426  0.00  0.00    +0.000 A 
ATOM     10  C   UNL     1       5.369   4.498  15.837  0.00  0.00    +0.000 A 
ATOM     11  C   UNL     1       4.555   4.176  16.912  0.00  0.00    +0.000 A 
ATOM     12  C   UNL     1       3.881   5.225  17.610  0.00  0.00    +0.000 A 
ATOM     13  C   UNL     1       3.031   4.993  18.730  0.00  0.00    +0.000 A 
ATOM     14  C   UNL     1       2.808   3.678  19.232  0.00  0.00    +0.000 A 
ATOM     15  O   UNL     1       6.081   3.669  15.065  0.00  0.00    +0.000 OA
ATOM     16  C   UNL     1       6.745   4.445  14.121  0.00  0.00    +0.000 C 
ATOM     17  O   UNL     1       6.386   5.768  14.380  0.00  0.00    +0.000 OA
ENDROOT
BRANCH   1  19
ATOM     18  C   UNL     1       1.469   1.856  22.138  0.00  0.00    +0.000 C 
ATOM     19  O   UNL     1       1.712   2.201  20.822  0.00  0.00    +0.000 OA
ENDBRANCH   1  19
BRANCH   5  20
ATOM     20  C   UNL     1       1.962   8.686  19.589  0.00  0.00    +0.000 C 
BRANCH  20  21
ATOM     21  N   UNL     1       1.283   9.671  18.696  0.00  0.00    +0.000 NA
ATOM     22  C   UNL     1       1.876  11.026  18.816  0.00  0.00    +0.000 C 
ATOM     23  C   UNL     1       1.113  12.099  18.027  0.00  0.00    +0.000 C 
ATOM     24  C   UNL     1      -0.370  12.069  18.412  0.00  0.00    +0.000 C 
ATOM     25  C   UNL     1      -0.911  10.695  18.016  0.00  0.00    +0.000 C 
ATOM     26  C   UNL     1      -0.192   9.617  18.842  0.00  0.00    +0.000 C 
BRANCH  24  27
ATOM     27  N   UNL     1      -1.117  13.136  17.745  0.00  0.00    +0.000 NA
ATOM     28  H   UNL     1      -0.473  13.756  17.205  0.00  0.00    +0.000 HD
ATOM     29  H   UNL     1      -1.613  13.708  18.467  0.00  0.00    +0.000 HD
ENDBRANCH  24  27
ENDBRANCH  20  21
ENDBRANCH   5  20
TORSDOF 4
ENDMDL
MODEL 6
REMARK VINA RESULT:      -7.0      4.730      8.060
REMARK  Name = 
REMARK  5 active torsions:
REMARK  status: ('A' for Active; 'I' for Inactive)
REMARK    1  A    between atoms: C_1  and  O_2
REMARK    2  A    between atoms: O_2  and  C_3
REMARK    3  A    between atoms: C_7  and  C_8
REMARK    4  A    between atoms: C_8  and  N_9
REMARK    5  A    between atoms: C_12  and  N_13
REMARK                            x       y       z     vdW  Elec       q    Type
REMARK                         _______ _______ _______ _____ _____    ______ ____
ROOT
ATOM      1  C   UNL     1      -0.572  10.509  22.141  0.00  0.00    +0.000 A 
ATOM      2  C   UNL     1      -0.431   9.206  21.684  0.00  0.00    +0.000 A 
ATOM      3  C   UNL     1       0.303   8.923  20.535  0.00  0.00    +0.000 A 
ATOM      4  C   UNL     1       0.951   9.942  19.801  0.00  0.00    +0.000 A 
ATOM      5  C   UNL     1       1.718   9.642  18.627  0.00  0.00    +0.000 A 
ATOM      6  C   UNL     1       2.325  10.704  17.938  0.00  0.00    +0.000 A 
ATOM      7  C   UNL     1       2.220  12.034  18.377  0.00  0.00    +0.000 A 
ATOM      8  C   UNL     1       2.852  13.067  17.641  0.00  0.00    +0.000 A 
ATOM      9  C   UNL     1       2.733  14.377  18.092  0.00  0.00    +0.000 A 
ATOM     10  C   UNL     1       2.034  14.682  19.198  0.00  0.00    +0.000 A 
ATOM     11  C   UNL     1       1.386  13.720  19.956  0.00  0.00    +0.000 A 
ATOM     12  C   UNL     1       1.464  12.351  19.553  0.00  0.00    +0.000 A 
ATOM     13  C   UNL     1       0.824  11.295  20.264  0.00  0.00    +0.000 A 
ATOM     14  C   UNL     1       0.051  11.548  21.433  0.00  0.00    +0.000 A 
ATOM     15  O   UNL     1       2.078  16.003  19.404  0.00  0.00    +0.000 OA
ATOM     16  C   UNL     1       2.840  16.561  18.383  0.00  0.00    +0.000 C 
ATOM     17  O   UNL     1       3.239  15.500  17.570  0.00  0.00    +0.000 OA
ENDROOT
BRANCH   1  19
ATOM     18  C   UNL     1      -2.291  11.655  23.474  0.00  0.00    +0.000 C 
ATOM     19  O   UNL     1      -1.300  10.712  23.274  0.00  0.00    +0.000 OA
ENDBRANCH   1  19
BRANCH   5  20
ATOM     20  C   UNL     1       1.852   8.215  18.033  0.00  0.00    +0.000 C 
BRANCH  20  21
ATOM     21  N   UNL     1       3.008   7.396  18.506  0.00  0.00    +0.000 NA
ATOM     22  C   UNL     1       3.967   7.110  17.411  0.00  0.00    +0.000 C 
ATOM     23  C   UNL     1       5.092   6.150  17.820  0.00  0.00    +0.000 C 
ATOM     24  C   UNL     1       4.492   4.876  18.426  0.00  0.00    +0.000 C 
ATOM     25  C   UNL     1       3.725   5.292  19.682  0.00  0.00    +0.000 C 
ATOM     26  C   UNL     1       2.561   6.210  19.276  0.00  0.00    +0.000 C 
BRANCH  24  27
ATOM     27  N   UNL     1       5.531   3.898  18.750  0.00  0.00    +0.000 NA
ATOM     28  H   UNL     1       5.173   2.924  18.625  0.00  0.00    +0.000 HD
ATOM     29  H   UNL     1       5.823   4.027  19.746  0.00  0.00    +0.000 HD
ENDBRANCH  24  27
ENDBRANCH  20  21
ENDBRANCH   5  20
TORSDOF 4
ENDMDL
MODEL 7
REMARK VINA RESULT:      -6.9      3.570      6.977
REMARK  Name = 
REMARK  5 active torsions:
REMARK  status: ('A' for Active; 'I' for Inactive)
REMARK    1  A    between atoms: C_1  and  O_2
REMARK    2  A    between atoms: O_2  and  C_3
REMARK    3  A    between atoms: C_7  and  C_8
REMARK    4  A    between atoms: C_8  and  N_9
REMARK    5  A    between atoms: C_12  and  N_13
REMARK                            x       y       z     vdW  Elec       q    Type
REMARK                         _______ _______ _______ _____ _____    ______ ____
ROOT
ATOM      1  C   UNL     1       3.343   3.498  20.328  0.00  0.00    +0.000 A 
ATOM      2  C   UNL     1       4.483   3.113  19.636  0.00  0.00    +0.000 A 
ATOM      3  C   UNL     1       5.072   3.954  18.696  0.00  0.00    +0.000 A 
ATOM      4  C   UNL     1       4.549   5.239  18.423  0.00  0.00    +0.000 A 
ATOM      5  C   UNL     1       5.169   6.106  17.464  0.00  0.00    +0.000 A 
ATOM      6  C   UNL     1       4.590   7.365  17.231  0.00  0.00    +0.000 A 
ATOM      7  C   UNL     1       3.447   7.797  17.922  0.00  0.00    +0.000 A 
ATOM      8  C   UNL     1       2.904   9.077  17.646  0.00  0.00    +0.000 A 
ATOM      9  C   UNL     1       1.769   9.485  18.339  0.00  0.00    +0.000 A 
ATOM     10  C   UNL     1       1.180   8.698  19.254  0.00  0.00    +0.000 A 
ATOM     11  C   UNL     1       1.656   7.433  19.563  0.00  0.00    +0.000 A 
ATOM     12  C   UNL     1       2.819   6.946  18.890  0.00  0.00    +0.000 A 
ATOM     13  C   UNL     1       3.376   5.658  19.135  0.00  0.00    +0.000 A 
ATOM     14  C   UNL     1       2.791   4.763  20.077  0.00  0.00    +0.000 A 
ATOM     15  O   UNL     1       0.116   9.326  19.766  0.00  0.00    +0.000 OA
ATOM     16  C   UNL     1       0.027  10.569  19.148  0.00  0.00    +0.000 C 
ATOM     17  O   UNL     1       1.092  10.635  18.249  0.00  0.00    +0.000 OA
ENDROOT
BRANCH   1  19
ATOM     18  C   UNL     1       1.527   2.591  21.716  0.00  0.00    +0.000 C 
ATOM     19  O   UNL     1       2.823   2.626  21.236  0.00  0.00    +0.000 OA
ENDBRANCH   1  19
BRANCH   5  20
ATOM     20  C   UNL     1       6.403   5.702  16.614  0.00  0.00    +0.000 C 
BRANCH  20  21
ATOM     21  N   UNL     1       6.152   5.383  15.177  0.00  0.00    +0.000 NA
ATOM     22  C   UNL     1       5.151   4.300  15.017  0.00  0.00    +0.000 C 
ATOM     23  C   UNL     1       4.973   3.841  13.564  0.00  0.00    +0.000 C 
ATOM     24  C   UNL     1       6.336   3.477  12.965  0.00  0.00    +0.000 C 
ATOM     25  C   UNL     1       7.188   4.747  12.975  0.00  0.00    +0.000 C 
ATOM     26  C   UNL     1       7.418   5.183  14.431  0.00  0.00    +0.000 C 
BRANCH  24  27
ATOM     27  N   UNL     1       6.200   2.952  11.606  0.00  0.00    +0.000 NA
ATOM     28  H   UNL     1       7.138   2.786  11.177  0.00  0.00    +0.000 HD
ATOM     29  H   UNL     1       5.679   3.647  11.022  0.00  0.00    +0.000 HD
ENDBRANCH  24  27
ENDBRANCH  20  21
ENDBRANCH   5  20
TORSDOF 4
ENDMDL
MODEL 8
REMARK VINA RESULT:      -6.9      4.863      9.620
REMARK  Name = 
REMARK  5 active torsions:
REMARK  status: ('A' for Active; 'I' for Inactive)
REMARK    1  A    between atoms: C_1  and  O_2
REMARK    2  A    between atoms: O_2  and  C_3
REMARK    3  A    between atoms: C_7  and  C_8
REMARK    4  A    between atoms: C_8  and  N_9
REMARK    5  A    between atoms: C_12  and  N_13
REMARK                            x       y       z     vdW  Elec       q    Type
REMARK                         _______ _______ _______ _____ _____    ______ ____
ROOT
ATOM      1  C   UNL     1      -3.452  11.027  17.397  0.00  0.00    +0.000 A 
ATOM      2  C   UNL     1      -2.458  10.238  16.834  0.00  0.00    +0.000 A 
ATOM      3  C   UNL     1      -1.204  10.129  17.429  0.00  0.00    +0.000 A 
ATOM      4  C   UNL     1      -0.898  10.795  18.638  0.00  0.00    +0.000 A 
ATOM      5  C   UNL     1       0.391  10.666  19.253  0.00  0.00    +0.000 A 
ATOM      6  C   UNL     1       0.633  11.367  20.446  0.00  0.00    +0.000 A 
ATOM      7  C   UNL     1      -0.351  12.162  21.055  0.00  0.00    +0.000 A 
ATOM      8  C   UNL     1      -0.051  12.848  22.259  0.00  0.00    +0.000 A 
ATOM      9  C   UNL     1      -1.040  13.632  22.844  0.00  0.00    +0.000 A 
ATOM     10  C   UNL     1      -2.260  13.756  22.297  0.00  0.00    +0.000 A 
ATOM     11  C   UNL     1      -2.613  13.119  21.117  0.00  0.00    +0.000 A 
ATOM     12  C   UNL     1      -1.648  12.296  20.458  0.00  0.00    +0.000 A 
ATOM     13  C   UNL     1      -1.916  11.608  19.239  0.00  0.00    +0.000 A 
ATOM     14  C   UNL     1      -3.182  11.710  18.592  0.00  0.00    +0.000 A 
ATOM     15  O   UNL     1      -3.010  14.562  23.055  0.00  0.00    +0.000 OA
ATOM     16  C   UNL     1      -2.231  14.968  24.133  0.00  0.00    +0.000 C 
ATOM     17  O   UNL     1      -0.987  14.359  23.966  0.00  0.00    +0.000 OA
ENDROOT
BRANCH   1  19
ATOM     18  C   UNL     1      -5.751  11.850  17.116  0.00  0.00    +0.000 C 
ATOM     19  O   UNL     1      -4.656  11.084  16.763  0.00  0.00    +0.000 OA
ENDBRANCH   1  19
BRANCH   5  20
ATOM     20  C   UNL     1       1.559   9.855  18.633  0.00  0.00    +0.000 C 
BRANCH  20  21
ATOM     21  N   UNL     1       1.541   8.378  18.852  0.00  0.00    +0.000 NA
ATOM     22  C   UNL     1       1.694   8.030  20.286  0.00  0.00    +0.000 C 
ATOM     23  C   UNL     1       1.828   6.522  20.539  0.00  0.00    +0.000 C 
ATOM     24  C   UNL     1       2.953   5.949  19.670  0.00  0.00    +0.000 C 
ATOM     25  C   UNL     1       2.552   6.166  18.211  0.00  0.00    +0.000 C 
ATOM     26  C   UNL     1       2.470   7.676  17.934  0.00  0.00    +0.000 C 
BRANCH  24  27
ATOM     27  N   UNL     1       3.171   4.529  19.946  0.00  0.00    +0.000 NA
ATOM     28  H   UNL     1       4.173   4.273  19.799  0.00  0.00    +0.000 HD
ATOM     29  H   UNL     1       2.577   3.961  19.297  0.00  0.00    +0.000 HD
ENDBRANCH  24  27
ENDBRANCH  20  21
ENDBRANCH   5  20
TORSDOF 4
ENDMDL
MODEL 9
REMARK VINA RESULT:      -6.9      5.047     10.081
REMARK  Name = 
REMARK  5 active torsions:
REMARK  status: ('A' for Active; 'I' for Inactive)
REMARK    1  A    between atoms: C_1  and  O_2
REMARK    2  A    between atoms: O_2  and  C_3
REMARK    3  A    between atoms: C_7  and  C_8
REMARK    4  A    between atoms: C_8  and  N_9
REMARK    5  A    between atoms: C_12  and  N_13
REMARK                            x       y       z     vdW  Elec       q    Type
REMARK                         _______ _______ _______ _____ _____    ______ ____
ROOT
ATOM      1  C   UNL     1      -3.224  10.805  16.823  0.00  0.00    +0.000 A 
ATOM      2  C   UNL     1      -1.986  10.186  16.718  0.00  0.00    +0.000 A 
ATOM      3  C   UNL     1      -1.047  10.279  17.743  0.00  0.00    +0.000 A 
ATOM      4  C   UNL     1      -1.322  10.985  18.937  0.00  0.00    +0.000 A 
ATOM      5  C   UNL     1      -0.357  11.064  19.993  0.00  0.00    +0.000 A 
ATOM      6  C   UNL     1      -0.690  11.792  21.147  0.00  0.00    +0.000 A 
ATOM      7  C   UNL     1      -1.937  12.419  21.298  0.00  0.00    +0.000 A 
ATOM      8  C   UNL     1      -2.219  13.143  22.484  0.00  0.00    +0.000 A 
ATOM      9  C   UNL     1      -3.460  13.758  22.611  0.00  0.00    +0.000 A 
ATOM     10  C   UNL     1      -4.387  13.684  21.643  0.00  0.00    +0.000 A 
ATOM     11  C   UNL     1      -4.171  13.000  20.457  0.00  0.00    +0.000 A 
ATOM     12  C   UNL     1      -2.917  12.343  20.254  0.00  0.00    +0.000 A 
ATOM     13  C   UNL     1      -2.601  11.623  19.066  0.00  0.00    +0.000 A 
ATOM     14  C   UNL     1      -3.529  11.522  17.990  0.00  0.00    +0.000 A 
ATOM     15  O   UNL     1      -5.480  14.359  22.017  0.00  0.00    +0.000 OA
ATOM     16  C   UNL     1      -5.234  14.884  23.282  0.00  0.00    +0.000 C 
ATOM     17  O   UNL     1      -3.943  14.482  23.627  0.00  0.00    +0.000 OA
ENDROOT
BRANCH   1  19
ATOM     18  C   UNL     1      -3.818  10.188  14.518  0.00  0.00    +0.000 C 
ATOM     19  O   UNL     1      -4.094  10.669  15.784  0.00  0.00    +0.000 OA
ENDBRANCH   1  19
BRANCH   5  20
ATOM     20  C   UNL     1       1.066  10.451  19.903  0.00  0.00    +0.000 C 
BRANCH  20  21
ATOM     21  N   UNL     1       1.150   8.987  19.619  0.00  0.00    +0.000 NA
ATOM     22  C   UNL     1       1.384   8.198  20.853  0.00  0.00    +0.000 C 
ATOM     23  C   UNL     1       1.622   6.705  20.587  0.00  0.00    +0.000 C 
ATOM     24  C   UNL     1       2.745   6.535  19.557  0.00  0.00    +0.000 C 
ATOM     25  C   UNL     1       2.270   7.192  18.260  0.00  0.00    +0.000 C 
ATOM     26  C   UNL     1       2.082   8.698  18.502  0.00  0.00    +0.000 C 
BRANCH  24  27
ATOM     27  N   UNL     1       3.062   5.123  19.340  0.00  0.00    +0.000 NA
ATOM     28  H   UNL     1       2.873   4.565  20.203  0.00  0.00    +0.000 HD
ATOM     29  H   UNL     1       4.075   5.035  19.094  0.00  0.00    +0.000 HD
ENDBRANCH  24  27
ENDBRANCH  20  21
ENDBRANCH   5  20
TORSDOF 4
ENDMDL
