MODEL 1
REMARK VINA RESULT:      -7.4      0.000      0.000
REMARK  Name = 
REMARK  7 active torsions:
REMARK  status: ('A' for Active; 'I' for Inactive)
REMARK    1  A    between atoms: C_1  and  C_2
REMARK    2  A    between atoms: C_2  and  C_4
REMARK    3  A    between atoms: C_6  and  O_7
REMARK    4  A    between atoms: O_7  and  C_8
REMARK    5  A    between atoms: C_8  and  C_9
REMARK    6  A    between atoms: C_12  and  C_13
REMARK    7  A    between atoms: C_23  and  C_24
REMARK                            x       y       z     vdW  Elec       q    Type
REMARK                         _______ _______ _______ _____ _____    ______ ____
ROOT
ATOM      1  C   UNL     1       0.418   9.779  20.927  0.00  0.00    +0.000 A 
ATOM      2  C   UNL     1       1.198   9.084  19.907  0.00  0.00    +0.000 A 
ATOM      3  C   UNL     1       1.722   9.707  18.835  0.00  0.00    +0.000 A 
ATOM      4  C   UNL     1       1.540  11.206  18.727  0.00  0.00    +0.000 A 
ATOM      5  O   UNL     1       1.923  11.867  17.765  0.00  0.00    +0.000 OA
ATOM      6  N   UNL     1       0.931  11.791  19.812  0.00  0.00    +0.000 N 
ATOM      7  C   UNL     1       0.338  11.121  20.855  0.00  0.00    +0.000 A 
ATOM      8  C   UNL     1      -0.318  12.118  21.767  0.00  0.00    +0.000 C 
ATOM      9  C   UNL     1      -0.055  13.485  21.111  0.00  0.00    +0.000 C 
ATOM     10  C   UNL     1       0.940  13.233  19.987  0.00  0.00    +0.000 C 
ENDROOT
BRANCH  10  11
ATOM     11  C   UNL     1       2.377  13.659  20.372  0.00  0.00    +0.000 C 
ATOM     12  O   UNL     1       2.925  13.225  21.391  0.00  0.00    +0.000 OA
ATOM     13  N   UNL     1       3.027  14.561  19.557  0.00  0.00    +0.000 N 
ATOM     14  C   UNL     1       2.533  15.222  18.366  0.00  0.00    +0.000 C 
ATOM     15  C   UNL     1       3.788  15.493  17.555  0.00  0.00    +0.000 C 
ATOM     16  C   UNL     1       4.865  15.729  18.608  0.00  0.00    +0.000 C 
ATOM     17  C   UNL     1       4.408  14.926  19.821  0.00  0.00    +0.000 C 
ENDBRANCH  10  11
BRANCH   1  19
ATOM     18  C   UNL     1      -0.017   9.502  23.467  0.00  0.00    +0.000 C 
ATOM     19  C   UNL     1      -0.261   9.043  22.051  0.00  0.00    +0.000 C 
ATOM     20  O   UNL     1      -0.993   8.076  21.834  0.00  0.00    +0.000 OA
ENDBRANCH   1  19
BRANCH   3  21
ATOM     21  O   UNL     1       2.431   8.955  17.902  0.00  0.00    +0.000 OA
BRANCH  21  22
ATOM     22  C   UNL     1       2.236   7.544  17.995  0.00  0.00    +0.000 C 
BRANCH  22  23
ATOM     23  C   UNL     1       3.572   6.847  17.959  0.00  0.00    +0.000 A 
ATOM     24  C   UNL     1       3.868   5.860  18.907  0.00  0.00    +0.000 A 
ATOM     25  C   UNL     1       5.080   5.174  18.855  0.00  0.00    +0.000 A 
ATOM     26  C   UNL     1       6.008   5.474  17.855  0.00  0.00    +0.000 A 
ATOM     27  C   UNL     1       5.724   6.464  16.908  0.00  0.00    +0.000 A 
ATOM     28  C   UNL     1       4.509   7.152  16.962  0.00  0.00    +0.000 A 
BRANCH  26  29
ATOM     29  C   UNL     1       7.251   4.762  17.794  0.00  0.00    +0.000 C 
ATOM     30  N   UNL     1       8.256   4.182  17.745  0.00  0.00    +0.000 NA
ENDBRANCH  26  29
ENDBRANCH  22  23
ENDBRANCH  21  22
ENDBRANCH   3  21
TORSDOF 6
ENDMDL
MODEL 2
REMARK VINA RESULT:      -7.2      3.861      8.848
REMARK  Name = 
REMARK  7 active torsions:
REMARK  status: ('A' for Active; 'I' for Inactive)
REMARK    1  A    between atoms: C_1  and  C_2
REMARK    2  A    between atoms: C_2  and  C_4
REMARK    3  A    between atoms: C_6  and  O_7
REMARK    4  A    between atoms: O_7  and  C_8
REMARK    5  A    between atoms: C_8  and  C_9
REMARK    6  A    between atoms: C_12  and  C_13
REMARK    7  A    between atoms: C_23  and  C_24
REMARK                            x       y       z     vdW  Elec       q    Type
REMARK                         _______ _______ _______ _____ _____    ______ ____
ROOT
ATOM      1  C   UNL     1       2.628   5.272  19.631  0.00  0.00    +0.000 A 
ATOM      2  C   UNL     1       1.974   6.451  19.070  0.00  0.00    +0.000 A 
ATOM      3  C   UNL     1       2.546   7.231  18.135  0.00  0.00    +0.000 A 
ATOM      4  C   UNL     1       3.903   6.820  17.602  0.00  0.00    +0.000 A 
ATOM      5  O   UNL     1       4.542   7.487  16.793  0.00  0.00    +0.000 OA
ATOM      6  N   UNL     1       4.365   5.614  18.074  0.00  0.00    +0.000 N 
ATOM      7  C   UNL     1       3.796   4.880  19.086  0.00  0.00    +0.000 A 
ATOM      8  C   UNL     1       4.671   3.695  19.382  0.00  0.00    +0.000 C 
ATOM      9  C   UNL     1       5.863   3.834  18.418  0.00  0.00    +0.000 C 
ATOM     10  C   UNL     1       5.500   4.954  17.453  0.00  0.00    +0.000 C 
ENDROOT
BRANCH  10  11
ATOM     11  C   UNL     1       5.043   4.413  16.077  0.00  0.00    +0.000 C 
ATOM     12  O   UNL     1       3.896   3.988  15.901  0.00  0.00    +0.000 OA
ATOM     13  N   UNL     1       5.963   4.394  15.049  0.00  0.00    +0.000 N 
ATOM     14  C   UNL     1       7.357   4.789  15.077  0.00  0.00    +0.000 C 
ATOM     15  C   UNL     1       7.641   5.216  13.648  0.00  0.00    +0.000 C 
ATOM     16  C   UNL     1       6.743   4.315  12.807  0.00  0.00    +0.000 C 
ATOM     17  C   UNL     1       5.564   3.982  13.714  0.00  0.00    +0.000 C 
ENDBRANCH  10  11
BRANCH   1  19
ATOM     18  C   UNL     1       0.881   3.548  20.462  0.00  0.00    +0.000 C 
ATOM     19  C   UNL     1       2.023   4.485  20.763  0.00  0.00    +0.000 C 
ATOM     20  O   UNL     1       2.434   4.605  21.917  0.00  0.00    +0.000 OA
ENDBRANCH   1  19
BRANCH   3  21
ATOM     21  O   UNL     1       1.854   8.348  17.678  0.00  0.00    +0.000 OA
BRANCH  21  22
ATOM     22  C   UNL     1       1.585   9.336  18.673  0.00  0.00    +0.000 C 
BRANCH  22  23
ATOM     23  C   UNL     1       0.215   9.922  18.445  0.00  0.00    +0.000 A 
ATOM     24  C   UNL     1      -0.584   9.440  17.402  0.00  0.00    +0.000 A 
ATOM     25  C   UNL     1      -1.872   9.940  17.211  0.00  0.00    +0.000 A 
ATOM     26  C   UNL     1      -2.367  10.930  18.062  0.00  0.00    +0.000 A 
ATOM     27  C   UNL     1      -1.573  11.423  19.103  0.00  0.00    +0.000 A 
ATOM     28  C   UNL     1      -0.282  10.922  19.292  0.00  0.00    +0.000 A 
BRANCH  26  29
ATOM     29  C   UNL     1      -3.695  11.437  17.874  0.00  0.00    +0.000 C 
ATOM     30  N   UNL     1      -4.771  11.847  17.724  0.00  0.00    +0.000 NA
ENDBRANCH  26  29
ENDBRANCH  22  23
ENDBRANCH  21  22
ENDBRANCH   3  21
TORSDOF 6
ENDMDL
MODEL 3
REMARK VINA RESULT:      -7.2      1.666      2.106
REMARK  Name = 
REMARK  7 active torsions:
REMARK  status: ('A' for Active; 'I' for Inactive)
REMARK    1  A    between atoms: C_1  and  C_2
REMARK    2  A    between atoms: C_2  and  C_4
REMARK    3  A    between atoms: C_6  and  O_7
REMARK    4  A    between atoms: O_7  and  C_8
REMARK    5  A    between atoms: C_8  and  C_9
REMARK    6  A    between atoms: C_12  and  C_13
REMARK    7  A    between atoms: C_23  and  C_24
REMARK                            x       y       z     vdW  Elec       q    Type
REMARK                         _______ _______ _______ _____ _____    ______ ____
ROOT
ATOM      1  C   UNL     1      -0.329  11.103  21.607  0.00  0.00    +0.000 A 
ATOM      2  C   UNL     1       0.008  10.220  20.493  0.00  0.00    +0.000 A 
ATOM      3  C   UNL     1       0.434  10.675  19.300  0.00  0.00    +0.000 A 
ATOM      4  C   UNL     1       0.628  12.168  19.139  0.00  0.00    +0.000 A 
ATOM      5  O   UNL     1       0.954  12.697  18.080  0.00  0.00    +0.000 OA
ATOM      6  N   UNL     1       0.437  12.900  20.288  0.00  0.00    +0.000 N 
ATOM      7  C   UNL     1      -0.072  12.417  21.469  0.00  0.00    +0.000 A 
ATOM      8  C   UNL     1      -0.236  13.558  22.433  0.00  0.00    +0.000 C 
ATOM      9  C   UNL     1       0.225  14.802  21.653  0.00  0.00    +0.000 C 
ATOM     10  C   UNL     1       0.857  14.288  20.367  0.00  0.00    +0.000 C 
ENDROOT
BRANCH  10  11
ATOM     11  C   UNL     1       2.403  14.318  20.424  0.00  0.00    +0.000 C 
ATOM     12  O   UNL     1       3.026  13.736  21.318  0.00  0.00    +0.000 OA
ATOM     13  N   UNL     1       3.074  15.038  19.456  0.00  0.00    +0.000 N 
ATOM     14  C   UNL     1       2.524  15.828  18.375  0.00  0.00    +0.000 C 
ATOM     15  C   UNL     1       3.602  15.781  17.307  0.00  0.00    +0.000 C 
ATOM     16  C   UNL     1       4.903  15.707  18.098  0.00  0.00    +0.000 C 
ATOM     17  C   UNL     1       4.526  15.025  19.408  0.00  0.00    +0.000 C 
ENDBRANCH  10  11
BRANCH   1  19
ATOM     18  C   UNL     1      -0.269   9.393  23.554  0.00  0.00    +0.000 C 
ATOM     19  C   UNL     1      -0.919  10.581  22.890  0.00  0.00    +0.000 C 
ATOM     20  O   UNL     1      -1.920  11.095  23.389  0.00  0.00    +0.000 OA
ENDBRANCH   1  19
BRANCH   3  21
ATOM     21  O   UNL     1       0.708   9.757  18.291  0.00  0.00    +0.000 OA
BRANCH  21  22
ATOM     22  C   UNL     1       2.094   9.596  17.987  0.00  0.00    +0.000 C 
BRANCH  22  23
ATOM     23  C   UNL     1       2.520   8.186  18.306  0.00  0.00    +0.000 A 
ATOM     24  C   UNL     1       3.392   7.510  17.444  0.00  0.00    +0.000 A 
ATOM     25  C   UNL     1       3.832   6.224  17.754  0.00  0.00    +0.000 A 
ATOM     26  C   UNL     1       3.398   5.603  18.927  0.00  0.00    +0.000 A 
ATOM     27  C   UNL     1       2.521   6.268  19.790  0.00  0.00    +0.000 A 
ATOM     28  C   UNL     1       2.080   7.557  19.478  0.00  0.00    +0.000 A 
BRANCH  26  29
ATOM     29  C   UNL     1       3.859   4.284  19.252  0.00  0.00    +0.000 C 
ATOM     30  N   UNL     1       4.231   3.217  19.518  0.00  0.00    +0.000 NA
ENDBRANCH  26  29
ENDBRANCH  22  23
ENDBRANCH  21  22
ENDBRANCH   3  21
TORSDOF 6
ENDMDL
MODEL 4
REMARK VINA RESULT:      -7.1      3.064      5.823
REMARK  Name = 
REMARK  7 active torsions:
REMARK  status: ('A' for Active; 'I' for Inactive)
REMARK    1  A    between atoms: C_1  and  C_2
REMARK    2  A    between atoms: C_2  and  C_4
REMARK    3  A    between atoms: C_6  and  O_7
REMARK    4  A    between atoms: O_7  and  C_8
REMARK    5  A    between atoms: C_8  and  C_9
REMARK    6  A    between atoms: C_12  and  C_13
REMARK    7  A    between atoms: C_23  and  C_24
REMARK                            x       y       z     vdW  Elec       q    Type
REMARK                         _______ _______ _______ _____ _____    ______ ____
ROOT
ATOM      1  C   UNL     1       1.284  12.849  20.616  0.00  0.00    +0.000 A 
ATOM      2  C   UNL     1       1.084  11.421  20.385  0.00  0.00    +0.000 A 
ATOM      3  C   UNL     1       0.260  10.666  21.135  0.00  0.00    +0.000 A 
ATOM      4  C   UNL     1      -0.537  11.353  22.223  0.00  0.00    +0.000 A 
ATOM      5  O   UNL     1      -1.272  10.754  23.003  0.00  0.00    +0.000 OA
ATOM      6  N   UNL     1      -0.401  12.721  22.260  0.00  0.00    +0.000 N 
ATOM      7  C   UNL     1       0.506  13.454  21.534  0.00  0.00    +0.000 A 
ATOM      8  C   UNL     1       0.418  14.894  21.952  0.00  0.00    +0.000 C 
ATOM      9  C   UNL     1      -0.658  14.919  23.054  0.00  0.00    +0.000 C 
ATOM     10  C   UNL     1      -1.304  13.541  23.048  0.00  0.00    +0.000 C 
ENDROOT
BRANCH  10  11
ATOM     11  C   UNL     1      -2.682  13.546  22.344  0.00  0.00    +0.000 C 
ATOM     12  O   UNL     1      -2.784  13.750  21.129  0.00  0.00    +0.000 OA
ATOM     13  N   UNL     1      -3.806  13.339  23.116  0.00  0.00    +0.000 N 
ATOM     14  C   UNL     1      -3.895  13.146  24.549  0.00  0.00    +0.000 C 
ATOM     15  C   UNL     1      -5.153  12.314  24.725  0.00  0.00    +0.000 C 
ATOM     16  C   UNL     1      -6.064  12.777  23.594  0.00  0.00    +0.000 C 
ATOM     17  C   UNL     1      -5.116  13.243  22.494  0.00  0.00    +0.000 C 
ENDBRANCH  10  11
BRANCH   1  19
ATOM     18  C   UNL     1       1.971  14.073  18.437  0.00  0.00    +0.000 C 
ATOM     19  C   UNL     1       2.301  13.648  19.846  0.00  0.00    +0.000 C 
ATOM     20  O   UNL     1       3.390  13.943  20.339  0.00  0.00    +0.000 OA
ENDBRANCH   1  19
BRANCH   3  21
ATOM     21  O   UNL     1       0.153   9.307  20.852  0.00  0.00    +0.000 OA
BRANCH  21  22
ATOM     22  C   UNL     1       1.154   8.488  21.456  0.00  0.00    +0.000 C 
BRANCH  22  23
ATOM     23  C   UNL     1       1.646   7.473  20.456  0.00  0.00    +0.000 A 
ATOM     24  C   UNL     1       2.131   7.898  19.214  0.00  0.00    +0.000 A 
ATOM     25  C   UNL     1       2.633   6.973  18.300  0.00  0.00    +0.000 A 
ATOM     26  C   UNL     1       2.651   5.615  18.622  0.00  0.00    +0.000 A 
ATOM     27  C   UNL     1       2.161   5.180  19.858  0.00  0.00    +0.000 A 
ATOM     28  C   UNL     1       1.656   6.108  20.773  0.00  0.00    +0.000 A 
BRANCH  26  29
ATOM     29  C   UNL     1       3.178   4.663  17.687  0.00  0.00    +0.000 C 
ATOM     30  N   UNL     1       3.603   3.895  16.927  0.00  0.00    +0.000 NA
ENDBRANCH  26  29
ENDBRANCH  22  23
ENDBRANCH  21  22
ENDBRANCH   3  21
TORSDOF 6
ENDMDL
MODEL 5
REMARK VINA RESULT:      -7.1      5.553      7.990
REMARK  Name = 
REMARK  7 active torsions:
REMARK  status: ('A' for Active; 'I' for Inactive)
REMARK    1  A    between atoms: C_1  and  C_2
REMARK    2  A    between atoms: C_2  and  C_4
REMARK    3  A    between atoms: C_6  and  O_7
REMARK    4  A    between atoms: O_7  and  C_8
REMARK    5  A    between atoms: C_8  and  C_9
REMARK    6  A    between atoms: C_12  and  C_13
REMARK    7  A    between atoms: C_23  and  C_24
REMARK                            x       y       z     vdW  Elec       q    Type
REMARK                         _______ _______ _______ _____ _____    ______ ____
ROOT
ATOM      1  C   UNL     1      10.223  12.698  18.535  0.00  0.00    +0.000 A 
ATOM      2  C   UNL     1       9.727  11.335  18.366  0.00  0.00    +0.000 A 
ATOM      3  C   UNL     1       9.352  10.559  19.399  0.00  0.00    +0.000 A 
ATOM      4  C   UNL     1       9.390  11.160  20.789  0.00  0.00    +0.000 A 
ATOM      5  O   UNL     1       9.128  10.527  21.807  0.00  0.00    +0.000 OA
ATOM      6  N   UNL     1       9.719  12.495  20.828  0.00  0.00    +0.000 N 
ATOM      7  C   UNL     1      10.172  13.239  19.766  0.00  0.00    +0.000 A 
ATOM      8  C   UNL     1      10.535  14.614  20.252  0.00  0.00    +0.000 C 
ATOM      9  C   UNL     1      10.257  14.583  21.766  0.00  0.00    +0.000 C 
ATOM     10  C   UNL     1       9.525  13.276  22.037  0.00  0.00    +0.000 C 
ENDROOT
BRANCH  10  11
ATOM     11  C   UNL     1       8.004  13.489  22.230  0.00  0.00    +0.000 C 
ATOM     12  O   UNL     1       7.316  14.036  21.361  0.00  0.00    +0.000 OA
ATOM     13  N   UNL     1       7.435  13.071  23.415  0.00  0.00    +0.000 N 
ATOM     14  C   UNL     1       8.080  12.471  24.564  0.00  0.00    +0.000 C 
ATOM     15  C   UNL     1       6.986  11.628  25.195  0.00  0.00    +0.000 C 
ATOM     16  C   UNL     1       5.706  12.402  24.899  0.00  0.00    +0.000 C 
ATOM     17  C   UNL     1       5.998  13.164  23.611  0.00  0.00    +0.000 C 
ENDBRANCH  10  11
BRANCH   1  19
ATOM     18  C   UNL     1      12.076  13.113  16.770  0.00  0.00    +0.000 C 
ATOM     19  C   UNL     1      10.752  13.504  17.379  0.00  0.00    +0.000 C 
ATOM     20  O   UNL     1      10.134  14.474  16.938  0.00  0.00    +0.000 OA
ENDBRANCH   1  19
BRANCH   3  21
ATOM     21  O   UNL     1       8.914   9.263  19.141  0.00  0.00    +0.000 OA
BRANCH  21  22
ATOM     22  C   UNL     1       8.355   9.066  17.842  0.00  0.00    +0.000 C 
BRANCH  22  23
ATOM     23  C   UNL     1       7.509   7.819  17.841  0.00  0.00    +0.000 A 
ATOM     24  C   UNL     1       6.310   7.791  17.119  0.00  0.00    +0.000 A 
ATOM     25  C   UNL     1       5.543   6.628  17.070  0.00  0.00    +0.000 A 
ATOM     26  C   UNL     1       5.968   5.485  17.750  0.00  0.00    +0.000 A 
ATOM     27  C   UNL     1       7.161   5.505  18.481  0.00  0.00    +0.000 A 
ATOM     28  C   UNL     1       7.928   6.672  18.529  0.00  0.00    +0.000 A 
BRANCH  26  29
ATOM     29  C   UNL     1       5.185   4.284  17.692  0.00  0.00    +0.000 C 
ATOM     30  N   UNL     1       4.554   3.311  17.644  0.00  0.00    +0.000 NA
ENDBRANCH  26  29
ENDBRANCH  22  23
ENDBRANCH  21  22
ENDBRANCH   3  21
TORSDOF 6
ENDMDL
MODEL 6
REMARK VINA RESULT:      -7.1      3.417      9.480
REMARK  Name = 
REMARK  7 active torsions:
REMARK  status: ('A' for Active; 'I' for Inactive)
REMARK    1  A    between atoms: C_1  and  C_2
REMARK    2  A    between atoms: C_2  and  C_4
REMARK    3  A    between atoms: C_6  and  O_7
REMARK    4  A    between atoms: O_7  and  C_8
REMARK    5  A    between atoms: C_8  and  C_9
REMARK    6  A    between atoms: C_12  and  C_13
REMARK    7  A    between atoms: C_23  and  C_24
REMARK                            x       y       z     vdW  Elec       q    Type
REMARK                         _______ _______ _______ _____ _____    ______ ____
ROOT
ATOM      1  C   UNL     1       5.669   6.618  17.280  0.00  0.00    +0.000 A 
ATOM      2  C   UNL     1       4.694   7.559  17.824  0.00  0.00    +0.000 A 
ATOM      3  C   UNL     1       3.438   7.205  18.152  0.00  0.00    +0.000 A 
ATOM      4  C   UNL     1       3.051   5.749  18.005  0.00  0.00    +0.000 A 
ATOM      5  O   UNL     1       1.918   5.325  18.217  0.00  0.00    +0.000 OA
ATOM      6  N   UNL     1       4.080   4.914  17.637  0.00  0.00    +0.000 N 
ATOM      7  C   UNL     1       5.331   5.316  17.234  0.00  0.00    +0.000 A 
ATOM      8  C   UNL     1       6.116   4.110  16.801  0.00  0.00    +0.000 C 
ATOM      9  C   UNL     1       5.149   2.926  16.979  0.00  0.00    +0.000 C 
ATOM     10  C   UNL     1       3.942   3.471  17.729  0.00  0.00    +0.000 C 
ENDROOT
BRANCH  10  11
ATOM     11  C   UNL     1       3.961   3.084  19.227  0.00  0.00    +0.000 C 
ATOM     12  O   UNL     1       5.019   3.026  19.863  0.00  0.00    +0.000 OA
ATOM     13  N   UNL     1       2.760   2.779  19.834  0.00  0.00    +0.000 N 
ATOM     14  C   UNL     1       1.437   2.732  19.247  0.00  0.00    +0.000 C 
ATOM     15  C   UNL     1       0.513   3.042  20.410  0.00  0.00    +0.000 C 
ATOM     16  C   UNL     1       1.229   2.450  21.619  0.00  0.00    +0.000 C 
ATOM     17  C   UNL     1       2.709   2.498  21.259  0.00  0.00    +0.000 C 
ENDBRANCH  10  11
BRANCH   1  19
ATOM     18  C   UNL     1       7.690   8.227  17.495  0.00  0.00    +0.000 C 
ATOM     19  C   UNL     1       7.028   7.061  16.805  0.00  0.00    +0.000 C 
ATOM     20  O   UNL     1       7.592   6.500  15.865  0.00  0.00    +0.000 OA
ENDBRANCH   1  19
BRANCH   3  21
ATOM     21  O   UNL     1       2.573   8.179  18.642  0.00  0.00    +0.000 OA
BRANCH  21  22
ATOM     22  C   UNL     1       1.867   8.913  17.642  0.00  0.00    +0.000 C 
BRANCH  22  23
ATOM     23  C   UNL     1       0.786   9.739  18.291  0.00  0.00    +0.000 A 
ATOM     24  C   UNL     1       1.070  10.471  19.450  0.00  0.00    +0.000 A 
ATOM     25  C   UNL     1       0.092  11.277  20.031  0.00  0.00    +0.000 A 
ATOM     26  C   UNL     1      -1.179  11.353  19.458  0.00  0.00    +0.000 A 
ATOM     27  C   UNL     1      -1.474  10.619  18.305  0.00  0.00    +0.000 A 
ATOM     28  C   UNL     1      -0.493   9.811  17.723  0.00  0.00    +0.000 A 
BRANCH  26  29
ATOM     29  C   UNL     1      -2.182  12.190  20.050  0.00  0.00    +0.000 C 
ATOM     30  N   UNL     1      -2.994  12.865  20.531  0.00  0.00    +0.000 NA
ENDBRANCH  26  29
ENDBRANCH  22  23
ENDBRANCH  21  22
ENDBRANCH   3  21
TORSDOF 6
ENDMDL
MODEL 7
REMARK VINA RESULT:      -7.0      2.618      5.443
REMARK  Name = 
REMARK  7 active torsions:
REMARK  status: ('A' for Active; 'I' for Inactive)
REMARK    1  A    between atoms: C_1  and  C_2
REMARK    2  A    between atoms: C_2  and  C_4
REMARK    3  A    between atoms: C_6  and  O_7
REMARK    4  A    between atoms: O_7  and  C_8
REMARK    5  A    between atoms: C_8  and  C_9
REMARK    6  A    between atoms: C_12  and  C_13
REMARK    7  A    between atoms: C_23  and  C_24
REMARK                            x       y       z     vdW  Elec       q    Type
REMARK                         _______ _______ _______ _____ _____    ______ ____
ROOT
ATOM      1  C   UNL     1       2.760  13.688  18.743  0.00  0.00    +0.000 A 
ATOM      2  C   UNL     1       2.309  12.411  18.198  0.00  0.00    +0.000 A 
ATOM      3  C   UNL     1       1.490  11.577  18.864  0.00  0.00    +0.000 A 
ATOM      4  C   UNL     1       0.969  12.025  20.214  0.00  0.00    +0.000 A 
ATOM      5  O   UNL     1       0.265  11.322  20.935  0.00  0.00    +0.000 OA
ATOM      6  N   UNL     1       1.322  13.305  20.571  0.00  0.00    +0.000 N 
ATOM      7  C   UNL     1       2.222  14.102  19.906  0.00  0.00    +0.000 A 
ATOM      8  C   UNL     1       2.419  15.372  20.685  0.00  0.00    +0.000 C 
ATOM      9  C   UNL     1       1.525  15.215  21.928  0.00  0.00    +0.000 C 
ATOM     10  C   UNL     1       0.677  13.974  21.687  0.00  0.00    +0.000 C 
ENDROOT
BRANCH  10  11
ATOM     11  C   UNL     1      -0.768  14.329  21.261  0.00  0.00    +0.000 C 
ATOM     12  O   UNL     1      -0.993  15.044  20.279  0.00  0.00    +0.000 OA
ATOM     13  N   UNL     1      -1.808  13.842  22.026  0.00  0.00    +0.000 N 
ATOM     14  C   UNL     1      -1.745  13.047  23.235  0.00  0.00    +0.000 C 
ATOM     15  C   UNL     1      -3.045  12.262  23.220  0.00  0.00    +0.000 C 
ATOM     16  C   UNL     1      -4.036  13.200  22.541  0.00  0.00    +0.000 C 
ATOM     17  C   UNL     1      -3.185  14.068  21.621  0.00  0.00    +0.000 C 
ENDBRANCH  10  11
BRANCH   1  19
ATOM     18  C   UNL     1       3.289  15.762  17.282  0.00  0.00    +0.000 C 
ATOM     19  C   UNL     1       3.772  14.547  18.034  0.00  0.00    +0.000 C 
ATOM     20  O   UNL     1       4.971  14.267  18.047  0.00  0.00    +0.000 OA
ENDBRANCH   1  19
BRANCH   3  21
ATOM     21  O   UNL     1       1.133  10.370  18.271  0.00  0.00    +0.000 OA
BRANCH  21  22
ATOM     22  C   UNL     1       2.230   9.526  17.921  0.00  0.00    +0.000 C 
BRANCH  22  23
ATOM     23  C   UNL     1       2.148   8.241  18.705  0.00  0.00    +0.000 A 
ATOM     24  C   UNL     1       2.600   7.046  18.134  0.00  0.00    +0.000 A 
ATOM     25  C   UNL     1       2.574   5.861  18.866  0.00  0.00    +0.000 A 
ATOM     26  C   UNL     1       2.091   5.862  20.176  0.00  0.00    +0.000 A 
ATOM     27  C   UNL     1       1.630   7.050  20.753  0.00  0.00    +0.000 A 
ATOM     28  C   UNL     1       1.655   8.238  20.017  0.00  0.00    +0.000 A 
BRANCH  26  29
ATOM     29  C   UNL     1       2.074   4.645  20.935  0.00  0.00    +0.000 C 
ATOM     30  N   UNL     1       2.057   3.660  21.549  0.00  0.00    +0.000 NA
ENDBRANCH  26  29
ENDBRANCH  22  23
ENDBRANCH  21  22
ENDBRANCH   3  21
TORSDOF 6
ENDMDL
MODEL 8
REMARK VINA RESULT:      -7.0      1.361      1.558
REMARK  Name = 
REMARK  7 active torsions:
REMARK  status: ('A' for Active; 'I' for Inactive)
REMARK    1  A    between atoms: C_1  and  C_2
REMARK    2  A    between atoms: C_2  and  C_4
REMARK    3  A    between atoms: C_6  and  O_7
REMARK    4  A    between atoms: O_7  and  C_8
REMARK    5  A    between atoms: C_8  and  C_9
REMARK    6  A    between atoms: C_12  and  C_13
REMARK    7  A    between atoms: C_23  and  C_24
REMARK                            x       y       z     vdW  Elec       q    Type
REMARK                         _______ _______ _______ _____ _____    ______ ____
ROOT
ATOM      1  C   UNL     1      -0.033  11.013  21.702  0.00  0.00    +0.000 A 
ATOM      2  C   UNL     1       0.493   9.982  20.811  0.00  0.00    +0.000 A 
ATOM      3  C   UNL     1       1.087  10.262  19.636  0.00  0.00    +0.000 A 
ATOM      4  C   UNL     1       1.268  11.718  19.262  0.00  0.00    +0.000 A 
ATOM      5  O   UNL     1       1.741  12.088  18.192  0.00  0.00    +0.000 OA
ATOM      6  N   UNL     1       0.885  12.613  20.234  0.00  0.00    +0.000 N 
ATOM      7  C   UNL     1       0.211  12.300  21.390  0.00  0.00    +0.000 A 
ATOM      8  C   UNL     1      -0.127  13.570  22.118  0.00  0.00    +0.000 C 
ATOM      9  C   UNL     1       0.419  14.695  21.222  0.00  0.00    +0.000 C 
ATOM     10  C   UNL     1       1.254  14.015  20.146  0.00  0.00    +0.000 C 
ENDROOT
BRANCH  10  11
ATOM     11  C   UNL     1       2.772  14.129  20.426  0.00  0.00    +0.000 C 
ATOM     12  O   UNL     1       3.279  13.631  21.437  0.00  0.00    +0.000 OA
ATOM     13  N   UNL     1       3.548  14.826  19.523  0.00  0.00    +0.000 N 
ATOM     14  C   UNL     1       3.132  15.524  18.324  0.00  0.00    +0.000 C 
ATOM     15  C   UNL     1       4.358  15.473  17.430  0.00  0.00    +0.000 C 
ATOM     16  C   UNL     1       5.528  15.512  18.406  0.00  0.00    +0.000 C 
ATOM     17  C   UNL     1       4.990  14.886  19.688  0.00  0.00    +0.000 C 
ENDBRANCH  10  11
BRANCH   1  19
ATOM     18  C   UNL     1      -2.097  11.396  23.222  0.00  0.00    +0.000 C 
ATOM     19  C   UNL     1      -0.801  10.673  22.951  0.00  0.00    +0.000 C 
ATOM     20  O   UNL     1      -0.385   9.834  23.750  0.00  0.00    +0.000 OA
ENDBRANCH   1  19
BRANCH   3  21
ATOM     21  O   UNL     1       1.536   9.210  18.843  0.00  0.00    +0.000 OA
BRANCH  21  22
ATOM     22  C   UNL     1       1.757   7.985  19.541  0.00  0.00    +0.000 C 
BRANCH  22  23
ATOM     23  C   UNL     1       2.650   7.091  18.720  0.00  0.00    +0.000 A 
ATOM     24  C   UNL     1       2.550   5.700  18.846  0.00  0.00    +0.000 A 
ATOM     25  C   UNL     1       3.337   4.862  18.057  0.00  0.00    +0.000 A 
ATOM     26  C   UNL     1       4.234   5.412  17.138  0.00  0.00    +0.000 A 
ATOM     27  C   UNL     1       4.346   6.800  17.010  0.00  0.00    +0.000 A 
ATOM     28  C   UNL     1       3.558   7.639  17.803  0.00  0.00    +0.000 A 
BRANCH  26  29
ATOM     29  C   UNL     1       5.036   4.551  16.318  0.00  0.00    +0.000 C 
ATOM     30  N   UNL     1       5.688   3.856  15.655  0.00  0.00    +0.000 NA
ENDBRANCH  26  29
ENDBRANCH  22  23
ENDBRANCH  21  22
ENDBRANCH   3  21
TORSDOF 6
ENDMDL
MODEL 9
REMARK VINA RESULT:      -7.0      1.335      1.627
REMARK  Name = 
REMARK  7 active torsions:
REMARK  status: ('A' for Active; 'I' for Inactive)
REMARK    1  A    between atoms: C_1  and  C_2
REMARK    2  A    between atoms: C_2  and  C_4
REMARK    3  A    between atoms: C_6  and  O_7
REMARK    4  A    between atoms: O_7  and  C_8
REMARK    5  A    between atoms: C_8  and  C_9
REMARK    6  A    between atoms: C_12  and  C_13
REMARK    7  A    between atoms: C_23  and  C_24
REMARK                            x       y       z     vdW  Elec       q    Type
REMARK                         _______ _______ _______ _____ _____    ______ ____
ROOT
ATOM      1  C   UNL     1       0.050  10.805  21.623  0.00  0.00    +0.000 A 
ATOM      2  C   UNL     1       0.622   9.820  20.709  0.00  0.00    +0.000 A 
ATOM      3  C   UNL     1       1.181  10.151  19.530  0.00  0.00    +0.000 A 
ATOM      4  C   UNL     1       1.273  11.621  19.178  0.00  0.00    +0.000 A 
ATOM      5  O   UNL     1       1.708  12.034  18.106  0.00  0.00    +0.000 OA
ATOM      6  N   UNL     1       0.853  12.478  20.168  0.00  0.00    +0.000 N 
ATOM      7  C   UNL     1       0.215  12.109  21.328  0.00  0.00    +0.000 A 
ATOM      8  C   UNL     1      -0.185  13.346  22.080  0.00  0.00    +0.000 C 
ATOM      9  C   UNL     1       0.282  14.515  21.195  0.00  0.00    +0.000 C 
ATOM     10  C   UNL     1       1.139  13.900  20.097  0.00  0.00    +0.000 C 
ENDROOT
BRANCH  10  11
ATOM     11  C   UNL     1       2.652  14.097  20.358  0.00  0.00    +0.000 C 
ATOM     12  O   UNL     1       3.198  13.629  21.363  0.00  0.00    +0.000 OA
ATOM     13  N   UNL     1       3.377  14.834  19.445  0.00  0.00    +0.000 N 
ATOM     14  C   UNL     1       2.909  15.507  18.251  0.00  0.00    +0.000 C 
ATOM     15  C   UNL     1       4.125  15.521  17.342  0.00  0.00    +0.000 C 
ATOM     16  C   UNL     1       5.304  15.626  18.304  0.00  0.00    +0.000 C 
ATOM     17  C   UNL     1       4.816  14.974  19.593  0.00  0.00    +0.000 C 
ENDBRANCH  10  11
BRANCH   1  19
ATOM     18  C   UNL     1      -0.087   9.318  23.741  0.00  0.00    +0.000 C 
ATOM     19  C   UNL     1      -0.679  10.403  22.876  0.00  0.00    +0.000 C 
ATOM     20  O   UNL     1      -1.745  10.930  23.194  0.00  0.00    +0.000 OA
ENDBRANCH   1  19
BRANCH   3  21
ATOM     21  O   UNL     1       1.678   9.139  18.715  0.00  0.00    +0.000 OA
BRANCH  21  22
ATOM     22  C   UNL     1       1.915   7.897  19.378  0.00  0.00    +0.000 C 
BRANCH  22  23
ATOM     23  C   UNL     1       2.747   7.004  18.493  0.00  0.00    +0.000 A 
ATOM     24  C   UNL     1       3.741   7.560  17.679  0.00  0.00    +0.000 A 
ATOM     25  C   UNL     1       4.549   6.740  16.894  0.00  0.00    +0.000 A 
ATOM     26  C   UNL     1       4.366   5.356  16.915  0.00  0.00    +0.000 A 
ATOM     27  C   UNL     1       3.371   4.791  17.719  0.00  0.00    +0.000 A 
ATOM     28  C   UNL     1       2.560   5.615  18.506  0.00  0.00    +0.000 A 
BRANCH  26  29
ATOM     29  C   UNL     1       5.204   4.510  16.115  0.00  0.00    +0.000 C 
ATOM     30  N   UNL     1       5.882   3.823  15.471  0.00  0.00    +0.000 NA
ENDBRANCH  26  29
ENDBRANCH  22  23
ENDBRANCH  21  22
ENDBRANCH   3  21
TORSDOF 6
ENDMDL
