MODEL 1
REMARK VINA RESULT:      -6.8      0.000      0.000
REMARK  Name = 
REMARK  6 active torsions:
REMARK  status: ('A' for Active; 'I' for Inactive)
REMARK    1  A    between atoms: C_1  and  C_2
REMARK    2  A    between atoms: C_2  and  O_3
REMARK    3  A    between atoms: O_3  and  C_4
REMARK    4  A    between atoms: C_4  and  C_6
REMARK    5  A    between atoms: C_10  and  N_11
REMARK    6  A    between atoms: C_12  and  C_14
REMARK                            x       y       z     vdW  Elec       q    Type
REMARK                         _______ _______ _______ _____ _____    ______ ____
ROOT
ATOM      1  C   UNL     1       5.474   5.172  15.995  0.00  0.00    +0.000 A 
ATOM      2  C   UNL     1       5.355   6.553  16.195  0.00  0.00    +0.000 A 
ATOM      3  C   UNL     1       4.448   7.043  17.126  0.00  0.00    +0.000 A 
ATOM      4  C   UNL     1       3.637   6.163  17.845  0.00  0.00    +0.000 A 
ATOM      5  C   UNL     1       3.728   4.784  17.649  0.00  0.00    +0.000 A 
ATOM      6  C   UNL     1       4.659   4.291  16.726  0.00  0.00    +0.000 A 
ENDROOT
BRANCH   5   7
ATOM      7  N   UNL     1       2.938   3.848  18.353  0.00  0.00    +0.000 N 
ATOM      8  C   UNL     1       1.591   3.578  18.144  0.00  0.00    +0.000 C 
ATOM      9  O   UNL     1       0.895   4.039  17.245  0.00  0.00    +0.000 OA
ATOM     10  H   UNL     1       3.408   3.318  19.079  0.00  0.00    +0.000 HD
BRANCH   8  11
ATOM     11  C   UNL     1       1.015   2.556  19.106  0.00  0.00    +0.000 C 
ATOM     12  I   UNL     1       1.739   2.942  21.057  0.00  0.00    +0.000 I 
ENDBRANCH   8  11
ENDBRANCH   5   7
BRANCH   1  13
ATOM     13  C   UNL     1       6.504   4.603  15.085  0.00  0.00    +0.000 C 
ATOM     14  O   UNL     1       7.656   5.003  15.032  0.00  0.00    +0.000 OA
BRANCH  13  15
ATOM     15  O   UNL     1       5.930   3.681  14.275  0.00  0.00    +0.000 OA
BRANCH  15  17
ATOM     16  C   UNL     1       5.173   3.300  12.045  0.00  0.00    +0.000 C 
ATOM     17  C   UNL     1       6.357   3.696  12.909  0.00  0.00    +0.000 C 
ENDBRANCH  15  17
ENDBRANCH  13  15
ENDBRANCH   1  13
TORSDOF 5
ENDMDL
MODEL 2
REMARK VINA RESULT:      -6.7      1.662      1.856
REMARK  Name = 
REMARK  6 active torsions:
REMARK  status: ('A' for Active; 'I' for Inactive)
REMARK    1  A    between atoms: C_1  and  C_2
REMARK    2  A    between atoms: C_2  and  O_3
REMARK    3  A    between atoms: O_3  and  C_4
REMARK    4  A    between atoms: C_4  and  C_6
REMARK    5  A    between atoms: C_10  and  N_11
REMARK    6  A    between atoms: C_12  and  C_14
REMARK                            x       y       z     vdW  Elec       q    Type
REMARK                         _______ _______ _______ _____ _____    ______ ____
ROOT
ATOM      1  C   UNL     1       6.369   4.554  15.733  0.00  0.00    +0.000 A 
ATOM      2  C   UNL     1       7.369   4.858  16.666  0.00  0.00    +0.000 A 
ATOM      3  C   UNL     1       7.089   4.797  18.026  0.00  0.00    +0.000 A 
ATOM      4  C   UNL     1       5.808   4.457  18.464  0.00  0.00    +0.000 A 
ATOM      5  C   UNL     1       4.794   4.165  17.550  0.00  0.00    +0.000 A 
ATOM      6  C   UNL     1       5.083   4.206  16.181  0.00  0.00    +0.000 A 
ENDROOT
BRANCH   5   7
ATOM      7  N   UNL     1       3.483   3.810  17.937  0.00  0.00    +0.000 N 
ATOM      8  C   UNL     1       2.993   2.523  18.119  0.00  0.00    +0.000 C 
ATOM      9  O   UNL     1       3.650   1.488  18.068  0.00  0.00    +0.000 OA
ATOM     10  H   UNL     1       2.840   4.576  18.105  0.00  0.00    +0.000 HD
BRANCH   8  11
ATOM     11  C   UNL     1       1.521   2.472  18.482  0.00  0.00    +0.000 C 
ATOM     12  I   UNL     1       1.234   3.376  20.375  0.00  0.00    +0.000 I 
ENDBRANCH   8  11
ENDBRANCH   5   7
BRANCH   1  13
ATOM     13  C   UNL     1       6.655   4.505  14.274  0.00  0.00    +0.000 C 
ATOM     14  O   UNL     1       7.398   5.286  13.703  0.00  0.00    +0.000 OA
BRANCH  13  15
ATOM     15  O   UNL     1       5.883   3.554  13.696  0.00  0.00    +0.000 OA
BRANCH  15  17
ATOM     16  C   UNL     1       4.664   3.274  11.663  0.00  0.00    +0.000 C 
ATOM     17  C   UNL     1       6.046   3.389  12.283  0.00  0.00    +0.000 C 
ENDBRANCH  15  17
ENDBRANCH  13  15
ENDBRANCH   1  13
TORSDOF 5
ENDMDL
MODEL 3
REMARK VINA RESULT:      -6.5      1.545      1.580
REMARK  Name = 
REMARK  6 active torsions:
REMARK  status: ('A' for Active; 'I' for Inactive)
REMARK    1  A    between atoms: C_1  and  C_2
REMARK    2  A    between atoms: C_2  and  O_3
REMARK    3  A    between atoms: O_3  and  C_4
REMARK    4  A    between atoms: C_4  and  C_6
REMARK    5  A    between atoms: C_10  and  N_11
REMARK    6  A    between atoms: C_12  and  C_14
REMARK                            x       y       z     vdW  Elec       q    Type
REMARK                         _______ _______ _______ _____ _____    ______ ____
ROOT
ATOM      1  C   UNL     1       6.614   5.081  16.019  0.00  0.00    +0.000 A 
ATOM      2  C   UNL     1       7.252   6.054  16.799  0.00  0.00    +0.000 A 
ATOM      3  C   UNL     1       7.016   6.111  18.167  0.00  0.00    +0.000 A 
ATOM      4  C   UNL     1       6.124   5.216  18.761  0.00  0.00    +0.000 A 
ATOM      5  C   UNL     1       5.466   4.249  17.999  0.00  0.00    +0.000 A 
ATOM      6  C   UNL     1       5.723   4.180  16.625  0.00  0.00    +0.000 A 
ENDROOT
BRANCH   5   7
ATOM      7  N   UNL     1       4.560   3.316  18.550  0.00  0.00    +0.000 N 
ATOM      8  C   UNL     1       3.174   3.405  18.548  0.00  0.00    +0.000 C 
ATOM      9  O   UNL     1       2.509   4.265  17.978  0.00  0.00    +0.000 OA
ATOM     10  H   UNL     1       4.968   2.494  18.984  0.00  0.00    +0.000 HD
BRANCH   8  11
ATOM     11  C   UNL     1       2.484   2.265  19.272  0.00  0.00    +0.000 C 
ATOM     12  I   UNL     1       1.812   2.939  21.162  0.00  0.00    +0.000 I 
ENDBRANCH   8  11
ENDBRANCH   5   7
BRANCH   1  13
ATOM     13  C   UNL     1       6.920   4.920  14.572  0.00  0.00    +0.000 C 
ATOM     14  O   UNL     1       7.833   5.497  14.004  0.00  0.00    +0.000 OA
BRANCH  13  15
ATOM     15  O   UNL     1       5.970   4.145  13.995  0.00  0.00    +0.000 OA
BRANCH  15  17
ATOM     16  C   UNL     1       5.023   3.294  11.977  0.00  0.00    +0.000 C 
ATOM     17  C   UNL     1       6.313   3.574  12.728  0.00  0.00    +0.000 C 
ENDBRANCH  15  17
ENDBRANCH  13  15
ENDBRANCH   1  13
TORSDOF 5
ENDMDL
MODEL 4
REMARK VINA RESULT:      -6.5      2.213      2.249
REMARK  Name = 
REMARK  6 active torsions:
REMARK  status: ('A' for Active; 'I' for Inactive)
REMARK    1  A    between atoms: C_1  and  C_2
REMARK    2  A    between atoms: C_2  and  O_3
REMARK    3  A    between atoms: O_3  and  C_4
REMARK    4  A    between atoms: C_4  and  C_6
REMARK    5  A    between atoms: C_10  and  N_11
REMARK    6  A    between atoms: C_12  and  C_14
REMARK                            x       y       z     vdW  Elec       q    Type
REMARK                         _______ _______ _______ _____ _____    ______ ____
ROOT
ATOM      1  C   UNL     1       6.670   4.987  16.590  0.00  0.00    +0.000 A 
ATOM      2  C   UNL     1       7.511   5.738  17.421  0.00  0.00    +0.000 A 
ATOM      3  C   UNL     1       7.216   5.864  18.773  0.00  0.00    +0.000 A 
ATOM      4  C   UNL     1       6.071   5.263  19.300  0.00  0.00    +0.000 A 
ATOM      5  C   UNL     1       5.213   4.523  18.486  0.00  0.00    +0.000 A 
ATOM      6  C   UNL     1       5.523   4.379  17.128  0.00  0.00    +0.000 A 
ENDROOT
BRANCH   5   7
ATOM      7  N   UNL     1       4.046   3.889  18.966  0.00  0.00    +0.000 N 
ATOM      8  C   UNL     1       3.986   2.731  19.732  0.00  0.00    +0.000 C 
ATOM      9  O   UNL     1       4.947   2.126  20.198  0.00  0.00    +0.000 OA
ATOM     10  H   UNL     1       3.163   4.332  18.732  0.00  0.00    +0.000 HD
BRANCH   8  11
ATOM     11  C   UNL     1       2.574   2.272  20.041  0.00  0.00    +0.000 C 
ATOM     12  I   UNL     1       1.324   3.962  20.283  0.00  0.00    +0.000 I 
ENDBRANCH   8  11
ENDBRANCH   5   7
BRANCH   1  13
ATOM     13  C   UNL     1       7.006   4.741  15.162  0.00  0.00    +0.000 C 
ATOM     14  O   UNL     1       7.769   5.440  14.515  0.00  0.00    +0.000 OA
BRANCH  13  15
ATOM     15  O   UNL     1       6.253   3.717  14.692  0.00  0.00    +0.000 OA
BRANCH  15  17
ATOM     16  C   UNL     1       6.091   3.261  12.356  0.00  0.00    +0.000 C 
ATOM     17  C   UNL     1       5.469   3.999  13.529  0.00  0.00    +0.000 C 
ENDBRANCH  15  17
ENDBRANCH  13  15
ENDBRANCH   1  13
TORSDOF 5
ENDMDL
MODEL 5
REMARK VINA RESULT:      -6.4      1.282      1.626
REMARK  Name = 
REMARK  6 active torsions:
REMARK  status: ('A' for Active; 'I' for Inactive)
REMARK    1  A    between atoms: C_1  and  C_2
REMARK    2  A    between atoms: C_2  and  O_3
REMARK    3  A    between atoms: O_3  and  C_4
REMARK    4  A    between atoms: C_4  and  C_6
REMARK    5  A    between atoms: C_10  and  N_11
REMARK    6  A    between atoms: C_12  and  C_14
REMARK                            x       y       z     vdW  Elec       q    Type
REMARK                         _______ _______ _______ _____ _____    ______ ____
ROOT
ATOM      1  C   UNL     1       5.855   5.406  17.442  0.00  0.00    +0.000 A 
ATOM      2  C   UNL     1       5.579   6.700  16.983  0.00  0.00    +0.000 A 
ATOM      3  C   UNL     1       4.343   7.278  17.241  0.00  0.00    +0.000 A 
ATOM      4  C   UNL     1       3.365   6.563  17.935  0.00  0.00    +0.000 A 
ATOM      5  C   UNL     1       3.615   5.266  18.388  0.00  0.00    +0.000 A 
ATOM      6  C   UNL     1       4.870   4.693  18.146  0.00  0.00    +0.000 A 
ENDROOT
BRANCH   5   7
ATOM      7  N   UNL     1       2.666   4.500  19.100  0.00  0.00    +0.000 N 
ATOM      8  C   UNL     1       1.655   3.718  18.556  0.00  0.00    +0.000 C 
ATOM      9  O   UNL     1       1.486   3.488  17.362  0.00  0.00    +0.000 OA
ATOM     10  H   UNL     1       2.738   4.521  20.112  0.00  0.00    +0.000 HD
BRANCH   8  11
ATOM     11  C   UNL     1       0.762   3.061  19.591  0.00  0.00    +0.000 C 
ATOM     12  I   UNL     1       1.809   2.908  21.424  0.00  0.00    +0.000 I 
ENDBRANCH   8  11
ENDBRANCH   5   7
BRANCH   1  13
ATOM     13  C   UNL     1       7.200   4.792  17.279  0.00  0.00    +0.000 C 
ATOM     14  O   UNL     1       7.952   4.551  18.210  0.00  0.00    +0.000 OA
BRANCH  13  15
ATOM     15  O   UNL     1       7.480   4.665  15.960  0.00  0.00    +0.000 OA
BRANCH  15  17
ATOM     16  C   UNL     1       6.531   4.425  13.784  0.00  0.00    +0.000 C 
ATOM     17  C   UNL     1       6.561   3.875  15.199  0.00  0.00    +0.000 C 
ENDBRANCH  15  17
ENDBRANCH  13  15
ENDBRANCH   1  13
TORSDOF 5
ENDMDL
MODEL 6
REMARK VINA RESULT:      -6.3      1.495      2.537
REMARK  Name = 
REMARK  6 active torsions:
REMARK  status: ('A' for Active; 'I' for Inactive)
REMARK    1  A    between atoms: C_1  and  C_2
REMARK    2  A    between atoms: C_2  and  O_3
REMARK    3  A    between atoms: O_3  and  C_4
REMARK    4  A    between atoms: C_4  and  C_6
REMARK    5  A    between atoms: C_10  and  N_11
REMARK    6  A    between atoms: C_12  and  C_14
REMARK                            x       y       z     vdW  Elec       q    Type
REMARK                         _______ _______ _______ _____ _____    ______ ____
ROOT
ATOM      1  C   UNL     1       5.302   5.332  16.577  0.00  0.00    +0.000 A 
ATOM      2  C   UNL     1       5.102   6.714  16.471  0.00  0.00    +0.000 A 
ATOM      3  C   UNL     1       4.082   7.324  17.192  0.00  0.00    +0.000 A 
ATOM      4  C   UNL     1       3.242   6.558  18.002  0.00  0.00    +0.000 A 
ATOM      5  C   UNL     1       3.415   5.177  18.109  0.00  0.00    +0.000 A 
ATOM      6  C   UNL     1       4.458   4.568  17.399  0.00  0.00    +0.000 A 
ENDROOT
BRANCH   5   7
ATOM      7  N   UNL     1       2.600   4.355  18.918  0.00  0.00    +0.000 N 
ATOM      8  C   UNL     1       1.407   3.748  18.546  0.00  0.00    +0.000 C 
ATOM      9  O   UNL     1       0.920   3.747  17.419  0.00  0.00    +0.000 OA
ATOM     10  H   UNL     1       2.926   4.190  19.865  0.00  0.00    +0.000 HD
BRANCH   8  11
ATOM     11  C   UNL     1       0.738   2.972  19.665  0.00  0.00    +0.000 C 
ATOM     12  I   UNL     1       1.996   2.971  21.367  0.00  0.00    +0.000 I 
ENDBRANCH   8  11
ENDBRANCH   5   7
BRANCH   1  13
ATOM     13  C   UNL     1       6.446   4.658  15.905  0.00  0.00    +0.000 C 
ATOM     14  O   UNL     1       6.317   3.819  15.029  0.00  0.00    +0.000 OA
BRANCH  13  15
ATOM     15  O   UNL     1       7.603   5.037  16.498  0.00  0.00    +0.000 OA
BRANCH  15  17
ATOM     16  C   UNL     1       7.877   5.821  18.735  0.00  0.00    +0.000 C 
ATOM     17  C   UNL     1       7.791   4.593  17.846  0.00  0.00    +0.000 C 
ENDBRANCH  15  17
ENDBRANCH  13  15
ENDBRANCH   1  13
TORSDOF 5
ENDMDL
MODEL 7
REMARK VINA RESULT:      -6.2      1.646      1.648
REMARK  Name = 
REMARK  6 active torsions:
REMARK  status: ('A' for Active; 'I' for Inactive)
REMARK    1  A    between atoms: C_1  and  C_2
REMARK    2  A    between atoms: C_2  and  O_3
REMARK    3  A    between atoms: O_3  and  C_4
REMARK    4  A    between atoms: C_4  and  C_6
REMARK    5  A    between atoms: C_10  and  N_11
REMARK    6  A    between atoms: C_12  and  C_14
REMARK                            x       y       z     vdW  Elec       q    Type
REMARK                         _______ _______ _______ _____ _____    ______ ____
ROOT
ATOM      1  C   UNL     1       5.635   5.343  15.558  0.00  0.00    +0.000 A 
ATOM      2  C   UNL     1       5.501   6.712  15.820  0.00  0.00    +0.000 A 
ATOM      3  C   UNL     1       4.718   7.140  16.885  0.00  0.00    +0.000 A 
ATOM      4  C   UNL     1       4.045   6.209  17.679  0.00  0.00    +0.000 A 
ATOM      5  C   UNL     1       4.152   4.841  17.424  0.00  0.00    +0.000 A 
ATOM      6  C   UNL     1       4.960   4.411  16.364  0.00  0.00    +0.000 A 
ENDROOT
BRANCH   5   7
ATOM      7  N   UNL     1       3.499   3.857  18.198  0.00  0.00    +0.000 N 
ATOM      8  C   UNL     1       4.055   3.109  19.229  0.00  0.00    +0.000 C 
ATOM      9  O   UNL     1       5.179   3.254  19.699  0.00  0.00    +0.000 OA
ATOM     10  H   UNL     1       2.523   3.687  17.980  0.00  0.00    +0.000 HD
BRANCH   8  11
ATOM     11  C   UNL     1       3.105   2.089  19.827  0.00  0.00    +0.000 C 
ATOM     12  I   UNL     1       1.138   2.871  19.818  0.00  0.00    +0.000 I 
ENDBRANCH   8  11
ENDBRANCH   5   7
BRANCH   1  13
ATOM     13  C   UNL     1       6.546   4.839  14.495  0.00  0.00    +0.000 C 
ATOM     14  O   UNL     1       7.670   5.274  14.304  0.00  0.00    +0.000 OA
BRANCH  13  15
ATOM     15  O   UNL     1       5.889   3.933  13.731  0.00  0.00    +0.000 OA
BRANCH  15  17
ATOM     16  C   UNL     1       5.642   2.570  11.789  0.00  0.00    +0.000 C 
ATOM     17  C   UNL     1       6.461   3.667  12.446  0.00  0.00    +0.000 C 
ENDBRANCH  15  17
ENDBRANCH  13  15
ENDBRANCH   1  13
TORSDOF 5
ENDMDL
MODEL 8
REMARK VINA RESULT:      -6.1      2.507      3.907
REMARK  Name = 
REMARK  6 active torsions:
REMARK  status: ('A' for Active; 'I' for Inactive)
REMARK    1  A    between atoms: C_1  and  C_2
REMARK    2  A    between atoms: C_2  and  O_3
REMARK    3  A    between atoms: O_3  and  C_4
REMARK    4  A    between atoms: C_4  and  C_6
REMARK    5  A    between atoms: C_10  and  N_11
REMARK    6  A    between atoms: C_12  and  C_14
REMARK                            x       y       z     vdW  Elec       q    Type
REMARK                         _______ _______ _______ _____ _____    ______ ____
ROOT
ATOM      1  C   UNL     1       6.715   4.944  17.553  0.00  0.00    +0.000 A 
ATOM      2  C   UNL     1       7.036   4.654  16.221  0.00  0.00    +0.000 A 
ATOM      3  C   UNL     1       6.108   4.013  15.408  0.00  0.00    +0.000 A 
ATOM      4  C   UNL     1       4.867   3.636  15.924  0.00  0.00    +0.000 A 
ATOM      5  C   UNL     1       4.534   3.902  17.254  0.00  0.00    +0.000 A 
ATOM      6  C   UNL     1       5.462   4.568  18.064  0.00  0.00    +0.000 A 
ENDROOT
BRANCH   5   7
ATOM      7  N   UNL     1       3.292   3.549  17.825  0.00  0.00    +0.000 N 
ATOM      8  C   UNL     1       2.912   2.288  18.270  0.00  0.00    +0.000 C 
ATOM      9  O   UNL     1       3.634   1.297  18.327  0.00  0.00    +0.000 OA
ATOM     10  H   UNL     1       2.614   4.296  17.926  0.00  0.00    +0.000 HD
BRANCH   8  11
ATOM     11  C   UNL     1       1.486   2.222  18.782  0.00  0.00    +0.000 C 
ATOM     12  I   UNL     1       1.372   3.186  20.663  0.00  0.00    +0.000 I 
ENDBRANCH   8  11
ENDBRANCH   5   7
BRANCH   1  13
ATOM     13  C   UNL     1       7.638   5.721  18.424  0.00  0.00    +0.000 C 
ATOM     14  O   UNL     1       7.784   5.507  19.616  0.00  0.00    +0.000 OA
BRANCH  13  15
ATOM     15  O   UNL     1       8.173   6.743  17.714  0.00  0.00    +0.000 OA
BRANCH  15  17
ATOM     16  C   UNL     1       8.274   9.101  18.069  0.00  0.00    +0.000 C 
ATOM     17  C   UNL     1       7.390   7.939  17.650  0.00  0.00    +0.000 C 
ENDBRANCH  15  17
ENDBRANCH  13  15
ENDBRANCH   1  13
TORSDOF 5
ENDMDL
MODEL 9
REMARK VINA RESULT:      -6.0      2.415      2.494
REMARK  Name = 
REMARK  6 active torsions:
REMARK  status: ('A' for Active; 'I' for Inactive)
REMARK    1  A    between atoms: C_1  and  C_2
REMARK    2  A    between atoms: C_2  and  O_3
REMARK    3  A    between atoms: O_3  and  C_4
REMARK    4  A    between atoms: C_4  and  C_6
REMARK    5  A    between atoms: C_10  and  N_11
REMARK    6  A    between atoms: C_12  and  C_14
REMARK                            x       y       z     vdW  Elec       q    Type
REMARK                         _______ _______ _______ _____ _____    ______ ____
ROOT
ATOM      1  C   UNL     1       5.738   5.704  16.729  0.00  0.00    +0.000 A 
ATOM      2  C   UNL     1       6.987   6.070  17.245  0.00  0.00    +0.000 A 
ATOM      3  C   UNL     1       7.286   5.823  18.579  0.00  0.00    +0.000 A 
ATOM      4  C   UNL     1       6.333   5.234  19.413  0.00  0.00    +0.000 A 
ATOM      5  C   UNL     1       5.076   4.876  18.922  0.00  0.00    +0.000 A 
ATOM      6  C   UNL     1       4.786   5.106  17.571  0.00  0.00    +0.000 A 
ENDROOT
BRANCH   5   7
ATOM      7  N   UNL     1       4.078   4.272  19.718  0.00  0.00    +0.000 N 
ATOM      8  C   UNL     1       4.071   2.965  20.188  0.00  0.00    +0.000 C 
ATOM      9  O   UNL     1       4.982   2.151  20.067  0.00  0.00    +0.000 OA
ATOM     10  H   UNL     1       3.292   4.859  19.977  0.00  0.00    +0.000 HD
BRANCH   8  11
ATOM     11  C   UNL     1       2.825   2.601  20.973  0.00  0.00    +0.000 C 
ATOM     12  I   UNL     1       1.201   3.777  20.294  0.00  0.00    +0.000 I 
ENDBRANCH   8  11
ENDBRANCH   5   7
BRANCH   1  13
ATOM     13  C   UNL     1       5.418   5.854  15.284  0.00  0.00    +0.000 C 
ATOM     14  O   UNL     1       5.161   6.923  14.755  0.00  0.00    +0.000 OA
BRANCH  13  15
ATOM     15  O   UNL     1       5.347   4.630  14.709  0.00  0.00    +0.000 OA
BRANCH  15  17
ATOM     16  C   UNL     1       6.055   3.513  12.722  0.00  0.00    +0.000 C 
ATOM     17  C   UNL     1       6.512   4.206  13.994  0.00  0.00    +0.000 C 
ENDBRANCH  15  17
ENDBRANCH  13  15
ENDBRANCH   1  13
TORSDOF 5
ENDMDL
