MODEL 1
REMARK VINA RESULT:      -5.9      0.000      0.000
REMARK  Name = 
REMARK  19 active torsions:
REMARK  status: ('A' for Active; 'I' for Inactive)
REMARK    1  A    between atoms: C_1  and  N_2
REMARK    2  A    between atoms: N_2  and  C_3
REMARK    3  A    between atoms: C_3  and  C_4
REMARK    4  A    between atoms: N_6  and  C_7
REMARK    5  A    between atoms: C_7  and  C_8
REMARK    6  A    between atoms: C_8  and  C_9
REMARK    7  A    between atoms: C_9  and  C_10
REMARK    8  A    between atoms: C_10  and  C_11
REMARK    9  A    between atoms: C_11  and  C_12
REMARK   10  A    between atoms: C_12  and  N_13
REMARK   11  A    between atoms: N_19  and  C_20
REMARK   12  A    between atoms: C_20  and  C_21
REMARK   13  A    between atoms: C_21  and  C_22
REMARK   14  A    between atoms: C_22  and  C_23
REMARK   15  A    between atoms: C_23  and  N_24
REMARK   16  A    between atoms: N_24  and  C_25
REMARK   17  A    between atoms: C_25  and  C_26
REMARK   18  A    between atoms: C_26  and  C_27
REMARK   19  A    between atoms: C_27  and  N_28
REMARK                            x       y       z     vdW  Elec       q    Type
REMARK                         _______ _______ _______ _____ _____    ______ ____
ROOT
ATOM      1  C   UNL     1       2.818   5.093  20.244  0.00  0.00    +0.000 C 
ENDROOT
BRANCH   1   3
ATOM      2  C   UNL     1       0.766   3.681  20.092  0.00  0.00    +0.000 C 
ATOM      3  N   UNL     1       1.984   4.170  19.470  0.00  0.00    +0.000 N 
ATOM      4  C   UNL     1       2.407   3.483  18.338  0.00  0.00    +0.000 C 
ATOM      5  O   UNL     1       1.758   2.549  17.869  0.00  0.00    +0.000 OA
ATOM      6  N   UNL     1       3.570   3.918  17.763  0.00  0.00    +0.000 N 
ATOM      7  H   UNL     1       3.944   4.819  18.031  0.00  0.00    +0.000 HD
BRANCH   6   8
ATOM      8  C   UNL     1       4.019   3.423  16.474  0.00  0.00    +0.000 C 
BRANCH   8   9
ATOM      9  C   UNL     1       5.400   3.936  16.056  0.00  0.00    +0.000 C 
BRANCH   9  10
ATOM     10  C   UNL     1       5.329   5.198  15.195  0.00  0.00    +0.000 C 
BRANCH  10  11
ATOM     11  C   UNL     1       5.459   6.463  16.043  0.00  0.00    +0.000 C 
BRANCH  11  12
ATOM     12  N   UNL     1       6.861   6.674  16.402  0.00  0.00    +0.000 NA
ATOM     13  H   UNL     1       7.304   7.286  15.716  0.00  0.00    +0.000 HD
BRANCH  12  14
ATOM     14  C   UNL     1       6.997   7.246  17.739  0.00  0.00    +0.000 C 
BRANCH  14  15
ATOM     15  C   UNL     1       8.002   6.437  18.565  0.00  0.00    +0.000 C 
BRANCH  15  16
ATOM     16  C   UNL     1       7.284   5.667  19.673  0.00  0.00    +0.000 C 
BRANCH  16  17
ATOM     17  N   UNL     1       6.314   4.733  19.113  0.00  0.00    +0.000 NA
ATOM     18  H   UNL     1       5.832   4.242  19.865  0.00  0.00    +0.000 HD
ATOM     19  H   UNL     1       6.800   4.023  18.569  0.00  0.00    +0.000 HD
ENDBRANCH  16  17
ENDBRANCH  15  16
ENDBRANCH  14  15
ENDBRANCH  12  14
ENDBRANCH  11  12
ENDBRANCH  10  11
ENDBRANCH   9  10
ENDBRANCH   8   9
ENDBRANCH   6   8
ENDBRANCH   1   3
BRANCH   1  20
ATOM     20  C   UNL     1       2.548   6.545  19.866  0.00  0.00    +0.000 C 
ATOM     21  O   UNL     1       2.818   6.958  18.738  0.00  0.00    +0.000 OA
ATOM     22  N   UNL     1       1.896   7.304  20.814  0.00  0.00    +0.000 N 
ATOM     23  H   UNL     1       1.618   6.876  21.689  0.00  0.00    +0.000 HD
BRANCH  22  24
ATOM     24  C   UNL     1       1.468   8.657  20.526  0.00  0.00    +0.000 C 
BRANCH  24  25
ATOM     25  C   UNL     1       0.024   8.905  20.952  0.00  0.00    +0.000 C 
BRANCH  25  26
ATOM     26  C   UNL     1      -0.370  10.375  20.919  0.00  0.00    +0.000 C 
BRANCH  26  27
ATOM     27  C   UNL     1      -0.220  11.009  19.534  0.00  0.00    +0.000 C 
BRANCH  27  28
ATOM     28  C   UNL     1      -0.574  10.043  18.394  0.00  0.00    +0.000 C 
BRANCH  28  29
ATOM     29  C   UNL     1      -1.983  10.314  17.876  0.00  0.00    +0.000 C 
BRANCH  29  30
ATOM     30  N   UNL     1      -2.130   9.815  16.514  0.00  0.00    +0.000 NA
ATOM     31  C   UNL     1      -2.897  10.500  15.749  0.00  0.00    +0.000 C 
ATOM     32  N   UNL     1      -3.604  11.622  16.023  0.00  0.00    +0.000 N 
ATOM     33  N   UNL     1      -3.090  10.123  14.467  0.00  0.00    +0.000 N 
ATOM     34  H   UNL     1      -3.305  12.120  16.852  0.00  0.00    +0.000 HD
ATOM     35  H   UNL     1      -3.698  12.244  15.233  0.00  0.00    +0.000 HD
ATOM     36  H   UNL     1      -2.816   9.153  14.346  0.00  0.00    +0.000 HD
ATOM     37  H   UNL     1      -4.018  10.298  14.112  0.00  0.00    +0.000 HD
ENDBRANCH  29  30
ENDBRANCH  28  29
ENDBRANCH  27  28
ENDBRANCH  26  27
ENDBRANCH  25  26
ENDBRANCH  24  25
ENDBRANCH  22  24
ENDBRANCH   1  20
TORSDOF 18
ENDMDL
MODEL 2
REMARK VINA RESULT:      -5.8      1.566      1.934
REMARK  Name = 
REMARK  19 active torsions:
REMARK  status: ('A' for Active; 'I' for Inactive)
REMARK    1  A    between atoms: C_1  and  N_2
REMARK    2  A    between atoms: N_2  and  C_3
REMARK    3  A    between atoms: C_3  and  C_4
REMARK    4  A    between atoms: N_6  and  C_7
REMARK    5  A    between atoms: C_7  and  C_8
REMARK    6  A    between atoms: C_8  and  C_9
REMARK    7  A    between atoms: C_9  and  C_10
REMARK    8  A    between atoms: C_10  and  C_11
REMARK    9  A    between atoms: C_11  and  C_12
REMARK   10  A    between atoms: C_12  and  N_13
REMARK   11  A    between atoms: N_19  and  C_20
REMARK   12  A    between atoms: C_20  and  C_21
REMARK   13  A    between atoms: C_21  and  C_22
REMARK   14  A    between atoms: C_22  and  C_23
REMARK   15  A    between atoms: C_23  and  N_24
REMARK   16  A    between atoms: N_24  and  C_25
REMARK   17  A    between atoms: C_25  and  C_26
REMARK   18  A    between atoms: C_26  and  C_27
REMARK   19  A    between atoms: C_27  and  N_28
REMARK                            x       y       z     vdW  Elec       q    Type
REMARK                         _______ _______ _______ _____ _____    ______ ____
ROOT
ATOM      1  C   UNL     1       1.214   3.510  19.887  0.00  0.00    +0.000 C 
ENDROOT
BRANCH   1   3
ATOM      2  C   UNL     1       2.579   2.518  21.725  0.00  0.00    +0.000 C 
ATOM      3  N   UNL     1       2.443   2.840  20.315  0.00  0.00    +0.000 N 
ATOM      4  C   UNL     1       3.610   2.770  19.561  0.00  0.00    +0.000 C 
ATOM      5  O   UNL     1       4.678   2.411  20.055  0.00  0.00    +0.000 OA
ATOM      6  N   UNL     1       3.497   3.101  18.238  0.00  0.00    +0.000 N 
ATOM      7  H   UNL     1       2.576   3.161  17.822  0.00  0.00    +0.000 HD
BRANCH   6   8
ATOM      8  C   UNL     1       4.584   2.883  17.299  0.00  0.00    +0.000 C 
BRANCH   8   9
ATOM      9  C   UNL     1       4.745   3.999  16.262  0.00  0.00    +0.000 C 
BRANCH   9  10
ATOM     10  C   UNL     1       6.130   4.012  15.615  0.00  0.00    +0.000 C 
BRANCH  10  11
ATOM     11  C   UNL     1       6.501   5.408  15.113  0.00  0.00    +0.000 C 
BRANCH  11  12
ATOM     12  N   UNL     1       7.533   5.984  15.973  0.00  0.00    +0.000 NA
ATOM     13  H   UNL     1       8.130   6.605  15.427  0.00  0.00    +0.000 HD
BRANCH  12  14
ATOM     14  C   UNL     1       6.953   6.714  17.098  0.00  0.00    +0.000 C 
BRANCH  14  15
ATOM     15  C   UNL     1       7.820   6.541  18.349  0.00  0.00    +0.000 C 
BRANCH  15  16
ATOM     16  C   UNL     1       7.143   5.594  19.340  0.00  0.00    +0.000 C 
BRANCH  16  17
ATOM     17  N   UNL     1       7.983   5.381  20.513  0.00  0.00    +0.000 NA
ATOM     18  H   UNL     1       7.924   6.189  21.132  0.00  0.00    +0.000 HD
ATOM     19  H   UNL     1       8.957   5.306  20.226  0.00  0.00    +0.000 HD
ENDBRANCH  16  17
ENDBRANCH  15  16
ENDBRANCH  14  15
ENDBRANCH  12  14
ENDBRANCH  11  12
ENDBRANCH  10  11
ENDBRANCH   9  10
ENDBRANCH   8   9
ENDBRANCH   6   8
ENDBRANCH   1   3
BRANCH   1  20
ATOM     20  C   UNL     1       1.472   4.962  19.498  0.00  0.00    +0.000 C 
ATOM     21  O   UNL     1       1.420   5.312  18.319  0.00  0.00    +0.000 OA
ATOM     22  N   UNL     1       1.649   5.843  20.543  0.00  0.00    +0.000 N 
ATOM     23  H   UNL     1       1.587   5.504  21.496  0.00  0.00    +0.000 HD
BRANCH  22  24
ATOM     24  C   UNL     1       1.772   7.266  20.309  0.00  0.00    +0.000 C 
BRANCH  24  25
ATOM     25  C   UNL     1       1.599   8.076  21.591  0.00  0.00    +0.000 C 
BRANCH  25  26
ATOM     26  C   UNL     1       0.275   8.825  21.658  0.00  0.00    +0.000 C 
BRANCH  26  27
ATOM     27  C   UNL     1       0.405  10.310  21.309  0.00  0.00    +0.000 C 
BRANCH  27  28
ATOM     28  C   UNL     1      -0.757  10.824  20.446  0.00  0.00    +0.000 C 
BRANCH  28  29
ATOM     29  C   UNL     1      -0.531  10.478  18.977  0.00  0.00    +0.000 C 
BRANCH  29  30
ATOM     30  N   UNL     1      -1.792  10.518  18.246  0.00  0.00    +0.000 NA
ATOM     31  C   UNL     1      -1.992  11.569  17.540  0.00  0.00    +0.000 C 
ATOM     32  N   UNL     1      -1.206  12.659  17.378  0.00  0.00    +0.000 N 
ATOM     33  N   UNL     1      -3.127  11.696  16.819  0.00  0.00    +0.000 N 
ATOM     34  H   UNL     1      -0.239  12.529  17.648  0.00  0.00    +0.000 HD
ATOM     35  H   UNL     1      -1.279  13.079  16.462  0.00  0.00    +0.000 HD
ATOM     36  H   UNL     1      -3.829  11.047  17.160  0.00  0.00    +0.000 HD
ATOM     37  H   UNL     1      -3.484  12.638  16.758  0.00  0.00    +0.000 HD
ENDBRANCH  29  30
ENDBRANCH  28  29
ENDBRANCH  27  28
ENDBRANCH  26  27
ENDBRANCH  25  26
ENDBRANCH  24  25
ENDBRANCH  22  24
ENDBRANCH   1  20
TORSDOF 18
ENDMDL
MODEL 3
REMARK VINA RESULT:      -5.8      3.376      5.438
REMARK  Name = 
REMARK  19 active torsions:
REMARK  status: ('A' for Active; 'I' for Inactive)
REMARK    1  A    between atoms: C_1  and  N_2
REMARK    2  A    between atoms: N_2  and  C_3
REMARK    3  A    between atoms: C_3  and  C_4
REMARK    4  A    between atoms: N_6  and  C_7
REMARK    5  A    between atoms: C_7  and  C_8
REMARK    6  A    between atoms: C_8  and  C_9
REMARK    7  A    between atoms: C_9  and  C_10
REMARK    8  A    between atoms: C_10  and  C_11
REMARK    9  A    between atoms: C_11  and  C_12
REMARK   10  A    between atoms: C_12  and  N_13
REMARK   11  A    between atoms: N_19  and  C_20
REMARK   12  A    between atoms: C_20  and  C_21
REMARK   13  A    between atoms: C_21  and  C_22
REMARK   14  A    between atoms: C_22  and  C_23
REMARK   15  A    between atoms: C_23  and  N_24
REMARK   16  A    between atoms: N_24  and  C_25
REMARK   17  A    between atoms: C_25  and  C_26
REMARK   18  A    between atoms: C_26  and  C_27
REMARK   19  A    between atoms: C_27  and  N_28
REMARK                            x       y       z     vdW  Elec       q    Type
REMARK                         _______ _______ _______ _____ _____    ______ ____
ROOT
ATOM      1  C   UNL     1      -0.187   8.436  21.739  0.00  0.00    +0.000 C 
ENDROOT
BRANCH   1   3
ATOM      2  C   UNL     1       1.071   9.707  19.999  0.00  0.00    +0.000 C 
ATOM      3  N   UNL     1       0.928   8.498  20.791  0.00  0.00    +0.000 N 
ATOM      4  C   UNL     1       1.661   7.398  20.359  0.00  0.00    +0.000 C 
ATOM      5  O   UNL     1       2.419   7.467  19.393  0.00  0.00    +0.000 OA
ATOM      6  N   UNL     1       1.509   6.246  21.081  0.00  0.00    +0.000 N 
ATOM      7  H   UNL     1       1.069   6.291  21.991  0.00  0.00    +0.000 HD
BRANCH   6   8
ATOM      8  C   UNL     1       2.358   5.088  20.862  0.00  0.00    +0.000 C 
BRANCH   8   9
ATOM      9  C   UNL     1       1.602   3.755  20.851  0.00  0.00    +0.000 C 
BRANCH   9  10
ATOM     10  C   UNL     1       0.801   3.538  19.567  0.00  0.00    +0.000 C 
BRANCH  10  11
ATOM     11  C   UNL     1       1.038   2.143  18.988  0.00  0.00    +0.000 C 
BRANCH  11  12
ATOM     12  N   UNL     1       1.936   2.232  17.838  0.00  0.00    +0.000 NA
ATOM     13  H   UNL     1       1.948   3.189  17.484  0.00  0.00    +0.000 HD
BRANCH  12  14
ATOM     14  C   UNL     1       3.293   1.811  18.177  0.00  0.00    +0.000 C 
BRANCH  14  15
ATOM     15  C   UNL     1       4.236   3.018  18.201  0.00  0.00    +0.000 C 
BRANCH  15  16
ATOM     16  C   UNL     1       3.898   3.981  17.064  0.00  0.00    +0.000 C 
BRANCH  16  17
ATOM     17  N   UNL     1       3.319   5.215  17.581  0.00  0.00    +0.000 NA
ATOM     18  H   UNL     1       2.620   5.000  18.290  0.00  0.00    +0.000 HD
ATOM     19  H   UNL     1       2.831   5.702  16.831  0.00  0.00    +0.000 HD
ENDBRANCH  16  17
ENDBRANCH  15  16
ENDBRANCH  14  15
ENDBRANCH  12  14
ENDBRANCH  11  12
ENDBRANCH  10  11
ENDBRANCH   9  10
ENDBRANCH   8   9
ENDBRANCH   6   8
ENDBRANCH   1   3
BRANCH   1  20
ATOM     20  C   UNL     1      -0.235   9.673  22.630  0.00  0.00    +0.000 C 
ATOM     21  O   UNL     1       0.530   9.783  23.588  0.00  0.00    +0.000 OA
ATOM     22  N   UNL     1      -1.093  10.673  22.227  0.00  0.00    +0.000 N 
ATOM     23  H   UNL     1      -1.628  10.557  21.374  0.00  0.00    +0.000 HD
BRANCH  22  24
ATOM     24  C   UNL     1      -1.134  11.947  22.913  0.00  0.00    +0.000 C 
BRANCH  24  25
ATOM     25  C   UNL     1      -1.771  13.039  22.060  0.00  0.00    +0.000 C 
BRANCH  25  26
ATOM     26  C   UNL     1      -2.350  12.522  20.751  0.00  0.00    +0.000 C 
BRANCH  26  27
ATOM     27  C   UNL     1      -3.824  12.889  20.556  0.00  0.00    +0.000 C 
BRANCH  27  28
ATOM     28  C   UNL     1      -4.646  12.762  21.847  0.00  0.00    +0.000 C 
BRANCH  28  29
ATOM     29  C   UNL     1      -6.115  12.503  21.526  0.00  0.00    +0.000 C 
BRANCH  29  30
ATOM     30  N   UNL     1      -6.246  11.859  20.225  0.00  0.00    +0.000 NA
ATOM     31  C   UNL     1      -6.983  10.811  20.195  0.00  0.00    +0.000 C 
ATOM     32  N   UNL     1      -7.656  10.203  21.200  0.00  0.00    +0.000 N 
ATOM     33  N   UNL     1      -7.173  10.147  19.034  0.00  0.00    +0.000 N 
ATOM     34  H   UNL     1      -7.796  10.776  22.024  0.00  0.00    +0.000 HD
ATOM     35  H   UNL     1      -8.517   9.766  20.905  0.00  0.00    +0.000 HD
ATOM     36  H   UNL     1      -6.457  10.410  18.363  0.00  0.00    +0.000 HD
ATOM     37  H   UNL     1      -7.250   9.146  19.129  0.00  0.00    +0.000 HD
ENDBRANCH  29  30
ENDBRANCH  28  29
ENDBRANCH  27  28
ENDBRANCH  26  27
ENDBRANCH  25  26
ENDBRANCH  24  25
ENDBRANCH  22  24
ENDBRANCH   1  20
TORSDOF 18
ENDMDL
MODEL 4
REMARK VINA RESULT:      -5.7      4.381      8.425
REMARK  Name = 
REMARK  19 active torsions:
REMARK  status: ('A' for Active; 'I' for Inactive)
REMARK    1  A    between atoms: C_1  and  N_2
REMARK    2  A    between atoms: N_2  and  C_3
REMARK    3  A    between atoms: C_3  and  C_4
REMARK    4  A    between atoms: N_6  and  C_7
REMARK    5  A    between atoms: C_7  and  C_8
REMARK    6  A    between atoms: C_8  and  C_9
REMARK    7  A    between atoms: C_9  and  C_10
REMARK    8  A    between atoms: C_10  and  C_11
REMARK    9  A    between atoms: C_11  and  C_12
REMARK   10  A    between atoms: C_12  and  N_13
REMARK   11  A    between atoms: N_19  and  C_20
REMARK   12  A    between atoms: C_20  and  C_21
REMARK   13  A    between atoms: C_21  and  C_22
REMARK   14  A    between atoms: C_22  and  C_23
REMARK   15  A    between atoms: C_23  and  N_24
REMARK   16  A    between atoms: N_24  and  C_25
REMARK   17  A    between atoms: C_25  and  C_26
REMARK   18  A    between atoms: C_26  and  C_27
REMARK   19  A    between atoms: C_27  and  N_28
REMARK                            x       y       z     vdW  Elec       q    Type
REMARK                         _______ _______ _______ _____ _____    ______ ____
ROOT
ATOM      1  C   UNL     1       7.465   4.548  17.272  0.00  0.00    +0.000 C 
ENDROOT
BRANCH   1   3
ATOM      2  C   UNL     1       7.438   4.854  14.796  0.00  0.00    +0.000 C 
ATOM      3  N   UNL     1       6.732   4.472  16.006  0.00  0.00    +0.000 N 
ATOM      4  C   UNL     1       5.349   4.373  15.898  0.00  0.00    +0.000 C 
ATOM      5  O   UNL     1       4.771   4.553  14.827  0.00  0.00    +0.000 OA
ATOM      6  N   UNL     1       4.673   4.043  17.041  0.00  0.00    +0.000 N 
ATOM      7  H   UNL     1       5.191   3.678  17.831  0.00  0.00    +0.000 HD
BRANCH   6   8
ATOM      8  C   UNL     1       3.259   3.715  17.026  0.00  0.00    +0.000 C 
BRANCH   8   9
ATOM      9  C   UNL     1       2.382   4.702  17.804  0.00  0.00    +0.000 C 
BRANCH   9  10
ATOM     10  C   UNL     1       3.196   5.651  18.685  0.00  0.00    +0.000 C 
BRANCH  10  11
ATOM     11  C   UNL     1       2.355   6.209  19.834  0.00  0.00    +0.000 C 
BRANCH  11  12
ATOM     12  N   UNL     1       2.299   5.235  20.922  0.00  0.00    +0.000 NA
ATOM     13  H   UNL     1       1.332   4.953  21.084  0.00  0.00    +0.000 HD
BRANCH  12  14
ATOM     14  C   UNL     1       3.118   4.059  20.638  0.00  0.00    +0.000 C 
BRANCH  14  15
ATOM     15  C   UNL     1       2.679   2.880  21.512  0.00  0.00    +0.000 C 
BRANCH  15  16
ATOM     16  C   UNL     1       1.154   2.790  21.558  0.00  0.00    +0.000 C 
BRANCH  16  17
ATOM     17  N   UNL     1       0.585   2.909  20.221  0.00  0.00    +0.000 NA
ATOM     18  H   UNL     1       1.229   2.519  19.534  0.00  0.00    +0.000 HD
ATOM     19  H   UNL     1       0.471   3.893  19.985  0.00  0.00    +0.000 HD
ENDBRANCH  16  17
ENDBRANCH  15  16
ENDBRANCH  14  15
ENDBRANCH  12  14
ENDBRANCH  11  12
ENDBRANCH  10  11
ENDBRANCH   9  10
ENDBRANCH   8   9
ENDBRANCH   6   8
ENDBRANCH   1   3
BRANCH   1  20
ATOM     20  C   UNL     1       7.246   5.887  17.968  0.00  0.00    +0.000 C 
ATOM     21  O   UNL     1       7.155   5.946  19.194  0.00  0.00    +0.000 OA
ATOM     22  N   UNL     1       7.269   7.000  17.155  0.00  0.00    +0.000 N 
ATOM     23  H   UNL     1       7.442   6.888  16.163  0.00  0.00    +0.000 HD
BRANCH  22  24
ATOM     24  C   UNL     1       7.204   8.335  17.711  0.00  0.00    +0.000 C 
BRANCH  24  25
ATOM     25  C   UNL     1       8.569   9.015  17.736  0.00  0.00    +0.000 C 
BRANCH  25  26
ATOM     26  C   UNL     1       8.903   9.651  19.078  0.00  0.00    +0.000 C 
BRANCH  26  27
ATOM     27  C   UNL     1       9.405  11.091  18.954  0.00  0.00    +0.000 C 
BRANCH  27  28
ATOM     28  C   UNL     1      10.430  11.272  17.825  0.00  0.00    +0.000 C 
BRANCH  28  29
ATOM     29  C   UNL     1      11.459  12.336  18.196  0.00  0.00    +0.000 C 
BRANCH  29  30
ATOM     30  N   UNL     1      10.838  13.655  18.224  0.00  0.00    +0.000 NA
ATOM     31  C   UNL     1      10.863  14.305  17.119  0.00  0.00    +0.000 C 
ATOM     32  N   UNL     1      11.392  13.950  15.925  0.00  0.00    +0.000 N 
ATOM     33  N   UNL     1      10.306  15.533  17.041  0.00  0.00    +0.000 N 
ATOM     34  H   UNL     1      11.573  12.960  15.819  0.00  0.00    +0.000 HD
ATOM     35  H   UNL     1      10.885  14.318  15.132  0.00  0.00    +0.000 HD
ATOM     36  H   UNL     1      10.182  15.917  17.973  0.00  0.00    +0.000 HD
ATOM     37  H   UNL     1      10.788  16.175  16.431  0.00  0.00    +0.000 HD
ENDBRANCH  29  30
ENDBRANCH  28  29
ENDBRANCH  27  28
ENDBRANCH  26  27
ENDBRANCH  25  26
ENDBRANCH  24  25
ENDBRANCH  22  24
ENDBRANCH   1  20
TORSDOF 18
ENDMDL
MODEL 5
REMARK VINA RESULT:      -5.6      4.616      8.244
REMARK  Name = 
REMARK  19 active torsions:
REMARK  status: ('A' for Active; 'I' for Inactive)
REMARK    1  A    between atoms: C_1  and  N_2
REMARK    2  A    between atoms: N_2  and  C_3
REMARK    3  A    between atoms: C_3  and  C_4
REMARK    4  A    between atoms: N_6  and  C_7
REMARK    5  A    between atoms: C_7  and  C_8
REMARK    6  A    between atoms: C_8  and  C_9
REMARK    7  A    between atoms: C_9  and  C_10
REMARK    8  A    between atoms: C_10  and  C_11
REMARK    9  A    between atoms: C_11  and  C_12
REMARK   10  A    between atoms: C_12  and  N_13
REMARK   11  A    between atoms: N_19  and  C_20
REMARK   12  A    between atoms: C_20  and  C_21
REMARK   13  A    between atoms: C_21  and  C_22
REMARK   14  A    between atoms: C_22  and  C_23
REMARK   15  A    between atoms: C_23  and  N_24
REMARK   16  A    between atoms: N_24  and  C_25
REMARK   17  A    between atoms: C_25  and  C_26
REMARK   18  A    between atoms: C_26  and  C_27
REMARK   19  A    between atoms: C_27  and  N_28
REMARK                            x       y       z     vdW  Elec       q    Type
REMARK                         _______ _______ _______ _____ _____    ______ ____
ROOT
ATOM      1  C   UNL     1       7.212   5.465  17.568  0.00  0.00    +0.000 C 
ENDROOT
BRANCH   1   3
ATOM      2  C   UNL     1       7.535   4.987  15.141  0.00  0.00    +0.000 C 
ATOM      3  N   UNL     1       6.821   4.711  16.376  0.00  0.00    +0.000 N 
ATOM      4  C   UNL     1       5.636   3.995  16.245  0.00  0.00    +0.000 C 
ATOM      5  O   UNL     1       5.247   3.583  15.153  0.00  0.00    +0.000 OA
ATOM      6  N   UNL     1       4.941   3.757  17.400  0.00  0.00    +0.000 N 
ATOM      7  H   UNL     1       5.401   3.902  18.289  0.00  0.00    +0.000 HD
BRANCH   6   8
ATOM      8  C   UNL     1       3.799   2.860  17.435  0.00  0.00    +0.000 C 
BRANCH   8   9
ATOM      9  C   UNL     1       3.554   2.218  18.804  0.00  0.00    +0.000 C 
BRANCH   9  10
ATOM     10  C   UNL     1       2.134   1.670  18.956  0.00  0.00    +0.000 C 
BRANCH  10  11
ATOM     11  C   UNL     1       1.153   2.765  19.374  0.00  0.00    +0.000 C 
BRANCH  11  12
ATOM     12  N   UNL     1       1.811   3.694  20.291  0.00  0.00    +0.000 NA
ATOM     13  H   UNL     1       2.723   3.959  19.917  0.00  0.00    +0.000 HD
BRANCH  12  14
ATOM     14  C   UNL     1       1.003   4.888  20.524  0.00  0.00    +0.000 C 
BRANCH  14  15
ATOM     15  C   UNL     1       1.886   6.139  20.518  0.00  0.00    +0.000 C 
BRANCH  15  16
ATOM     16  C   UNL     1       2.844   6.110  19.327  0.00  0.00    +0.000 C 
BRANCH  16  17
ATOM     17  N   UNL     1       4.162   5.633  19.729  0.00  0.00    +0.000 NA
ATOM     18  H   UNL     1       4.187   4.615  19.696  0.00  0.00    +0.000 HD
ATOM     19  H   UNL     1       4.338   5.896  20.697  0.00  0.00    +0.000 HD
ENDBRANCH  16  17
ENDBRANCH  15  16
ENDBRANCH  14  15
ENDBRANCH  12  14
ENDBRANCH  11  12
ENDBRANCH  10  11
ENDBRANCH   9  10
ENDBRANCH   8   9
ENDBRANCH   6   8
ENDBRANCH   1   3
BRANCH   1  20
ATOM     20  C   UNL     1       7.077   6.968  17.351  0.00  0.00    +0.000 C 
ATOM     21  O   UNL     1       6.077   7.434  16.806  0.00  0.00    +0.000 OA
ATOM     22  N   UNL     1       8.076   7.747  17.895  0.00  0.00    +0.000 N 
ATOM     23  H   UNL     1       8.826   7.306  18.414  0.00  0.00    +0.000 HD
BRANCH  22  24
ATOM     24  C   UNL     1       7.996   9.193  17.870  0.00  0.00    +0.000 C 
BRANCH  24  25
ATOM     25  C   UNL     1       8.968   9.839  18.851  0.00  0.00    +0.000 C 
BRANCH  25  26
ATOM     26  C   UNL     1       9.903  10.848  18.199  0.00  0.00    +0.000 C 
BRANCH  26  27
ATOM     27  C   UNL     1      10.931  11.433  19.170  0.00  0.00    +0.000 C 
BRANCH  27  28
ATOM     28  C   UNL     1      10.628  12.887  19.558  0.00  0.00    +0.000 C 
BRANCH  28  29
ATOM     29  C   UNL     1      10.230  13.701  18.329  0.00  0.00    +0.000 C 
BRANCH  29  30
ATOM     30  N   UNL     1       9.191  14.665  18.673  0.00  0.00    +0.000 NA
ATOM     31  C   UNL     1       9.102  15.685  17.901  0.00  0.00    +0.000 C 
ATOM     32  N   UNL     1       9.840  16.007  16.813  0.00  0.00    +0.000 N 
ATOM     33  N   UNL     1       8.166  16.630  18.131  0.00  0.00    +0.000 N 
ATOM     34  H   UNL     1      10.363  15.238  16.412  0.00  0.00    +0.000 HD
ATOM     35  H   UNL     1       9.321  16.507  16.105  0.00  0.00    +0.000 HD
ATOM     36  H   UNL     1       7.821  16.553  19.083  0.00  0.00    +0.000 HD
ATOM     37  H   UNL     1       8.455  17.571  17.911  0.00  0.00    +0.000 HD
ENDBRANCH  29  30
ENDBRANCH  28  29
ENDBRANCH  27  28
ENDBRANCH  26  27
ENDBRANCH  25  26
ENDBRANCH  24  25
ENDBRANCH  22  24
ENDBRANCH   1  20
TORSDOF 18
ENDMDL
MODEL 6
REMARK VINA RESULT:      -5.6      5.196      8.999
REMARK  Name = 
REMARK  19 active torsions:
REMARK  status: ('A' for Active; 'I' for Inactive)
REMARK    1  A    between atoms: C_1  and  N_2
REMARK    2  A    between atoms: N_2  and  C_3
REMARK    3  A    between atoms: C_3  and  C_4
REMARK    4  A    between atoms: N_6  and  C_7
REMARK    5  A    between atoms: C_7  and  C_8
REMARK    6  A    between atoms: C_8  and  C_9
REMARK    7  A    between atoms: C_9  and  C_10
REMARK    8  A    between atoms: C_10  and  C_11
REMARK    9  A    between atoms: C_11  and  C_12
REMARK   10  A    between atoms: C_12  and  N_13
REMARK   11  A    between atoms: N_19  and  C_20
REMARK   12  A    between atoms: C_20  and  C_21
REMARK   13  A    between atoms: C_21  and  C_22
REMARK   14  A    between atoms: C_22  and  C_23
REMARK   15  A    between atoms: C_23  and  N_24
REMARK   16  A    between atoms: N_24  and  C_25
REMARK   17  A    between atoms: C_25  and  C_26
REMARK   18  A    between atoms: C_26  and  C_27
REMARK   19  A    between atoms: C_27  and  N_28
REMARK                            x       y       z     vdW  Elec       q    Type
REMARK                         _______ _______ _______ _____ _____    ______ ____
ROOT
ATOM      1  C   UNL     1       7.450   6.159  18.651  0.00  0.00    +0.000 C 
ENDROOT
BRANCH   1   3
ATOM      2  C   UNL     1       7.433   4.397  16.885  0.00  0.00    +0.000 C 
ATOM      3  N   UNL     1       6.686   5.284  17.760  0.00  0.00    +0.000 N 
ATOM      4  C   UNL     1       5.340   5.449  17.453  0.00  0.00    +0.000 C 
ATOM      5  O   UNL     1       4.810   4.840  16.524  0.00  0.00    +0.000 OA
ATOM      6  N   UNL     1       4.636   6.306  18.253  0.00  0.00    +0.000 N 
ATOM      7  H   UNL     1       5.039   6.601  19.133  0.00  0.00    +0.000 HD
BRANCH   6   8
ATOM      8  C   UNL     1       3.190   6.419  18.169  0.00  0.00    +0.000 C 
BRANCH   8   9
ATOM      9  C   UNL     1       2.446   5.782  19.347  0.00  0.00    +0.000 C 
BRANCH   9  10
ATOM     10  C   UNL     1       1.512   4.651  18.916  0.00  0.00    +0.000 C 
BRANCH  10  11
ATOM     11  C   UNL     1       0.947   3.900  20.122  0.00  0.00    +0.000 C 
BRANCH  11  12
ATOM     12  N   UNL     1       1.887   3.984  21.239  0.00  0.00    +0.000 NA
ATOM     13  H   UNL     1       1.376   4.135  22.109  0.00  0.00    +0.000 HD
BRANCH  12  14
ATOM     14  C   UNL     1       2.707   2.779  21.347  0.00  0.00    +0.000 C 
BRANCH  14  15
ATOM     15  C   UNL     1       2.784   2.064  19.994  0.00  0.00    +0.000 C 
BRANCH  15  16
ATOM     16  C   UNL     1       4.189   2.187  19.406  0.00  0.00    +0.000 C 
BRANCH  16  17
ATOM     17  N   UNL     1       4.152   2.117  17.949  0.00  0.00    +0.000 NA
ATOM     18  H   UNL     1       4.094   3.057  17.558  0.00  0.00    +0.000 HD
ATOM     19  H   UNL     1       3.309   1.628  17.654  0.00  0.00    +0.000 HD
ENDBRANCH  16  17
ENDBRANCH  15  16
ENDBRANCH  14  15
ENDBRANCH  12  14
ENDBRANCH  11  12
ENDBRANCH  10  11
ENDBRANCH   9  10
ENDBRANCH   8   9
ENDBRANCH   6   8
ENDBRANCH   1   3
BRANCH   1  20
ATOM     20  C   UNL     1       7.822   7.470  17.967  0.00  0.00    +0.000 C 
ATOM     21  O   UNL     1       7.390   7.735  16.846  0.00  0.00    +0.000 OA
ATOM     22  N   UNL     1       8.562   8.355  18.722  0.00  0.00    +0.000 N 
ATOM     23  H   UNL     1       8.806   8.113  19.675  0.00  0.00    +0.000 HD
BRANCH  22  24
ATOM     24  C   UNL     1       8.866   9.684  18.235  0.00  0.00    +0.000 C 
BRANCH  24  25
ATOM     25  C   UNL     1       9.461  10.573  19.322  0.00  0.00    +0.000 C 
BRANCH  25  26
ATOM     26  C   UNL     1      10.503  11.552  18.799  0.00  0.00    +0.000 C 
BRANCH  26  27
ATOM     27  C   UNL     1      10.480  12.901  19.522  0.00  0.00    +0.000 C 
BRANCH  27  28
ATOM     28  C   UNL     1      11.862  13.565  19.590  0.00  0.00    +0.000 C 
BRANCH  28  29
ATOM     29  C   UNL     1      12.318  14.005  18.202  0.00  0.00    +0.000 C 
BRANCH  29  30
ATOM     30  N   UNL     1      11.194  14.542  17.444  0.00  0.00    +0.000 NA
ATOM     31  C   UNL     1      11.315  15.759  17.058  0.00  0.00    +0.000 C 
ATOM     32  N   UNL     1      12.333  16.628  17.258  0.00  0.00    +0.000 N 
ATOM     33  N   UNL     1      10.331  16.344  16.342  0.00  0.00    +0.000 N 
ATOM     34  H   UNL     1      13.209  16.200  17.533  0.00  0.00    +0.000 HD
ATOM     35  H   UNL     1      12.465  17.280  16.498  0.00  0.00    +0.000 HD
ATOM     36  H   UNL     1       9.468  15.818  16.444  0.00  0.00    +0.000 HD
ATOM     37  H   UNL     1      10.197  17.325  16.534  0.00  0.00    +0.000 HD
ENDBRANCH  29  30
ENDBRANCH  28  29
ENDBRANCH  27  28
ENDBRANCH  26  27
ENDBRANCH  25  26
ENDBRANCH  24  25
ENDBRANCH  22  24
ENDBRANCH   1  20
TORSDOF 18
ENDMDL
MODEL 7
REMARK VINA RESULT:      -5.5      1.849      2.284
REMARK  Name = 
REMARK  19 active torsions:
REMARK  status: ('A' for Active; 'I' for Inactive)
REMARK    1  A    between atoms: C_1  and  N_2
REMARK    2  A    between atoms: N_2  and  C_3
REMARK    3  A    between atoms: C_3  and  C_4
REMARK    4  A    between atoms: N_6  and  C_7
REMARK    5  A    between atoms: C_7  and  C_8
REMARK    6  A    between atoms: C_8  and  C_9
REMARK    7  A    between atoms: C_9  and  C_10
REMARK    8  A    between atoms: C_10  and  C_11
REMARK    9  A    between atoms: C_11  and  C_12
REMARK   10  A    between atoms: C_12  and  N_13
REMARK   11  A    between atoms: N_19  and  C_20
REMARK   12  A    between atoms: C_20  and  C_21
REMARK   13  A    between atoms: C_21  and  C_22
REMARK   14  A    between atoms: C_22  and  C_23
REMARK   15  A    between atoms: C_23  and  N_24
REMARK   16  A    between atoms: N_24  and  C_25
REMARK   17  A    between atoms: C_25  and  C_26
REMARK   18  A    between atoms: C_26  and  C_27
REMARK   19  A    between atoms: C_27  and  N_28
REMARK                            x       y       z     vdW  Elec       q    Type
REMARK                         _______ _______ _______ _____ _____    ______ ____
ROOT
ATOM      1  C   UNL     1       1.454   4.357  17.632  0.00  0.00    +0.000 C 
ENDROOT
BRANCH   1   3
ATOM      2  C   UNL     1       1.357   2.104  18.701  0.00  0.00    +0.000 C 
ATOM      3  N   UNL     1       2.092   3.065  17.896  0.00  0.00    +0.000 N 
ATOM      4  C   UNL     1       3.445   2.799  17.715  0.00  0.00    +0.000 C 
ATOM      5  O   UNL     1       3.970   1.785  18.173  0.00  0.00    +0.000 OA
ATOM      6  N   UNL     1       4.150   3.715  16.984  0.00  0.00    +0.000 N 
ATOM      7  H   UNL     1       3.647   4.400  16.436  0.00  0.00    +0.000 HD
BRANCH   6   8
ATOM      8  C   UNL     1       5.515   3.464  16.555  0.00  0.00    +0.000 C 
BRANCH   8   9
ATOM      9  C   UNL     1       5.968   4.333  15.378  0.00  0.00    +0.000 C 
BRANCH   9  10
ATOM     10  C   UNL     1       5.250   5.682  15.326  0.00  0.00    +0.000 C 
BRANCH  10  11
ATOM     11  C   UNL     1       5.717   6.608  16.449  0.00  0.00    +0.000 C 
BRANCH  11  12
ATOM     12  N   UNL     1       7.173   6.548  16.566  0.00  0.00    +0.000 NA
ATOM     13  H   UNL     1       7.596   6.621  15.640  0.00  0.00    +0.000 HD
BRANCH  12  14
ATOM     14  C   UNL     1       7.690   7.603  17.433  0.00  0.00    +0.000 C 
BRANCH  14  15
ATOM     15  C   UNL     1       8.160   7.013  18.767  0.00  0.00    +0.000 C 
BRANCH  15  16
ATOM     16  C   UNL     1       7.848   5.518  18.829  0.00  0.00    +0.000 C 
BRANCH  16  17
ATOM     17  N   UNL     1       6.657   5.268  19.632  0.00  0.00    +0.000 NA
ATOM     18  H   UNL     1       5.862   5.772  19.240  0.00  0.00    +0.000 HD
ATOM     19  H   UNL     1       6.796   5.633  20.572  0.00  0.00    +0.000 HD
ENDBRANCH  16  17
ENDBRANCH  15  16
ENDBRANCH  14  15
ENDBRANCH  12  14
ENDBRANCH  11  12
ENDBRANCH  10  11
ENDBRANCH   9  10
ENDBRANCH   8   9
ENDBRANCH   6   8
ENDBRANCH   1   3
BRANCH   1  20
ATOM     20  C   UNL     1       2.047   5.462  18.500  0.00  0.00    +0.000 C 
ATOM     21  O   UNL     1       2.707   6.369  17.993  0.00  0.00    +0.000 OA
ATOM     22  N   UNL     1       1.703   5.430  19.835  0.00  0.00    +0.000 N 
ATOM     23  H   UNL     1       1.078   4.707  20.171  0.00  0.00    +0.000 HD
BRANCH  22  24
ATOM     24  C   UNL     1       2.094   6.495  20.735  0.00  0.00    +0.000 C 
BRANCH  24  25
ATOM     25  C   UNL     1       0.922   7.404  21.092  0.00  0.00    +0.000 C 
BRANCH  25  26
ATOM     26  C   UNL     1       1.353   8.780  21.580  0.00  0.00    +0.000 C 
BRANCH  26  27
ATOM     27  C   UNL     1       0.538   9.920  20.964  0.00  0.00    +0.000 C 
BRANCH  27  28
ATOM     28  C   UNL     1       0.503   9.868  19.429  0.00  0.00    +0.000 C 
BRANCH  28  29
ATOM     29  C   UNL     1      -0.842  10.360  18.904  0.00  0.00    +0.000 C 
BRANCH  29  30
ATOM     30  N   UNL     1      -1.255  11.565  19.614  0.00  0.00    +0.000 NA
ATOM     31  C   UNL     1      -1.295  12.637  18.913  0.00  0.00    +0.000 C 
ATOM     32  N   UNL     1      -1.001  12.821  17.604  0.00  0.00    +0.000 N 
ATOM     33  N   UNL     1      -1.674  13.804  19.478  0.00  0.00    +0.000 N 
ATOM     34  H   UNL     1      -0.981  11.973  17.051  0.00  0.00    +0.000 HD
ATOM     35  H   UNL     1      -1.557  13.538  17.160  0.00  0.00    +0.000 HD
ATOM     36  H   UNL     1      -1.607  13.738  20.489  0.00  0.00    +0.000 HD
ATOM     37  H   UNL     1      -1.197  14.618  19.122  0.00  0.00    +0.000 HD
ENDBRANCH  29  30
ENDBRANCH  28  29
ENDBRANCH  27  28
ENDBRANCH  26  27
ENDBRANCH  25  26
ENDBRANCH  24  25
ENDBRANCH  22  24
ENDBRANCH   1  20
TORSDOF 18
ENDMDL
MODEL 8
REMARK VINA RESULT:      -5.5      2.750      4.008
REMARK  Name = 
REMARK  19 active torsions:
REMARK  status: ('A' for Active; 'I' for Inactive)
REMARK    1  A    between atoms: C_1  and  N_2
REMARK    2  A    between atoms: N_2  and  C_3
REMARK    3  A    between atoms: C_3  and  C_4
REMARK    4  A    between atoms: N_6  and  C_7
REMARK    5  A    between atoms: C_7  and  C_8
REMARK    6  A    between atoms: C_8  and  C_9
REMARK    7  A    between atoms: C_9  and  C_10
REMARK    8  A    between atoms: C_10  and  C_11
REMARK    9  A    between atoms: C_11  and  C_12
REMARK   10  A    between atoms: C_12  and  N_13
REMARK   11  A    between atoms: N_19  and  C_20
REMARK   12  A    between atoms: C_20  and  C_21
REMARK   13  A    between atoms: C_21  and  C_22
REMARK   14  A    between atoms: C_22  and  C_23
REMARK   15  A    between atoms: C_23  and  N_24
REMARK   16  A    between atoms: N_24  and  C_25
REMARK   17  A    between atoms: C_25  and  C_26
REMARK   18  A    between atoms: C_26  and  C_27
REMARK   19  A    between atoms: C_27  and  N_28
REMARK                            x       y       z     vdW  Elec       q    Type
REMARK                         _______ _______ _______ _____ _____    ______ ____
ROOT
ATOM      1  C   UNL     1       2.445   5.210  19.953  0.00  0.00    +0.000 C 
ENDROOT
BRANCH   1   3
ATOM      2  C   UNL     1       2.667   2.725  19.945  0.00  0.00    +0.000 C 
ATOM      3  N   UNL     1       3.272   4.025  19.714  0.00  0.00    +0.000 N 
ATOM      4  C   UNL     1       4.658   4.039  19.595  0.00  0.00    +0.000 C 
ATOM      5  O   UNL     1       5.320   3.003  19.635  0.00  0.00    +0.000 OA
ATOM      6  N   UNL     1       5.238   5.263  19.408  0.00  0.00    +0.000 N 
ATOM      7  H   UNL     1       4.656   6.049  19.148  0.00  0.00    +0.000 HD
BRANCH   6   8
ATOM      8  C   UNL     1       6.645   5.400  19.073  0.00  0.00    +0.000 C 
BRANCH   8   9
ATOM      9  C   UNL     1       6.900   5.842  17.628  0.00  0.00    +0.000 C 
BRANCH   9  10
ATOM     10  C   UNL     1       5.773   6.707  17.064  0.00  0.00    +0.000 C 
BRANCH  10  11
ATOM     11  C   UNL     1       5.177   6.094  15.797  0.00  0.00    +0.000 C 
BRANCH  11  12
ATOM     12  N   UNL     1       6.225   5.415  15.037  0.00  0.00    +0.000 NA
ATOM     13  H   UNL     1       6.961   5.100  15.670  0.00  0.00    +0.000 HD
BRANCH  12  14
ATOM     14  C   UNL     1       5.698   4.279  14.285  0.00  0.00    +0.000 C 
BRANCH  14  15
ATOM     15  C   UNL     1       6.522   4.053  13.013  0.00  0.00    +0.000 C 
BRANCH  15  16
ATOM     16  C   UNL     1       5.906   2.937  12.170  0.00  0.00    +0.000 C 
BRANCH  16  17
ATOM     17  N   UNL     1       4.617   3.346  11.626  0.00  0.00    +0.000 NA
ATOM     18  H   UNL     1       4.651   4.328  11.354  0.00  0.00    +0.000 HD
ATOM     19  H   UNL     1       3.903   3.270  12.348  0.00  0.00    +0.000 HD
ENDBRANCH  16  17
ENDBRANCH  15  16
ENDBRANCH  14  15
ENDBRANCH  12  14
ENDBRANCH  11  12
ENDBRANCH  10  11
ENDBRANCH   9  10
ENDBRANCH   8   9
ENDBRANCH   6   8
ENDBRANCH   1   3
BRANCH   1  20
ATOM     20  C   UNL     1       2.316   6.066  18.697  0.00  0.00    +0.000 C 
ATOM     21  O   UNL     1       2.043   5.550  17.614  0.00  0.00    +0.000 OA
ATOM     22  N   UNL     1       2.413   7.428  18.885  0.00  0.00    +0.000 N 
ATOM     23  H   UNL     1       2.545   7.794  19.820  0.00  0.00    +0.000 HD
BRANCH  22  24
ATOM     24  C   UNL     1       2.178   8.353  17.795  0.00  0.00    +0.000 C 
BRANCH  24  25
ATOM     25  C   UNL     1       1.213   9.468  18.186  0.00  0.00    +0.000 C 
BRANCH  25  26
ATOM     26  C   UNL     1       1.117   9.684  19.690  0.00  0.00    +0.000 C 
BRANCH  26  27
ATOM     27  C   UNL     1      -0.323   9.823  20.188  0.00  0.00    +0.000 C 
BRANCH  27  28
ATOM     28  C   UNL     1      -0.572  11.141  20.936  0.00  0.00    +0.000 C 
BRANCH  28  29
ATOM     29  C   UNL     1       0.567  12.125  20.687  0.00  0.00    +0.000 C 
BRANCH  29  30
ATOM     30  N   UNL     1       0.037  13.451  20.390  0.00  0.00    +0.000 NA
ATOM     31  C   UNL     1      -0.098  13.729  19.146  0.00  0.00    +0.000 C 
ATOM     32  N   UNL     1       0.188  12.975  18.059  0.00  0.00    +0.000 N 
ATOM     33  N   UNL     1      -0.589  14.930  18.769  0.00  0.00    +0.000 N 
ATOM     34  H   UNL     1       0.291  11.984  18.246  0.00  0.00    +0.000 HD
ATOM     35  H   UNL     1      -0.430  13.139  17.277  0.00  0.00    +0.000 HD
ATOM     36  H   UNL     1      -0.524  15.589  19.539  0.00  0.00    +0.000 HD
ATOM     37  H   UNL     1      -0.188  15.301  17.921  0.00  0.00    +0.000 HD
ENDBRANCH  29  30
ENDBRANCH  28  29
ENDBRANCH  27  28
ENDBRANCH  26  27
ENDBRANCH  25  26
ENDBRANCH  24  25
ENDBRANCH  22  24
ENDBRANCH   1  20
TORSDOF 18
ENDMDL
MODEL 9
REMARK VINA RESULT:      -5.5      2.497      9.286
REMARK  Name = 
REMARK  19 active torsions:
REMARK  status: ('A' for Active; 'I' for Inactive)
REMARK    1  A    between atoms: C_1  and  N_2
REMARK    2  A    between atoms: N_2  and  C_3
REMARK    3  A    between atoms: C_3  and  C_4
REMARK    4  A    between atoms: N_6  and  C_7
REMARK    5  A    between atoms: C_7  and  C_8
REMARK    6  A    between atoms: C_8  and  C_9
REMARK    7  A    between atoms: C_9  and  C_10
REMARK    8  A    between atoms: C_10  and  C_11
REMARK    9  A    between atoms: C_11  and  C_12
REMARK   10  A    between atoms: C_12  and  N_13
REMARK   11  A    between atoms: N_19  and  C_20
REMARK   12  A    between atoms: C_20  and  C_21
REMARK   13  A    between atoms: C_21  and  C_22
REMARK   14  A    between atoms: C_22  and  C_23
REMARK   15  A    between atoms: C_23  and  N_24
REMARK   16  A    between atoms: N_24  and  C_25
REMARK   17  A    between atoms: C_25  and  C_26
REMARK   18  A    between atoms: C_26  and  C_27
REMARK   19  A    between atoms: C_27  and  N_28
REMARK                            x       y       z     vdW  Elec       q    Type
REMARK                         _______ _______ _______ _____ _____    ______ ____
ROOT
ATOM      1  C   UNL     1       2.115   7.136  19.765  0.00  0.00    +0.000 C 
ENDROOT
BRANCH   1   3
ATOM      2  C   UNL     1       3.548   7.584  17.773  0.00  0.00    +0.000 C 
ATOM      3  N   UNL     1       2.357   7.903  18.542  0.00  0.00    +0.000 N 
ATOM      4  C   UNL     1       1.731   9.103  18.223  0.00  0.00    +0.000 C 
ATOM      5  O   UNL     1       2.139   9.822  17.312  0.00  0.00    +0.000 OA
ATOM      6  N   UNL     1       0.627   9.426  18.963  0.00  0.00    +0.000 N 
ATOM      7  H   UNL     1       0.191   8.712  19.533  0.00  0.00    +0.000 HD
BRANCH   6   8
ATOM      8  C   UNL     1      -0.232  10.543  18.610  0.00  0.00    +0.000 C 
BRANCH   8   9
ATOM      9  C   UNL     1      -1.678  10.142  18.298  0.00  0.00    +0.000 C 
BRANCH   9  10
ATOM     10  C   UNL     1      -2.491  11.285  17.688  0.00  0.00    +0.000 C 
BRANCH  10  11
ATOM     11  C   UNL     1      -3.944  11.254  18.164  0.00  0.00    +0.000 C 
BRANCH  11  12
ATOM     12  N   UNL     1      -4.332  12.576  18.651  0.00  0.00    +0.000 NA
ATOM     13  H   UNL     1      -5.141  12.912  18.128  0.00  0.00    +0.000 HD
BRANCH  12  14
ATOM     14  C   UNL     1      -4.635  12.558  20.080  0.00  0.00    +0.000 C 
BRANCH  14  15
ATOM     15  C   UNL     1      -4.156  13.854  20.743  0.00  0.00    +0.000 C 
BRANCH  15  16
ATOM     16  C   UNL     1      -2.660  13.776  21.046  0.00  0.00    +0.000 C 
BRANCH  16  17
ATOM     17  N   UNL     1      -2.222  12.389  21.153  0.00  0.00    +0.000 NA
ATOM     18  H   UNL     1      -1.216  12.355  21.317  0.00  0.00    +0.000 HD
ATOM     19  H   UNL     1      -2.388  11.910  20.270  0.00  0.00    +0.000 HD
ENDBRANCH  16  17
ENDBRANCH  15  16
ENDBRANCH  14  15
ENDBRANCH  12  14
ENDBRANCH  11  12
ENDBRANCH  10  11
ENDBRANCH   9  10
ENDBRANCH   8   9
ENDBRANCH   6   8
ENDBRANCH   1   3
BRANCH   1  20
ATOM     20  C   UNL     1       2.270   5.637  19.528  0.00  0.00    +0.000 C 
ATOM     21  O   UNL     1       1.517   5.045  18.755  0.00  0.00    +0.000 OA
ATOM     22  N   UNL     1       3.352   5.040  20.138  0.00  0.00    +0.000 N 
ATOM     23  H   UNL     1       3.989   5.605  20.688  0.00  0.00    +0.000 HD
BRANCH  22  24
ATOM     24  C   UNL     1       3.683   3.653  19.886  0.00  0.00    +0.000 C 
BRANCH  24  25
ATOM     25  C   UNL     1       4.773   3.505  18.829  0.00  0.00    +0.000 C 
BRANCH  25  26
ATOM     26  C   UNL     1       4.230   3.200  17.440  0.00  0.00    +0.000 C 
BRANCH  26  27
ATOM     27  C   UNL     1       4.673   4.216  16.384  0.00  0.00    +0.000 C 
BRANCH  27  28
ATOM     28  C   UNL     1       5.905   3.754  15.592  0.00  0.00    +0.000 C 
BRANCH  28  29
ATOM     29  C   UNL     1       7.024   4.787  15.684  0.00  0.00    +0.000 C 
BRANCH  29  30
ATOM     30  N   UNL     1       7.522   4.877  17.052  0.00  0.00    +0.000 NA
ATOM     31  C   UNL     1       7.476   6.041  17.585  0.00  0.00    +0.000 C 
ATOM     32  N   UNL     1       7.040   7.211  17.062  0.00  0.00    +0.000 N 
ATOM     33  N   UNL     1       7.907   6.225  18.852  0.00  0.00    +0.000 N 
ATOM     34  H   UNL     1       6.454   7.116  16.241  0.00  0.00    +0.000 HD
ATOM     35  H   UNL     1       6.622   7.829  17.742  0.00  0.00    +0.000 HD
ATOM     36  H   UNL     1       8.494   5.446  19.135  0.00  0.00    +0.000 HD
ATOM     37  H   UNL     1       8.354   7.113  19.020  0.00  0.00    +0.000 HD
ENDBRANCH  29  30
ENDBRANCH  28  29
ENDBRANCH  27  28
ENDBRANCH  26  27
ENDBRANCH  25  26
ENDBRANCH  24  25
ENDBRANCH  22  24
ENDBRANCH   1  20
TORSDOF 18
ENDMDL
