MODEL 1
REMARK VINA RESULT:      -7.2      0.000      0.000
REMARK  Name = 
REMARK  6 active torsions:
REMARK  status: ('A' for Active; 'I' for Inactive)
REMARK    1  A    between atoms: C_1  and  C_2
REMARK    2  A    between atoms: C_2  and  C_3
REMARK    3  A    between atoms: N_7  and  C_8
REMARK    4  A    between atoms: C_14  and  C_15
REMARK    5  A    between atoms: C_15  and  O_16
REMARK    6  A    between atoms: O_16  and  C_17
REMARK                            x       y       z     vdW  Elec       q    Type
REMARK                         _______ _______ _______ _____ _____    ______ ____
ROOT
ATOM      1  C   UNL     1       1.673   3.290  19.355  0.00  0.00    +0.000 A 
ATOM      2  C   UNL     1       2.041   2.303  18.461  0.00  0.00    +0.000 A 
ATOM      3  N   UNL     1       2.969   2.464  17.490  0.00  0.00    +0.000 NA
ATOM      4  C   UNL     1       3.538   3.672  17.401  0.00  0.00    +0.000 A 
ATOM      5  N   UNL     1       4.598   3.836  16.496  0.00  0.00    +0.000 N 
ATOM      6  N   UNL     1       3.184   4.712  18.168  0.00  0.00    +0.000 NA
ATOM      7  C   UNL     1       2.295   4.496  19.150  0.00  0.00    +0.000 A 
ATOM      8  H   UNL     1       4.480   3.126  15.782  0.00  0.00    +0.000 HD
ENDROOT
BRANCH   5   9
ATOM      9  C   UNL     1       4.967   5.137  16.023  0.00  0.00    +0.000 C 
ATOM     10  C   UNL     1       5.954   5.935  16.954  0.00  0.00    +0.000 C 
ATOM     11  C   UNL     1       6.565   5.472  18.270  0.00  0.00    +0.000 C 
ATOM     12  C   UNL     1       7.784   4.611  17.958  0.00  0.00    +0.000 C 
ATOM     13  O   UNL     1       7.946   4.602  16.540  0.00  0.00    +0.000 OA
ATOM     14  C   UNL     1       7.082   5.604  15.969  0.00  0.00    +0.000 C 
ATOM     15  C   UNL     1       6.049   5.184  14.913  0.00  0.00    +0.000 C 
BRANCH  15  16
ATOM     16  C   UNL     1       6.397   3.999  14.034  0.00  0.00    +0.000 C 
BRANCH  16  17
ATOM     17  O   UNL     1       5.285   3.756  13.166  0.00  0.00    +0.000 OA
ATOM     18  C   UNL     1       5.675   3.067  11.985  0.00  0.00    +0.000 C 
ENDBRANCH  16  17
ENDBRANCH  15  16
ENDBRANCH   5   9
BRANCH   1  20
ATOM     19  C   UNL     1       1.403   2.706  21.777  0.00  0.00    +0.000 C 
ATOM     20  C   UNL     1       0.708   3.085  20.477  0.00  0.00    +0.000 C 
ENDBRANCH   1  20
TORSDOF 4
ENDMDL
MODEL 2
REMARK VINA RESULT:      -6.7      3.781      5.777
REMARK  Name = 
REMARK  6 active torsions:
REMARK  status: ('A' for Active; 'I' for Inactive)
REMARK    1  A    between atoms: C_1  and  C_2
REMARK    2  A    between atoms: C_2  and  C_3
REMARK    3  A    between atoms: N_7  and  C_8
REMARK    4  A    between atoms: C_14  and  C_15
REMARK    5  A    between atoms: C_15  and  O_16
REMARK    6  A    between atoms: O_16  and  C_17
REMARK                            x       y       z     vdW  Elec       q    Type
REMARK                         _______ _______ _______ _____ _____    ______ ____
ROOT
ATOM      1  C   UNL     1       1.123   9.763  19.168  0.00  0.00    +0.000 A 
ATOM      2  C   UNL     1       1.712   9.360  17.986  0.00  0.00    +0.000 A 
ATOM      3  N   UNL     1       2.340   8.175  17.814  0.00  0.00    +0.000 NA
ATOM      4  C   UNL     1       2.395   7.367  18.879  0.00  0.00    +0.000 A 
ATOM      5  N   UNL     1       2.919   6.077  18.702  0.00  0.00    +0.000 N 
ATOM      6  N   UNL     1       1.926   7.707  20.088  0.00  0.00    +0.000 NA
ATOM      7  C   UNL     1       1.268   8.871  20.202  0.00  0.00    +0.000 A 
ATOM      8  H   UNL     1       3.534   6.123  17.898  0.00  0.00    +0.000 HD
ENDROOT
BRANCH   5   9
ATOM      9  C   UNL     1       3.409   5.322  19.817  0.00  0.00    +0.000 C 
ATOM     10  C   UNL     1       2.431   4.218  20.364  0.00  0.00    +0.000 C 
ATOM     11  C   UNL     1       1.051   3.856  19.830  0.00  0.00    +0.000 C 
ATOM     12  C   UNL     1       1.225   2.912  18.646  0.00  0.00    +0.000 C 
ATOM     13  O   UNL     1       2.622   2.661  18.506  0.00  0.00    +0.000 OA
ATOM     14  C   UNL     1       3.303   3.164  19.671  0.00  0.00    +0.000 C 
ATOM     15  C   UNL     1       4.426   4.197  19.492  0.00  0.00    +0.000 C 
BRANCH  15  16
ATOM     16  C   UNL     1       5.224   4.138  18.205  0.00  0.00    +0.000 C 
BRANCH  16  17
ATOM     17  O   UNL     1       6.597   4.378  18.531  0.00  0.00    +0.000 OA
ATOM     18  C   UNL     1       7.381   4.628  17.371  0.00  0.00    +0.000 C 
ENDBRANCH  16  17
ENDBRANCH  15  16
ENDBRANCH   5   9
BRANCH   1  20
ATOM     19  C   UNL     1      -0.539  11.019  20.560  0.00  0.00    +0.000 C 
ATOM     20  C   UNL     1       0.360  11.037  19.332  0.00  0.00    +0.000 C 
ENDBRANCH   1  20
TORSDOF 4
ENDMDL
MODEL 3
REMARK VINA RESULT:      -6.6      3.440      4.758
REMARK  Name = 
REMARK  6 active torsions:
REMARK  status: ('A' for Active; 'I' for Inactive)
REMARK    1  A    between atoms: C_1  and  C_2
REMARK    2  A    between atoms: C_2  and  C_3
REMARK    3  A    between atoms: N_7  and  C_8
REMARK    4  A    between atoms: C_14  and  C_15
REMARK    5  A    between atoms: C_15  and  O_16
REMARK    6  A    between atoms: O_16  and  C_17
REMARK                            x       y       z     vdW  Elec       q    Type
REMARK                         _______ _______ _______ _____ _____    ______ ____
ROOT
ATOM      1  C   UNL     1       1.244   9.360  19.007  0.00  0.00    +0.000 A 
ATOM      2  C   UNL     1       1.456   8.402  19.978  0.00  0.00    +0.000 A 
ATOM      3  N   UNL     1       2.263   7.328  19.826  0.00  0.00    +0.000 NA
ATOM      4  C   UNL     1       2.872   7.201  18.640  0.00  0.00    +0.000 A 
ATOM      5  N   UNL     1       3.819   6.176  18.492  0.00  0.00    +0.000 N 
ATOM      6  N   UNL     1       2.662   8.033  17.611  0.00  0.00    +0.000 NA
ATOM      7  C   UNL     1       1.891   9.111  17.821  0.00  0.00    +0.000 A 
ATOM      8  H   UNL     1       3.582   5.463  19.173  0.00  0.00    +0.000 HD
ENDROOT
BRANCH   5   9
ATOM      9  C   UNL     1       4.186   5.696  17.193  0.00  0.00    +0.000 C 
ATOM     10  C   UNL     1       5.678   5.967  16.773  0.00  0.00    +0.000 C 
ATOM     11  C   UNL     1       6.762   6.653  17.595  0.00  0.00    +0.000 C 
ATOM     12  C   UNL     1       7.366   5.627  18.547  0.00  0.00    +0.000 C 
ATOM     13  O   UNL     1       6.736   4.375  18.278  0.00  0.00    +0.000 OA
ATOM     14  C   UNL     1       5.980   4.490  17.057  0.00  0.00    +0.000 C 
ATOM     15  C   UNL     1       4.476   4.177  17.077  0.00  0.00    +0.000 C 
BRANCH  15  16
ATOM     16  C   UNL     1       3.994   3.155  18.087  0.00  0.00    +0.000 C 
BRANCH  16  17
ATOM     17  O   UNL     1       2.821   2.532  17.553  0.00  0.00    +0.000 OA
ATOM     18  C   UNL     1       1.837   2.307  18.555  0.00  0.00    +0.000 C 
ENDBRANCH  16  17
ENDBRANCH  15  16
ENDBRANCH   5   9
BRANCH   1  20
ATOM     19  C   UNL     1      -0.966  10.460  18.580  0.00  0.00    +0.000 C 
ATOM     20  C   UNL     1       0.416  10.586  19.206  0.00  0.00    +0.000 C 
ENDBRANCH   1  20
TORSDOF 4
ENDMDL
MODEL 4
REMARK VINA RESULT:      -6.5      3.857      5.590
REMARK  Name = 
REMARK  6 active torsions:
REMARK  status: ('A' for Active; 'I' for Inactive)
REMARK    1  A    between atoms: C_1  and  C_2
REMARK    2  A    between atoms: C_2  and  C_3
REMARK    3  A    between atoms: N_7  and  C_8
REMARK    4  A    between atoms: C_14  and  C_15
REMARK    5  A    between atoms: C_15  and  O_16
REMARK    6  A    between atoms: O_16  and  C_17
REMARK                            x       y       z     vdW  Elec       q    Type
REMARK                         _______ _______ _______ _____ _____    ______ ____
ROOT
ATOM      1  C   UNL     1       1.110   9.669  19.045  0.00  0.00    +0.000 A 
ATOM      2  C   UNL     1       1.223   8.931  20.207  0.00  0.00    +0.000 A 
ATOM      3  N   UNL     1       1.834   7.727  20.288  0.00  0.00    +0.000 NA
ATOM      4  C   UNL     1       2.339   7.236  19.151  0.00  0.00    +0.000 A 
ATOM      5  N   UNL     1       3.096   6.056  19.221  0.00  0.00    +0.000 N 
ATOM      6  N   UNL     1       2.204   7.839  17.962  0.00  0.00    +0.000 NA
ATOM      7  C   UNL     1       1.633   9.054  17.935  0.00  0.00    +0.000 A 
ATOM      8  H   UNL     1       2.790   5.566  20.054  0.00  0.00    +0.000 HD
ENDROOT
BRANCH   5   9
ATOM      9  C   UNL     1       3.300   5.242  18.060  0.00  0.00    +0.000 C 
ATOM     10  C   UNL     1       4.726   5.350  17.404  0.00  0.00    +0.000 C 
ATOM     11  C   UNL     1       5.901   6.198  17.876  0.00  0.00    +0.000 C 
ATOM     12  C   UNL     1       6.626   5.442  18.984  0.00  0.00    +0.000 C 
ATOM     13  O   UNL     1       5.973   4.182  19.135  0.00  0.00    +0.000 OA
ATOM     14  C   UNL     1       5.069   3.992  18.029  0.00  0.00    +0.000 C 
ATOM     15  C   UNL     1       3.582   3.738  18.316  0.00  0.00    +0.000 C 
BRANCH  15  16
ATOM     16  C   UNL     1       3.236   3.031  19.611  0.00  0.00    +0.000 C 
BRANCH  16  17
ATOM     17  O   UNL     1       1.814   3.072  19.766  0.00  0.00    +0.000 OA
ATOM     18  C   UNL     1       1.427   3.006  21.133  0.00  0.00    +0.000 C 
ENDBRANCH  16  17
ENDBRANCH  15  16
ENDBRANCH   5   9
BRANCH   1  20
ATOM     19  C   UNL     1      -1.010  10.989  18.847  0.00  0.00    +0.000 C 
ATOM     20  C   UNL     1       0.506  11.033  18.975  0.00  0.00    +0.000 C 
ENDBRANCH   1  20
TORSDOF 4
ENDMDL
MODEL 5
REMARK VINA RESULT:      -6.5      2.638      6.300
REMARK  Name = 
REMARK  6 active torsions:
REMARK  status: ('A' for Active; 'I' for Inactive)
REMARK    1  A    between atoms: C_1  and  C_2
REMARK    2  A    between atoms: C_2  and  C_3
REMARK    3  A    between atoms: N_7  and  C_8
REMARK    4  A    between atoms: C_14  and  C_15
REMARK    5  A    between atoms: C_15  and  O_16
REMARK    6  A    between atoms: O_16  and  C_17
REMARK                            x       y       z     vdW  Elec       q    Type
REMARK                         _______ _______ _______ _____ _____    ______ ____
ROOT
ATOM      1  C   UNL     1       6.404   4.581  15.404  0.00  0.00    +0.000 A 
ATOM      2  C   UNL     1       6.809   4.577  16.724  0.00  0.00    +0.000 A 
ATOM      3  N   UNL     1       5.977   4.392  17.775  0.00  0.00    +0.000 NA
ATOM      4  C   UNL     1       4.681   4.219  17.488  0.00  0.00    +0.000 A 
ATOM      5  N   UNL     1       3.812   3.891  18.540  0.00  0.00    +0.000 N 
ATOM      6  N   UNL     1       4.185   4.291  16.246  0.00  0.00    +0.000 NA
ATOM      7  C   UNL     1       5.051   4.429  15.230  0.00  0.00    +0.000 A 
ATOM      8  H   UNL     1       4.242   4.238  19.390  0.00  0.00    +0.000 HD
ENDROOT
BRANCH   5   9
ATOM      9  C   UNL     1       2.401   4.110  18.424  0.00  0.00    +0.000 C 
ATOM     10  C   UNL     1       1.504   3.236  19.376  0.00  0.00    +0.000 C 
ATOM     11  C   UNL     1       1.968   2.215  20.407  0.00  0.00    +0.000 C 
ATOM     12  C   UNL     1       2.348   2.958  21.683  0.00  0.00    +0.000 C 
ATOM     13  O   UNL     1       2.072   4.341  21.467  0.00  0.00    +0.000 OA
ATOM     14  C   UNL     1       1.305   4.477  20.255  0.00  0.00    +0.000 C 
ATOM     15  C   UNL     1       1.841   5.373  19.129  0.00  0.00    +0.000 C 
BRANCH  15  16
ATOM     16  C   UNL     1       2.699   6.556  19.531  0.00  0.00    +0.000 C 
BRANCH  16  17
ATOM     17  O   UNL     1       3.178   7.175  18.333  0.00  0.00    +0.000 OA
ATOM     18  C   UNL     1       2.349   8.258  17.929  0.00  0.00    +0.000 C 
ENDBRANCH  16  17
ENDBRANCH  15  16
ENDBRANCH   5   9
BRANCH   1  20
ATOM     19  C   UNL     1       6.762   4.096  12.972  0.00  0.00    +0.000 C 
ATOM     20  C   UNL     1       7.336   4.706  14.243  0.00  0.00    +0.000 C 
ENDBRANCH   1  20
TORSDOF 4
ENDMDL
MODEL 6
REMARK VINA RESULT:      -6.5      3.490      5.444
REMARK  Name = 
REMARK  6 active torsions:
REMARK  status: ('A' for Active; 'I' for Inactive)
REMARK    1  A    between atoms: C_1  and  C_2
REMARK    2  A    between atoms: C_2  and  C_3
REMARK    3  A    between atoms: N_7  and  C_8
REMARK    4  A    between atoms: C_14  and  C_15
REMARK    5  A    between atoms: C_15  and  O_16
REMARK    6  A    between atoms: O_16  and  C_17
REMARK                            x       y       z     vdW  Elec       q    Type
REMARK                         _______ _______ _______ _____ _____    ______ ____
ROOT
ATOM      1  C   UNL     1       1.044   9.391  19.082  0.00  0.00    +0.000 A 
ATOM      2  C   UNL     1       1.716   9.242  17.885  0.00  0.00    +0.000 A 
ATOM      3  N   UNL     1       2.559   8.221  17.607  0.00  0.00    +0.000 NA
ATOM      4  C   UNL     1       2.747   7.321  18.579  0.00  0.00    +0.000 A 
ATOM      5  N   UNL     1       3.507   6.179  18.281  0.00  0.00    +0.000 N 
ATOM      6  N   UNL     1       2.205   7.428  19.799  0.00  0.00    +0.000 NA
ATOM      7  C   UNL     1       1.339   8.430  20.017  0.00  0.00    +0.000 A 
ATOM      8  H   UNL     1       4.115   6.429  17.509  0.00  0.00    +0.000 HD
ENDROOT
BRANCH   5   9
ATOM      9  C   UNL     1       4.113   5.405  19.323  0.00  0.00    +0.000 C 
ATOM     10  C   UNL     1       3.352   4.084  19.710  0.00  0.00    +0.000 C 
ATOM     11  C   UNL     1       2.073   3.536  19.090  0.00  0.00    +0.000 C 
ATOM     12  C   UNL     1       2.439   2.782  17.816  0.00  0.00    +0.000 C 
ATOM     13  O   UNL     1       3.861   2.812  17.700  0.00  0.00    +0.000 OA
ATOM     14  C   UNL     1       4.417   3.296  18.938  0.00  0.00    +0.000 C 
ATOM     15  C   UNL     1       5.328   4.532  18.914  0.00  0.00    +0.000 C 
BRANCH  15  16
ATOM     16  C   UNL     1       6.143   4.770  17.658  0.00  0.00    +0.000 C 
BRANCH  16  17
ATOM     17  O   UNL     1       7.483   5.073  18.058  0.00  0.00    +0.000 OA
ATOM     18  C   UNL     1       7.546   5.515  19.409  0.00  0.00    +0.000 C 
ENDBRANCH  16  17
ENDBRANCH  15  16
ENDBRANCH   5   9
BRANCH   1  20
ATOM     19  C   UNL     1      -1.031  10.552  18.292  0.00  0.00    +0.000 C 
ATOM     20  C   UNL     1       0.054  10.475  19.357  0.00  0.00    +0.000 C 
ENDBRANCH   1  20
TORSDOF 4
ENDMDL
MODEL 7
REMARK VINA RESULT:      -6.4      3.363      6.475
REMARK  Name = 
REMARK  6 active torsions:
REMARK  status: ('A' for Active; 'I' for Inactive)
REMARK    1  A    between atoms: C_1  and  C_2
REMARK    2  A    between atoms: C_2  and  C_3
REMARK    3  A    between atoms: N_7  and  C_8
REMARK    4  A    between atoms: C_14  and  C_15
REMARK    5  A    between atoms: C_15  and  O_16
REMARK    6  A    between atoms: O_16  and  C_17
REMARK                            x       y       z     vdW  Elec       q    Type
REMARK                         _______ _______ _______ _____ _____    ______ ____
ROOT
ATOM      1  C   UNL     1       7.494   7.047  18.262  0.00  0.00    +0.000 A 
ATOM      2  C   UNL     1       7.446   5.917  19.054  0.00  0.00    +0.000 A 
ATOM      3  N   UNL     1       6.454   4.999  19.012  0.00  0.00    +0.000 NA
ATOM      4  C   UNL     1       5.458   5.235  18.148  0.00  0.00    +0.000 A 
ATOM      5  N   UNL     1       4.482   4.240  17.980  0.00  0.00    +0.000 N 
ATOM      6  N   UNL     1       5.377   6.344  17.401  0.00  0.00    +0.000 NA
ATOM      7  C   UNL     1       6.406   7.204  17.439  0.00  0.00    +0.000 A 
ATOM      8  H   UNL     1       4.478   3.692  18.833  0.00  0.00    +0.000 HD
ENDROOT
BRANCH   5   9
ATOM      9  C   UNL     1       3.195   4.557  17.438  0.00  0.00    +0.000 C 
ATOM     10  C   UNL     1       2.179   3.357  17.373  0.00  0.00    +0.000 C 
ATOM     11  C   UNL     1       2.407   1.924  17.837  0.00  0.00    +0.000 C 
ATOM     12  C   UNL     1       2.164   1.861  19.341  0.00  0.00    +0.000 C 
ATOM     13  O   UNL     1       1.750   3.161  19.759  0.00  0.00    +0.000 OA
ATOM     14  C   UNL     1       1.463   3.954  18.591  0.00  0.00    +0.000 C 
ATOM     15  C   UNL     1       2.208   5.282  18.390  0.00  0.00    +0.000 C 
BRANCH  15  16
ATOM     16  C   UNL     1       2.643   6.029  19.634  0.00  0.00    +0.000 C 
BRANCH  16  17
ATOM     17  O   UNL     1       2.303   7.408  19.457  0.00  0.00    +0.000 OA
ATOM     18  C   UNL     1       1.587   7.924  20.574  0.00  0.00    +0.000 C 
ENDBRANCH  16  17
ENDBRANCH  15  16
ENDBRANCH   5   9
BRANCH   1  20
ATOM     19  C   UNL     1       8.173   9.444  17.989  0.00  0.00    +0.000 C 
ATOM     20  C   UNL     1       8.631   8.016  18.254  0.00  0.00    +0.000 C 
ENDBRANCH   1  20
TORSDOF 4
ENDMDL
MODEL 8
REMARK VINA RESULT:      -6.4      3.479      6.579
REMARK  Name = 
REMARK  6 active torsions:
REMARK  status: ('A' for Active; 'I' for Inactive)
REMARK    1  A    between atoms: C_1  and  C_2
REMARK    2  A    between atoms: C_2  and  C_3
REMARK    3  A    between atoms: N_7  and  C_8
REMARK    4  A    between atoms: C_14  and  C_15
REMARK    5  A    between atoms: C_15  and  O_16
REMARK    6  A    between atoms: O_16  and  C_17
REMARK                            x       y       z     vdW  Elec       q    Type
REMARK                         _______ _______ _______ _____ _____    ______ ____
ROOT
ATOM      1  C   UNL     1       6.884   6.750  17.726  0.00  0.00    +0.000 A 
ATOM      2  C   UNL     1       7.001   5.888  18.798  0.00  0.00    +0.000 A 
ATOM      3  N   UNL     1       6.021   5.053  19.214  0.00  0.00    +0.000 NA
ATOM      4  C   UNL     1       4.869   5.099  18.534  0.00  0.00    +0.000 A 
ATOM      5  N   UNL     1       3.880   4.155  18.851  0.00  0.00    +0.000 N 
ATOM      6  N   UNL     1       4.635   5.961  17.536  0.00  0.00    +0.000 NA
ATOM      7  C   UNL     1       5.650   6.737  17.125  0.00  0.00    +0.000 A 
ATOM      8  H   UNL     1       4.052   3.866  19.807  0.00  0.00    +0.000 HD
ENDROOT
BRANCH   5   9
ATOM      9  C   UNL     1       2.508   4.384  18.508  0.00  0.00    +0.000 C 
ATOM     10  C   UNL     1       1.498   3.282  19.002  0.00  0.00    +0.000 C 
ATOM     11  C   UNL     1       1.816   2.031  19.811  0.00  0.00    +0.000 C 
ATOM     12  C   UNL     1       1.892   2.417  21.284  0.00  0.00    +0.000 C 
ATOM     13  O   UNL     1       1.578   3.806  21.376  0.00  0.00    +0.000 OA
ATOM     14  C   UNL     1       1.055   4.247  20.108  0.00  0.00    +0.000 C 
ATOM     15  C   UNL     1       1.743   5.412  19.382  0.00  0.00    +0.000 C 
BRANCH  15  16
ATOM     16  C   UNL     1       2.431   6.456  20.239  0.00  0.00    +0.000 C 
BRANCH  16  17
ATOM     17  O   UNL     1       1.830   7.723  19.952  0.00  0.00    +0.000 OA
ATOM     18  C   UNL     1       2.177   8.191  18.654  0.00  0.00    +0.000 C 
ENDBRANCH  16  17
ENDBRANCH  15  16
ENDBRANCH   5   9
BRANCH   1  20
ATOM     19  C   UNL     1       8.216   8.842  18.089  0.00  0.00    +0.000 C 
ATOM     20  C   UNL     1       7.995   7.612  17.220  0.00  0.00    +0.000 C 
ENDBRANCH   1  20
TORSDOF 4
ENDMDL
MODEL 9
REMARK VINA RESULT:      -6.3      1.981      3.705
REMARK  Name = 
REMARK  6 active torsions:
REMARK  status: ('A' for Active; 'I' for Inactive)
REMARK    1  A    between atoms: C_1  and  C_2
REMARK    2  A    between atoms: C_2  and  C_3
REMARK    3  A    between atoms: N_7  and  C_8
REMARK    4  A    between atoms: C_14  and  C_15
REMARK    5  A    between atoms: C_15  and  O_16
REMARK    6  A    between atoms: O_16  and  C_17
REMARK                            x       y       z     vdW  Elec       q    Type
REMARK                         _______ _______ _______ _____ _____    ______ ____
ROOT
ATOM      1  C   UNL     1       2.148   3.535  20.189  0.00  0.00    +0.000 A 
ATOM      2  C   UNL     1       2.053   4.903  20.028  0.00  0.00    +0.000 A 
ATOM      3  N   UNL     1       3.001   5.669  19.442  0.00  0.00    +0.000 NA
ATOM      4  C   UNL     1       4.099   5.036  19.013  0.00  0.00    +0.000 A 
ATOM      5  N   UNL     1       5.042   5.774  18.280  0.00  0.00    +0.000 N 
ATOM      6  N   UNL     1       4.317   3.727  19.200  0.00  0.00    +0.000 NA
ATOM      7  C   UNL     1       3.330   2.997  19.743  0.00  0.00    +0.000 A 
ATOM      8  H   UNL     1       4.922   6.744  18.551  0.00  0.00    +0.000 HD
ENDROOT
BRANCH   5   9
ATOM      9  C   UNL     1       6.397   5.325  18.161  0.00  0.00    +0.000 C 
ATOM     10  C   UNL     1       6.681   4.358  16.953  0.00  0.00    +0.000 C 
ATOM     11  C   UNL     1       5.691   3.874  15.902  0.00  0.00    +0.000 C 
ATOM     12  C   UNL     1       5.567   4.947  14.827  0.00  0.00    +0.000 C 
ATOM     13  O   UNL     1       6.474   5.995  15.167  0.00  0.00    +0.000 OA
ATOM     14  C   UNL     1       7.339   5.534  16.222  0.00  0.00    +0.000 C 
ATOM     15  C   UNL     1       7.401   6.328  17.536  0.00  0.00    +0.000 C 
BRANCH  15  16
ATOM     16  C   UNL     1       7.153   7.821  17.457  0.00  0.00    +0.000 C 
BRANCH  16  17
ATOM     17  O   UNL     1       8.426   8.475  17.422  0.00  0.00    +0.000 OA
ATOM     18  C   UNL     1       8.463   9.608  18.281  0.00  0.00    +0.000 C 
ENDBRANCH  16  17
ENDBRANCH  15  16
ENDBRANCH   5   9
BRANCH   1  20
ATOM     19  C   UNL     1       1.262   2.420  22.251  0.00  0.00    +0.000 C 
ATOM     20  C   UNL     1       1.066   2.681  20.764  0.00  0.00    +0.000 C 
ENDBRANCH   1  20
TORSDOF 4
ENDMDL
