MODEL 1
REMARK VINA RESULT:      -6.5      0.000      0.000
REMARK  Name = 
REMARK  8 active torsions:
REMARK  status: ('A' for Active; 'I' for Inactive)
REMARK    1  A    between atoms: C_1  and  O_2
REMARK    2  A    between atoms: O_2  and  C_3
REMARK    3  A    between atoms: C_8  and  C_9
REMARK    4  A    between atoms: C_10  and  C_11
REMARK    5  A    between atoms: C_11  and  C_12
REMARK    6  A    between atoms: C_12  and  N_13
REMARK    7  A    between atoms: N_13  and  C_14
REMARK    8  A    between atoms: N_13  and  C_15
REMARK                            x       y       z     vdW  Elec       q    Type
REMARK                         _______ _______ _______ _____ _____    ______ ____
ROOT
ATOM      1  C   UNL     1       5.716   3.417  12.372  0.00  0.00    +0.000 A 
ATOM      2  C   UNL     1       6.975   3.920  12.045  0.00  0.00    +0.000 A 
ATOM      3  C   UNL     1       7.688   4.715  12.949  0.00  0.00    +0.000 A 
ATOM      4  C   UNL     1       7.097   4.985  14.183  0.00  0.00    +0.000 A 
ATOM      5  N   UNL     1       7.576   5.714  15.240  0.00  0.00    +0.000 N 
ATOM      6  C   UNL     1       6.686   5.708  16.284  0.00  0.00    +0.000 A 
ATOM      7  C   UNL     1       7.019   6.402  17.556  0.00  0.00    +0.000 C 
ATOM      8  C   UNL     1       5.573   4.972  15.886  0.00  0.00    +0.000 A 
ATOM      9  C   UNL     1       5.837   4.518  14.545  0.00  0.00    +0.000 A 
ATOM     10  C   UNL     1       5.134   3.724  13.611  0.00  0.00    +0.000 A 
ATOM     11  H   UNL     1       8.477   6.173  15.251  0.00  0.00    +0.000 HD
ENDROOT
BRANCH   1  13
ATOM     12  C   UNL     1       3.812   3.289  10.975  0.00  0.00    +0.000 C 
ATOM     13  O   UNL     1       4.947   2.644  11.541  0.00  0.00    +0.000 OA
ENDBRANCH   1  13
BRANCH   8  14
ATOM     14  C   UNL     1       4.347   4.656  16.703  0.00  0.00    +0.000 C 
BRANCH  14  15
ATOM     15  C   UNL     1       4.511   3.424  17.609  0.00  0.00    +0.000 C 
BRANCH  15  16
ATOM     16  N   UNL     1       4.781   3.718  19.035  0.00  0.00    +0.000 NA
ATOM     17  C   UNL     1       4.201   4.993  19.462  0.00  0.00    +0.000 C 
ATOM     18  C   UNL     1       4.239   2.635  19.863  0.00  0.00    +0.000 C 
ENDBRANCH  15  16
ENDBRANCH  14  15
ENDBRANCH   8  14
TORSDOF 4
ENDMDL
MODEL 2
REMARK VINA RESULT:      -6.3      3.560      4.932
REMARK  Name = 
REMARK  8 active torsions:
REMARK  status: ('A' for Active; 'I' for Inactive)
REMARK    1  A    between atoms: C_1  and  O_2
REMARK    2  A    between atoms: O_2  and  C_3
REMARK    3  A    between atoms: C_8  and  C_9
REMARK    4  A    between atoms: C_10  and  C_11
REMARK    5  A    between atoms: C_11  and  C_12
REMARK    6  A    between atoms: C_12  and  N_13
REMARK    7  A    between atoms: N_13  and  C_14
REMARK    8  A    between atoms: N_13  and  C_15
REMARK                            x       y       z     vdW  Elec       q    Type
REMARK                         _______ _______ _______ _____ _____    ______ ____
ROOT
ATOM      1  C   UNL     1       6.448   6.803  17.077  0.00  0.00    +0.000 A 
ATOM      2  C   UNL     1       7.241   5.800  16.522  0.00  0.00    +0.000 A 
ATOM      3  C   UNL     1       6.796   4.474  16.479  0.00  0.00    +0.000 A 
ATOM      4  C   UNL     1       5.536   4.194  17.008  0.00  0.00    +0.000 A 
ATOM      5  N   UNL     1       4.865   3.002  17.081  0.00  0.00    +0.000 N 
ATOM      6  C   UNL     1       3.629   3.169  17.654  0.00  0.00    +0.000 A 
ATOM      7  C   UNL     1       2.707   2.011  17.793  0.00  0.00    +0.000 C 
ATOM      8  C   UNL     1       3.500   4.512  17.995  0.00  0.00    +0.000 A 
ATOM      9  C   UNL     1       4.719   5.161  17.587  0.00  0.00    +0.000 A 
ATOM     10  C   UNL     1       5.196   6.491  17.626  0.00  0.00    +0.000 A 
ATOM     11  H   UNL     1       5.227   2.124  16.733  0.00  0.00    +0.000 HD
ENDROOT
BRANCH   1  13
ATOM     12  C   UNL     1       8.043   8.372  17.846  0.00  0.00    +0.000 C 
ATOM     13  O   UNL     1       6.815   8.121  17.172  0.00  0.00    +0.000 OA
ENDBRANCH   1  13
BRANCH   8  14
ATOM     14  C   UNL     1       2.305   5.185  18.620  0.00  0.00    +0.000 C 
BRANCH  14  15
ATOM     15  C   UNL     1       2.401   5.316  20.149  0.00  0.00    +0.000 C 
BRANCH  15  16
ATOM     16  N   UNL     1       1.609   4.329  20.920  0.00  0.00    +0.000 NA
ATOM     17  C   UNL     1       0.604   3.654  20.097  0.00  0.00    +0.000 C 
ATOM     18  C   UNL     1       2.515   3.331  21.500  0.00  0.00    +0.000 C 
ENDBRANCH  15  16
ENDBRANCH  14  15
ENDBRANCH   8  14
TORSDOF 4
ENDMDL
MODEL 3
REMARK VINA RESULT:      -6.3      1.338      1.570
REMARK  Name = 
REMARK  8 active torsions:
REMARK  status: ('A' for Active; 'I' for Inactive)
REMARK    1  A    between atoms: C_1  and  O_2
REMARK    2  A    between atoms: O_2  and  C_3
REMARK    3  A    between atoms: C_8  and  C_9
REMARK    4  A    between atoms: C_10  and  C_11
REMARK    5  A    between atoms: C_11  and  C_12
REMARK    6  A    between atoms: C_12  and  N_13
REMARK    7  A    between atoms: N_13  and  C_14
REMARK    8  A    between atoms: N_13  and  C_15
REMARK                            x       y       z     vdW  Elec       q    Type
REMARK                         _______ _______ _______ _____ _____    ______ ____
ROOT
ATOM      1  C   UNL     1       5.977   3.413  12.402  0.00  0.00    +0.000 A 
ATOM      2  C   UNL     1       7.069   4.201  12.039  0.00  0.00    +0.000 A 
ATOM      3  C   UNL     1       7.691   5.039  12.972  0.00  0.00    +0.000 A 
ATOM      4  C   UNL     1       7.182   5.057  14.270  0.00  0.00    +0.000 A 
ATOM      5  N   UNL     1       7.604   5.766  15.364  0.00  0.00    +0.000 N 
ATOM      6  C   UNL     1       6.841   5.470  16.465  0.00  0.00    +0.000 A 
ATOM      7  C   UNL     1       7.150   6.094  17.779  0.00  0.00    +0.000 C 
ATOM      8  C   UNL     1       5.867   4.557  16.071  0.00  0.00    +0.000 A 
ATOM      9  C   UNL     1       6.084   4.301  14.671  0.00  0.00    +0.000 A 
ATOM     10  C   UNL     1       5.469   3.469  13.708  0.00  0.00    +0.000 A 
ATOM     11  H   UNL     1       8.390   6.403  15.359  0.00  0.00    +0.000 HD
ENDROOT
BRANCH   1  13
ATOM     12  C   UNL     1       5.961   1.357  11.234  0.00  0.00    +0.000 C 
ATOM     13  O   UNL     1       5.303   2.579  11.548  0.00  0.00    +0.000 OA
ENDBRANCH   1  13
BRANCH   8  14
ATOM     14  C   UNL     1       4.817   3.911  16.937  0.00  0.00    +0.000 C 
BRANCH  14  15
ATOM     15  C   UNL     1       3.682   4.865  17.346  0.00  0.00    +0.000 C 
BRANCH  15  16
ATOM     16  N   UNL     1       2.401   4.211  17.698  0.00  0.00    +0.000 NA
ATOM     17  C   UNL     1       2.470   2.753  17.585  0.00  0.00    +0.000 C 
ATOM     18  C   UNL     1       2.032   4.577  19.070  0.00  0.00    +0.000 C 
ENDBRANCH  15  16
ENDBRANCH  14  15
ENDBRANCH   8  14
TORSDOF 4
ENDMDL
MODEL 4
REMARK VINA RESULT:      -6.0      3.188      6.318
REMARK  Name = 
REMARK  8 active torsions:
REMARK  status: ('A' for Active; 'I' for Inactive)
REMARK    1  A    between atoms: C_1  and  O_2
REMARK    2  A    between atoms: O_2  and  C_3
REMARK    3  A    between atoms: C_8  and  C_9
REMARK    4  A    between atoms: C_10  and  C_11
REMARK    5  A    between atoms: C_11  and  C_12
REMARK    6  A    between atoms: C_12  and  N_13
REMARK    7  A    between atoms: N_13  and  C_14
REMARK    8  A    between atoms: N_13  and  C_15
REMARK                            x       y       z     vdW  Elec       q    Type
REMARK                         _______ _______ _______ _____ _____    ______ ____
ROOT
ATOM      1  C   UNL     1       3.278   3.359  19.846  0.00  0.00    +0.000 A 
ATOM      2  C   UNL     1       2.353   3.815  20.785  0.00  0.00    +0.000 A 
ATOM      3  C   UNL     1       1.875   5.129  20.743  0.00  0.00    +0.000 A 
ATOM      4  C   UNL     1       2.355   5.963  19.733  0.00  0.00    +0.000 A 
ATOM      5  N   UNL     1       2.048   7.270  19.461  0.00  0.00    +0.000 N 
ATOM      6  C   UNL     1       2.725   7.713  18.352  0.00  0.00    +0.000 A 
ATOM      7  C   UNL     1       2.510   9.094  17.845  0.00  0.00    +0.000 C 
ATOM      8  C   UNL     1       3.526   6.667  17.902  0.00  0.00    +0.000 A 
ATOM      9  C   UNL     1       3.292   5.556  18.787  0.00  0.00    +0.000 A 
ATOM     10  C   UNL     1       3.764   4.226  18.856  0.00  0.00    +0.000 A 
ATOM     11  H   UNL     1       1.390   7.822  19.994  0.00  0.00    +0.000 HD
ENDROOT
BRANCH   1  13
ATOM     12  C   UNL     1       3.690   1.398  18.590  0.00  0.00    +0.000 C 
ATOM     13  O   UNL     1       3.806   2.094  19.825  0.00  0.00    +0.000 OA
ENDBRANCH   1  13
BRANCH   8  14
ATOM     14  C   UNL     1       4.427   6.661  16.694  0.00  0.00    +0.000 C 
BRANCH  14  15
ATOM     15  C   UNL     1       5.909   6.425  17.030  0.00  0.00    +0.000 C 
BRANCH  15  16
ATOM     16  N   UNL     1       6.422   5.073  16.712  0.00  0.00    +0.000 NA
ATOM     17  C   UNL     1       6.939   4.978  15.346  0.00  0.00    +0.000 C 
ATOM     18  C   UNL     1       7.486   4.725  17.662  0.00  0.00    +0.000 C 
ENDBRANCH  15  16
ENDBRANCH  14  15
ENDBRANCH   8  14
TORSDOF 4
ENDMDL
MODEL 5
REMARK VINA RESULT:      -5.9      3.082      4.978
REMARK  Name = 
REMARK  8 active torsions:
REMARK  status: ('A' for Active; 'I' for Inactive)
REMARK    1  A    between atoms: C_1  and  O_2
REMARK    2  A    between atoms: O_2  and  C_3
REMARK    3  A    between atoms: C_8  and  C_9
REMARK    4  A    between atoms: C_10  and  C_11
REMARK    5  A    between atoms: C_11  and  C_12
REMARK    6  A    between atoms: C_12  and  N_13
REMARK    7  A    between atoms: N_13  and  C_14
REMARK    8  A    between atoms: N_13  and  C_15
REMARK                            x       y       z     vdW  Elec       q    Type
REMARK                         _______ _______ _______ _____ _____    ______ ____
ROOT
ATOM      1  C   UNL     1       6.871   6.034  16.594  0.00  0.00    +0.000 A 
ATOM      2  C   UNL     1       6.953   5.015  15.645  0.00  0.00    +0.000 A 
ATOM      3  C   UNL     1       6.127   3.889  15.727  0.00  0.00    +0.000 A 
ATOM      4  C   UNL     1       5.223   3.822  16.788  0.00  0.00    +0.000 A 
ATOM      5  N   UNL     1       4.305   2.852  17.092  0.00  0.00    +0.000 N 
ATOM      6  C   UNL     1       3.588   3.189  18.212  0.00  0.00    +0.000 A 
ATOM      7  C   UNL     1       2.502   2.299  18.702  0.00  0.00    +0.000 C 
ATOM      8  C   UNL     1       4.075   4.409  18.674  0.00  0.00    +0.000 A 
ATOM      9  C   UNL     1       5.120   4.806  17.767  0.00  0.00    +0.000 A 
ATOM     10  C   UNL     1       5.971   5.929  17.665  0.00  0.00    +0.000 A 
ATOM     11  H   UNL     1       4.162   2.013  16.545  0.00  0.00    +0.000 HD
ENDROOT
BRANCH   1  13
ATOM     12  C   UNL     1       7.800   7.807  17.854  0.00  0.00    +0.000 C 
ATOM     13  O   UNL     1       7.652   7.161  16.595  0.00  0.00    +0.000 OA
ENDBRANCH   1  13
BRANCH   8  14
ATOM     14  C   UNL     1       3.581   5.200  19.856  0.00  0.00    +0.000 C 
BRANCH  14  15
ATOM     15  C   UNL     1       2.299   6.001  19.571  0.00  0.00    +0.000 C 
BRANCH  15  16
ATOM     16  N   UNL     1       2.477   7.468  19.475  0.00  0.00    +0.000 NA
ATOM     17  C   UNL     1       2.243   7.972  18.122  0.00  0.00    +0.000 C 
ATOM     18  C   UNL     1       1.556   8.128  20.408  0.00  0.00    +0.000 C 
ENDBRANCH  15  16
ENDBRANCH  14  15
ENDBRANCH   8  14
TORSDOF 4
ENDMDL
MODEL 6
REMARK VINA RESULT:      -5.9      3.172      5.767
REMARK  Name = 
REMARK  8 active torsions:
REMARK  status: ('A' for Active; 'I' for Inactive)
REMARK    1  A    between atoms: C_1  and  O_2
REMARK    2  A    between atoms: O_2  and  C_3
REMARK    3  A    between atoms: C_8  and  C_9
REMARK    4  A    between atoms: C_10  and  C_11
REMARK    5  A    between atoms: C_11  and  C_12
REMARK    6  A    between atoms: C_12  and  N_13
REMARK    7  A    between atoms: N_13  and  C_14
REMARK    8  A    between atoms: N_13  and  C_15
REMARK                            x       y       z     vdW  Elec       q    Type
REMARK                         _______ _______ _______ _____ _____    ______ ____
ROOT
ATOM      1  C   UNL     1       2.214   3.521  19.154  0.00  0.00    +0.000 A 
ATOM      2  C   UNL     1       2.541   2.190  18.896  0.00  0.00    +0.000 A 
ATOM      3  C   UNL     1       3.527   1.861  17.959  0.00  0.00    +0.000 A 
ATOM      4  C   UNL     1       4.167   2.908  17.295  0.00  0.00    +0.000 A 
ATOM      5  N   UNL     1       5.162   2.866  16.354  0.00  0.00    +0.000 N 
ATOM      6  C   UNL     1       5.534   4.131  15.976  0.00  0.00    +0.000 A 
ATOM      7  C   UNL     1       6.633   4.326  14.993  0.00  0.00    +0.000 C 
ATOM      8  C   UNL     1       4.733   5.032  16.673  0.00  0.00    +0.000 A 
ATOM      9  C   UNL     1       3.861   4.249  17.508  0.00  0.00    +0.000 A 
ATOM     10  C   UNL     1       2.856   4.554  18.454  0.00  0.00    +0.000 A 
ATOM     11  H   UNL     1       5.580   2.012  16.007  0.00  0.00    +0.000 HD
ENDROOT
BRANCH   1  13
ATOM     12  C   UNL     1       1.287   3.298  21.318  0.00  0.00    +0.000 C 
ATOM     13  O   UNL     1       1.253   3.928  20.043  0.00  0.00    +0.000 OA
ENDBRANCH   1  13
BRANCH   8  14
ATOM     14  C   UNL     1       4.792   6.536  16.619  0.00  0.00    +0.000 C 
BRANCH  14  15
ATOM     15  C   UNL     1       5.674   7.160  17.713  0.00  0.00    +0.000 C 
BRANCH  15  16
ATOM     16  N   UNL     1       7.133   6.987  17.525  0.00  0.00    +0.000 NA
ATOM     17  C   UNL     1       7.862   8.252  17.621  0.00  0.00    +0.000 C 
ATOM     18  C   UNL     1       7.643   6.052  18.535  0.00  0.00    +0.000 C 
ENDBRANCH  15  16
ENDBRANCH  14  15
ENDBRANCH   8  14
TORSDOF 4
ENDMDL
MODEL 7
REMARK VINA RESULT:      -5.9      3.925      6.300
REMARK  Name = 
REMARK  8 active torsions:
REMARK  status: ('A' for Active; 'I' for Inactive)
REMARK    1  A    between atoms: C_1  and  O_2
REMARK    2  A    between atoms: O_2  and  C_3
REMARK    3  A    between atoms: C_8  and  C_9
REMARK    4  A    between atoms: C_10  and  C_11
REMARK    5  A    between atoms: C_11  and  C_12
REMARK    6  A    between atoms: C_12  and  N_13
REMARK    7  A    between atoms: N_13  and  C_14
REMARK    8  A    between atoms: N_13  and  C_15
REMARK                            x       y       z     vdW  Elec       q    Type
REMARK                         _______ _______ _______ _____ _____    ______ ____
ROOT
ATOM      1  C   UNL     1       2.053   7.243  19.842  0.00  0.00    +0.000 A 
ATOM      2  C   UNL     1       2.252   8.164  18.814  0.00  0.00    +0.000 A 
ATOM      3  C   UNL     1       3.059   7.850  17.715  0.00  0.00    +0.000 A 
ATOM      4  C   UNL     1       3.656   6.590  17.685  0.00  0.00    +0.000 A 
ATOM      5  N   UNL     1       4.470   6.031  16.736  0.00  0.00    +0.000 N 
ATOM      6  C   UNL     1       4.818   4.749  17.080  0.00  0.00    +0.000 A 
ATOM      7  C   UNL     1       5.664   3.933  16.170  0.00  0.00    +0.000 C 
ATOM      8  C   UNL     1       4.234   4.470  18.313  0.00  0.00    +0.000 A 
ATOM      9  C   UNL     1       3.499   5.647  18.697  0.00  0.00    +0.000 A 
ATOM     10  C   UNL     1       2.685   5.991  19.800  0.00  0.00    +0.000 A 
ATOM     11  H   UNL     1       4.753   6.498  15.884  0.00  0.00    +0.000 HD
ENDROOT
BRANCH   1  13
ATOM     12  C   UNL     1       1.062   8.844  21.273  0.00  0.00    +0.000 C 
ATOM     13  O   UNL     1       1.291   7.476  20.958  0.00  0.00    +0.000 OA
ENDBRANCH   1  13
BRANCH   8  14
ATOM     14  C   UNL     1       4.301   3.177  19.083  0.00  0.00    +0.000 C 
BRANCH  14  15
ATOM     15  C   UNL     1       3.302   2.115  18.595  0.00  0.00    +0.000 C 
BRANCH  15  16
ATOM     16  N   UNL     1       2.075   1.977  19.413  0.00  0.00    +0.000 NA
ATOM     17  C   UNL     1       2.230   2.547  20.752  0.00  0.00    +0.000 C 
ATOM     18  C   UNL     1       0.959   2.638  18.728  0.00  0.00    +0.000 C 
ENDBRANCH  15  16
ENDBRANCH  14  15
ENDBRANCH   8  14
TORSDOF 4
ENDMDL
MODEL 8
REMARK VINA RESULT:      -5.9      2.174      3.871
REMARK  Name = 
REMARK  8 active torsions:
REMARK  status: ('A' for Active; 'I' for Inactive)
REMARK    1  A    between atoms: C_1  and  O_2
REMARK    2  A    between atoms: O_2  and  C_3
REMARK    3  A    between atoms: C_8  and  C_9
REMARK    4  A    between atoms: C_10  and  C_11
REMARK    5  A    between atoms: C_11  and  C_12
REMARK    6  A    between atoms: C_12  and  N_13
REMARK    7  A    between atoms: N_13  and  C_14
REMARK    8  A    between atoms: N_13  and  C_15
REMARK                            x       y       z     vdW  Elec       q    Type
REMARK                         _______ _______ _______ _____ _____    ______ ____
ROOT
ATOM      1  C   UNL     1       5.811   4.559  15.796  0.00  0.00    +0.000 A 
ATOM      2  C   UNL     1       6.345   5.805  16.124  0.00  0.00    +0.000 A 
ATOM      3  C   UNL     1       5.716   6.633  17.060  0.00  0.00    +0.000 A 
ATOM      4  C   UNL     1       4.541   6.169  17.652  0.00  0.00    +0.000 A 
ATOM      5  N   UNL     1       3.744   6.764  18.594  0.00  0.00    +0.000 N 
ATOM      6  C   UNL     1       2.691   5.950  18.930  0.00  0.00    +0.000 A 
ATOM      7  C   UNL     1       1.719   6.377  19.971  0.00  0.00    +0.000 C 
ATOM      8  C   UNL     1       2.787   4.795  18.159  0.00  0.00    +0.000 A 
ATOM      9  C   UNL     1       3.964   4.941  17.342  0.00  0.00    +0.000 A 
ATOM     10  C   UNL     1       4.614   4.128  16.387  0.00  0.00    +0.000 A 
ATOM     11  H   UNL     1       3.927   7.671  19.002  0.00  0.00    +0.000 HD
ENDROOT
BRANCH   1  13
ATOM     12  C   UNL     1       5.909   3.859  13.539  0.00  0.00    +0.000 C 
ATOM     13  O   UNL     1       6.355   3.696  14.881  0.00  0.00    +0.000 OA
ENDBRANCH   1  13
BRANCH   8  14
ATOM     14  C   UNL     1       1.878   3.594  18.197  0.00  0.00    +0.000 C 
BRANCH  14  15
ATOM     15  C   UNL     1       2.416   2.442  19.062  0.00  0.00    +0.000 C 
BRANCH  15  16
ATOM     16  N   UNL     1       3.228   2.852  20.230  0.00  0.00    +0.000 NA
ATOM     17  C   UNL     1       2.542   2.610  21.500  0.00  0.00    +0.000 C 
ATOM     18  C   UNL     1       4.500   2.119  20.216  0.00  0.00    +0.000 C 
ENDBRANCH  15  16
ENDBRANCH  14  15
ENDBRANCH   8  14
TORSDOF 4
ENDMDL
MODEL 9
REMARK VINA RESULT:      -5.9      3.106      6.383
REMARK  Name = 
REMARK  8 active torsions:
REMARK  status: ('A' for Active; 'I' for Inactive)
REMARK    1  A    between atoms: C_1  and  O_2
REMARK    2  A    between atoms: O_2  and  C_3
REMARK    3  A    between atoms: C_8  and  C_9
REMARK    4  A    between atoms: C_10  and  C_11
REMARK    5  A    between atoms: C_11  and  C_12
REMARK    6  A    between atoms: C_12  and  N_13
REMARK    7  A    between atoms: N_13  and  C_14
REMARK    8  A    between atoms: N_13  and  C_15
REMARK                            x       y       z     vdW  Elec       q    Type
REMARK                         _______ _______ _______ _____ _____    ______ ____
ROOT
ATOM      1  C   UNL     1       3.643   3.166  19.641  0.00  0.00    +0.000 A 
ATOM      2  C   UNL     1       2.653   3.519  20.558  0.00  0.00    +0.000 A 
ATOM      3  C   UNL     1       2.080   4.795  20.540  0.00  0.00    +0.000 A 
ATOM      4  C   UNL     1       2.532   5.697  19.577  0.00  0.00    +0.000 A 
ATOM      5  N   UNL     1       2.138   6.987  19.334  0.00  0.00    +0.000 N 
ATOM      6  C   UNL     1       2.818   7.516  18.267  0.00  0.00    +0.000 A 
ATOM      7  C   UNL     1       2.518   8.894  17.796  0.00  0.00    +0.000 C 
ATOM      8  C   UNL     1       3.710   6.548  17.813  0.00  0.00    +0.000 A 
ATOM      9  C   UNL     1       3.528   5.393  18.653  0.00  0.00    +0.000 A 
ATOM     10  C   UNL     1       4.096   4.100  18.698  0.00  0.00    +0.000 A 
ATOM     11  H   UNL     1       1.421   7.470  19.860  0.00  0.00    +0.000 HD
ENDROOT
BRANCH   1  13
ATOM     12  C   UNL     1       4.983   1.579  20.772  0.00  0.00    +0.000 C 
ATOM     13  O   UNL     1       4.264   1.945  19.599  0.00  0.00    +0.000 OA
ENDBRANCH   1  13
BRANCH   8  14
ATOM     14  C   UNL     1       4.650   6.651  16.640  0.00  0.00    +0.000 C 
BRANCH  14  15
ATOM     15  C   UNL     1       6.130   6.754  17.043  0.00  0.00    +0.000 C 
BRANCH  15  16
ATOM     16  N   UNL     1       7.033   5.778  16.390  0.00  0.00    +0.000 NA
ATOM     17  C   UNL     1       7.477   4.728  17.308  0.00  0.00    +0.000 C 
ATOM     18  C   UNL     1       6.341   5.169  15.249  0.00  0.00    +0.000 C 
ENDBRANCH  15  16
ENDBRANCH  14  15
ENDBRANCH   8  14
TORSDOF 4
ENDMDL
