MODEL 1
REMARK VINA RESULT:      -8.0      0.000      0.000
REMARK  Name = 
REMARK  5 active torsions:
REMARK  status: ('A' for Active; 'I' for Inactive)
REMARK    1  A    between atoms: C_2  and  C_3
REMARK    2  A    between atoms: C_3  and  C_4
REMARK    3  A    between atoms: C_4  and  S_5
REMARK    4  A    between atoms: S_5  and  C_8
REMARK    5  A    between atoms: C_22  and  N_23
REMARK                            x       y       z     vdW  Elec       q    Type
REMARK                         _______ _______ _______ _____ _____    ______ ____
ROOT
ATOM      1  C   UNL     1       1.918   4.476  19.306  0.00  0.00    +0.000 C 
ENDROOT
BRANCH   1   2
ATOM      2  S   UNL     1       3.097   3.149  19.379  0.00  0.00    +0.000 S 
ATOM      3  O   UNL     1       3.659   3.123  20.717  0.00  0.00    +0.000 OA
ATOM      4  O   UNL     1       2.478   1.964  18.818  0.00  0.00    +0.000 OA
BRANCH   2   5
ATOM      5  C   UNL     1       4.386   3.654  18.271  0.00  0.00    +0.000 A 
ATOM      6  C   UNL     1       5.533   4.261  18.781  0.00  0.00    +0.000 A 
ATOM      7  C   UNL     1       6.513   4.717  17.899  0.00  0.00    +0.000 A 
ATOM      8  C   UNL     1       6.348   4.585  16.509  0.00  0.00    +0.000 A 
ATOM      9  C   UNL     1       7.318   5.060  15.613  0.00  0.00    +0.000 A 
ATOM     10  C   UNL     1       7.126   4.931  14.238  0.00  0.00    +0.000 A 
ATOM     11 CL   UNL     1       8.322   5.525  13.152  0.00  0.00    +0.000 Cl
ATOM     12  C   UNL     1       5.976   4.331  13.735  0.00  0.00    +0.000 A 
ATOM     13  C   UNL     1       5.004   3.852  14.615  0.00  0.00    +0.000 A 
ATOM     14  C   UNL     1       5.175   3.975  16.002  0.00  0.00    +0.000 A 
ATOM     15  C   UNL     1       4.198   3.513  16.893  0.00  0.00    +0.000 A 
ENDBRANCH   2   5
ENDBRANCH   1   2
BRANCH   1  16
ATOM     16  C   UNL     1       2.559   5.736  19.859  0.00  0.00    +0.000 C 
BRANCH  16  18
ATOM     17  O   UNL     1       3.046   6.723  17.743  0.00  0.00    +0.000 OA
ATOM     18  C   UNL     1       2.551   6.866  18.859  0.00  0.00    +0.000 C 
ATOM     19  N   UNL     1       1.947   8.051  19.271  0.00  0.00    +0.000 N 
ATOM     20  C   UNL     1       1.472   8.314  20.632  0.00  0.00    +0.000 C 
ATOM     21  C   UNL     1       0.096   8.968  20.618  0.00  0.00    +0.000 C 
ATOM     22  C   UNL     1       0.004  10.170  19.669  0.00  0.00    +0.000 C 
ATOM     23  C   UNL     1       0.596   9.856  18.289  0.00  0.00    +0.000 C 
ATOM     24  C   UNL     1       1.968   9.199  18.368  0.00  0.00    +0.000 C 
BRANCH  22  25
ATOM     25  N   UNL     1       0.509  11.415  20.238  0.00  0.00    +0.000 N 
ATOM     26  C   UNL     1       1.426  12.283  19.720  0.00  0.00    +0.000 A 
ATOM     27  C   UNL     1       1.518  13.306  20.636  0.00  0.00    +0.000 A 
ATOM     28  N   UNL     1       0.688  13.081  21.697  0.00  0.00    +0.000 NA
ATOM     29  C   UNL     1       0.092  11.940  21.433  0.00  0.00    +0.000 A 
ENDBRANCH  22  25
ENDBRANCH  16  18
ENDBRANCH   1  16
TORSDOF 5
ENDMDL
MODEL 2
REMARK VINA RESULT:      -7.6      6.832      8.132
REMARK  Name = 
REMARK  5 active torsions:
REMARK  status: ('A' for Active; 'I' for Inactive)
REMARK    1  A    between atoms: C_2  and  C_3
REMARK    2  A    between atoms: C_3  and  C_4
REMARK    3  A    between atoms: C_4  and  S_5
REMARK    4  A    between atoms: S_5  and  C_8
REMARK    5  A    between atoms: C_22  and  N_23
REMARK                            x       y       z     vdW  Elec       q    Type
REMARK                         _______ _______ _______ _____ _____    ______ ____
ROOT
ATOM      1  C   UNL     1       7.139   8.684  17.833  0.00  0.00    +0.000 C 
ENDROOT
BRANCH   1   2
ATOM      2  S   UNL     1       7.455   6.947  17.638  0.00  0.00    +0.000 S 
ATOM      3  O   UNL     1       7.957   6.732  16.293  0.00  0.00    +0.000 OA
ATOM      4  O   UNL     1       8.215   6.495  18.787  0.00  0.00    +0.000 OA
BRANCH   2   5
ATOM      5  C   UNL     1       5.850   6.202  17.732  0.00  0.00    +0.000 A 
ATOM      6  C   UNL     1       4.719   6.965  17.445  0.00  0.00    +0.000 A 
ATOM      7  C   UNL     1       3.455   6.391  17.587  0.00  0.00    +0.000 A 
ATOM      8  C   UNL     1       3.312   5.065  18.027  0.00  0.00    +0.000 A 
ATOM      9  C   UNL     1       2.045   4.485  18.194  0.00  0.00    +0.000 A 
ATOM     10  C   UNL     1       1.926   3.172  18.647  0.00  0.00    +0.000 A 
ATOM     11 CL   UNL     1       0.365   2.479  18.853  0.00  0.00    +0.000 Cl
ATOM     12  C   UNL     1       3.059   2.418  18.939  0.00  0.00    +0.000 A 
ATOM     13  C   UNL     1       4.326   2.980  18.777  0.00  0.00    +0.000 A 
ATOM     14  C   UNL     1       4.467   4.301  18.325  0.00  0.00    +0.000 A 
ATOM     15  C   UNL     1       5.733   4.880  18.174  0.00  0.00    +0.000 A 
ENDBRANCH   2   5
ENDBRANCH   1   2
BRANCH   1  16
ATOM     16  C   UNL     1       8.430   9.450  17.599  0.00  0.00    +0.000 C 
BRANCH  16  18
ATOM     17  O   UNL     1       8.920   9.326  19.930  0.00  0.00    +0.000 OA
ATOM     18  C   UNL     1       9.029   9.964  18.884  0.00  0.00    +0.000 C 
ATOM     19  N   UNL     1       9.710  11.176  18.807  0.00  0.00    +0.000 N 
ATOM     20  C   UNL     1       9.745  12.037  17.622  0.00  0.00    +0.000 C 
ATOM     21  C   UNL     1      11.154  12.548  17.354  0.00  0.00    +0.000 C 
ATOM     22  C   UNL     1      11.830  13.147  18.595  0.00  0.00    +0.000 C 
ATOM     23  C   UNL     1      11.682  12.237  19.822  0.00  0.00    +0.000 C 
ATOM     24  C   UNL     1      10.253  11.754  20.033  0.00  0.00    +0.000 C 
BRANCH  22  25
ATOM     25  N   UNL     1      11.457  14.532  18.863  0.00  0.00    +0.000 N 
ATOM     26  C   UNL     1      10.376  15.232  18.410  0.00  0.00    +0.000 A 
ATOM     27  C   UNL     1      10.481  16.478  18.984  0.00  0.00    +0.000 A 
ATOM     28  N   UNL     1      11.598  16.557  19.767  0.00  0.00    +0.000 NA
ATOM     29  C   UNL     1      12.166  15.375  19.679  0.00  0.00    +0.000 A 
ENDBRANCH  22  25
ENDBRANCH  16  18
ENDBRANCH   1  16
TORSDOF 5
ENDMDL
MODEL 3
REMARK VINA RESULT:      -7.5      4.685      7.117
REMARK  Name = 
REMARK  5 active torsions:
REMARK  status: ('A' for Active; 'I' for Inactive)
REMARK    1  A    between atoms: C_2  and  C_3
REMARK    2  A    between atoms: C_3  and  C_4
REMARK    3  A    between atoms: C_4  and  S_5
REMARK    4  A    between atoms: S_5  and  C_8
REMARK    5  A    between atoms: C_22  and  N_23
REMARK                            x       y       z     vdW  Elec       q    Type
REMARK                         _______ _______ _______ _____ _____    ______ ____
ROOT
ATOM      1  C   UNL     1       0.995  11.504  20.409  0.00  0.00    +0.000 C 
ENDROOT
BRANCH   1   2
ATOM      2  S   UNL     1       1.098  10.685  18.837  0.00  0.00    +0.000 S 
ATOM      3  O   UNL     1      -0.228  10.682  18.246  0.00  0.00    +0.000 OA
ATOM      4  O   UNL     1       2.225  11.239  18.112  0.00  0.00    +0.000 OA
BRANCH   2   5
ATOM      5  C   UNL     1       1.500   9.008  19.248  0.00  0.00    +0.000 A 
ATOM      6  C   UNL     1       1.188   8.516  20.515  0.00  0.00    +0.000 A 
ATOM      7  C   UNL     1       1.567   7.217  20.855  0.00  0.00    +0.000 A 
ATOM      8  C   UNL     1       2.270   6.411  19.945  0.00  0.00    +0.000 A 
ATOM      9  C   UNL     1       2.675   5.111  20.285  0.00  0.00    +0.000 A 
ATOM     10  C   UNL     1       3.386   4.334  19.370  0.00  0.00    +0.000 A 
ATOM     11 CL   UNL     1       3.882   2.745  19.806  0.00  0.00    +0.000 Cl
ATOM     12  C   UNL     1       3.701   4.834  18.109  0.00  0.00    +0.000 A 
ATOM     13  C   UNL     1       3.302   6.124  17.757  0.00  0.00    +0.000 A 
ATOM     14  C   UNL     1       2.590   6.923  18.663  0.00  0.00    +0.000 A 
ATOM     15  C   UNL     1       2.200   8.225  18.325  0.00  0.00    +0.000 A 
ENDBRANCH   2   5
ENDBRANCH   1   2
BRANCH   1  16
ATOM     16  C   UNL     1      -0.394  12.099  20.565  0.00  0.00    +0.000 C 
BRANCH  16  18
ATOM     17  O   UNL     1      -0.266  11.379  22.836  0.00  0.00    +0.000 OA
ATOM     18  C   UNL     1      -0.954  11.884  21.950  0.00  0.00    +0.000 C 
ATOM     19  N   UNL     1      -2.267  12.298  22.156  0.00  0.00    +0.000 N 
ATOM     20  C   UNL     1      -3.166  12.771  21.101  0.00  0.00    +0.000 C 
ATOM     21  C   UNL     1      -3.922  14.018  21.540  0.00  0.00    +0.000 C 
ATOM     22  C   UNL     1      -4.580  13.876  22.919  0.00  0.00    +0.000 C 
ATOM     23  C   UNL     1      -3.612  13.294  23.957  0.00  0.00    +0.000 C 
ATOM     24  C   UNL     1      -2.882  12.054  23.458  0.00  0.00    +0.000 C 
BRANCH  22  25
ATOM     25  N   UNL     1      -5.869  13.193  22.893  0.00  0.00    +0.000 N 
ATOM     26  C   UNL     1      -6.583  12.671  23.934  0.00  0.00    +0.000 A 
ATOM     27  C   UNL     1      -7.735  12.172  23.371  0.00  0.00    +0.000 A 
ATOM     28  N   UNL     1      -7.738  12.369  22.019  0.00  0.00    +0.000 NA
ATOM     29  C   UNL     1      -6.608  12.984  21.758  0.00  0.00    +0.000 A 
ENDBRANCH  22  25
ENDBRANCH  16  18
ENDBRANCH   1  16
TORSDOF 5
ENDMDL
MODEL 4
REMARK VINA RESULT:      -7.5      4.673      6.848
REMARK  Name = 
REMARK  5 active torsions:
REMARK  status: ('A' for Active; 'I' for Inactive)
REMARK    1  A    between atoms: C_2  and  C_3
REMARK    2  A    between atoms: C_3  and  C_4
REMARK    3  A    between atoms: C_4  and  S_5
REMARK    4  A    between atoms: S_5  and  C_8
REMARK    5  A    between atoms: C_22  and  N_23
REMARK                            x       y       z     vdW  Elec       q    Type
REMARK                         _______ _______ _______ _____ _____    ______ ____
ROOT
ATOM      1  C   UNL     1       0.771  11.184  21.003  0.00  0.00    +0.000 C 
ENDROOT
BRANCH   1   2
ATOM      2  S   UNL     1      -0.025   9.673  20.511  0.00  0.00    +0.000 S 
ATOM      3  O   UNL     1      -0.313   8.908  21.710  0.00  0.00    +0.000 OA
ATOM      4  O   UNL     1      -1.084  10.005  19.578  0.00  0.00    +0.000 OA
BRANCH   2   5
ATOM      5  C   UNL     1       1.227   8.799  19.610  0.00  0.00    +0.000 A 
ATOM      6  C   UNL     1       1.608   9.250  18.347  0.00  0.00    +0.000 A 
ATOM      7  C   UNL     1       2.544   8.519  17.615  0.00  0.00    +0.000 A 
ATOM      8  C   UNL     1       3.092   7.331  18.129  0.00  0.00    +0.000 A 
ATOM      9  C   UNL     1       4.017   6.577  17.393  0.00  0.00    +0.000 A 
ATOM     10  C   UNL     1       4.536   5.393  17.916  0.00  0.00    +0.000 A 
ATOM     11 CL   UNL     1       5.665   4.477  16.997  0.00  0.00    +0.000 Cl
ATOM     12  C   UNL     1       4.145   4.944  19.175  0.00  0.00    +0.000 A 
ATOM     13  C   UNL     1       3.227   5.685  19.920  0.00  0.00    +0.000 A 
ATOM     14  C   UNL     1       2.691   6.877  19.410  0.00  0.00    +0.000 A 
ATOM     15  C   UNL     1       1.755   7.619  20.142  0.00  0.00    +0.000 A 
ENDBRANCH   2   5
ENDBRANCH   1   2
BRANCH   1  16
ATOM     16  C   UNL     1      -0.251  12.308  20.983  0.00  0.00    +0.000 C 
BRANCH  16  18
ATOM     17  O   UNL     1      -0.579  12.221  23.343  0.00  0.00    +0.000 OA
ATOM     18  C   UNL     1      -1.094  12.333  22.233  0.00  0.00    +0.000 C 
ATOM     19  N   UNL     1      -2.464  12.502  22.050  0.00  0.00    +0.000 N 
ATOM     20  C   UNL     1      -3.137  12.499  20.749  0.00  0.00    +0.000 C 
ATOM     21  C   UNL     1      -4.153  13.630  20.651  0.00  0.00    +0.000 C 
ATOM     22  C   UNL     1      -5.100  13.702  21.856  0.00  0.00    +0.000 C 
ATOM     23  C   UNL     1      -4.341  13.614  23.186  0.00  0.00    +0.000 C 
ATOM     24  C   UNL     1      -3.337  12.468  23.221  0.00  0.00    +0.000 C 
BRANCH  22  25
ATOM     25  N   UNL     1      -6.228  12.781  21.780  0.00  0.00    +0.000 N 
ATOM     26  C   UNL     1      -6.728  12.126  20.691  0.00  0.00    +0.000 A 
ATOM     27  C   UNL     1      -7.767  11.362  21.170  0.00  0.00    +0.000 A 
ATOM     28  N   UNL     1      -7.917  11.538  22.517  0.00  0.00    +0.000 NA
ATOM     29  C   UNL     1      -6.980  12.394  22.858  0.00  0.00    +0.000 A 
ENDBRANCH  22  25
ENDBRANCH  16  18
ENDBRANCH   1  16
TORSDOF 5
ENDMDL
MODEL 5
REMARK VINA RESULT:      -7.5      4.143      6.328
REMARK  Name = 
REMARK  5 active torsions:
REMARK  status: ('A' for Active; 'I' for Inactive)
REMARK    1  A    between atoms: C_2  and  C_3
REMARK    2  A    between atoms: C_3  and  C_4
REMARK    3  A    between atoms: C_4  and  S_5
REMARK    4  A    between atoms: S_5  and  C_8
REMARK    5  A    between atoms: C_22  and  N_23
REMARK                            x       y       z     vdW  Elec       q    Type
REMARK                         _______ _______ _______ _____ _____    ______ ____
ROOT
ATOM      1  C   UNL     1       0.841  10.322  19.987  0.00  0.00    +0.000 C 
ENDROOT
BRANCH   1   2
ATOM      2  S   UNL     1       0.876   9.047  21.224  0.00  0.00    +0.000 S 
ATOM      3  O   UNL     1       1.813   9.450  22.256  0.00  0.00    +0.000 OA
ATOM      4  O   UNL     1      -0.493   8.712  21.564  0.00  0.00    +0.000 OA
BRANCH   2   5
ATOM      5  C   UNL     1       1.576   7.651  20.386  0.00  0.00    +0.000 A 
ATOM      6  C   UNL     1       2.164   7.823  19.134  0.00  0.00    +0.000 A 
ATOM      7  C   UNL     1       2.653   6.709  18.450  0.00  0.00    +0.000 A 
ATOM      8  C   UNL     1       2.543   5.421  19.001  0.00  0.00    +0.000 A 
ATOM      9  C   UNL     1       3.011   4.292  18.313  0.00  0.00    +0.000 A 
ATOM     10  C   UNL     1       2.877   3.022  18.872  0.00  0.00    +0.000 A 
ATOM     11 CL   UNL     1       3.450   1.647  18.011  0.00  0.00    +0.000 Cl
ATOM     12  C   UNL     1       2.281   2.855  20.119  0.00  0.00    +0.000 A 
ATOM     13  C   UNL     1       1.813   3.970  20.816  0.00  0.00    +0.000 A 
ATOM     14  C   UNL     1       1.934   5.256  20.270  0.00  0.00    +0.000 A 
ATOM     15  C   UNL     1       1.452   6.379  20.954  0.00  0.00    +0.000 A 
ENDBRANCH   2   5
ENDBRANCH   1   2
BRANCH   1  16
ATOM     16  C   UNL     1       0.487  11.642  20.650  0.00  0.00    +0.000 C 
BRANCH  16  18
ATOM     17  O   UNL     1      -1.033  12.253  18.916  0.00  0.00    +0.000 OA
ATOM     18  C   UNL     1      -0.805  12.216  20.124  0.00  0.00    +0.000 C 
ATOM     19  N   UNL     1      -1.708  12.678  21.077  0.00  0.00    +0.000 N 
ATOM     20  C   UNL     1      -1.425  12.785  22.510  0.00  0.00    +0.000 C 
ATOM     21  C   UNL     1      -2.587  12.259  23.343  0.00  0.00    +0.000 C 
ATOM     22  C   UNL     1      -3.946  12.832  22.920  0.00  0.00    +0.000 C 
ATOM     23  C   UNL     1      -4.145  12.770  21.400  0.00  0.00    +0.000 C 
ATOM     24  C   UNL     1      -2.948  13.304  20.623  0.00  0.00    +0.000 C 
BRANCH  22  25
ATOM     25  N   UNL     1      -4.235  14.147  23.480  0.00  0.00    +0.000 N 
ATOM     26  C   UNL     1      -5.185  15.052  23.099  0.00  0.00    +0.000 A 
ATOM     27  C   UNL     1      -5.055  16.107  23.972  0.00  0.00    +0.000 A 
ATOM     28  N   UNL     1      -4.050  15.873  24.868  0.00  0.00    +0.000 NA
ATOM     29  C   UNL     1      -3.575  14.690  24.552  0.00  0.00    +0.000 A 
ENDBRANCH  22  25
ENDBRANCH  16  18
ENDBRANCH   1  16
TORSDOF 5
ENDMDL
MODEL 6
REMARK VINA RESULT:      -7.3      5.367     10.791
REMARK  Name = 
REMARK  5 active torsions:
REMARK  status: ('A' for Active; 'I' for Inactive)
REMARK    1  A    between atoms: C_2  and  C_3
REMARK    2  A    between atoms: C_3  and  C_4
REMARK    3  A    between atoms: C_4  and  S_5
REMARK    4  A    between atoms: S_5  and  C_8
REMARK    5  A    between atoms: C_22  and  N_23
REMARK                            x       y       z     vdW  Elec       q    Type
REMARK                         _______ _______ _______ _____ _____    ______ ____
ROOT
ATOM      1  C   UNL     1       0.716  10.744  19.508  0.00  0.00    +0.000 C 
ENDROOT
BRANCH   1   2
ATOM      2  S   UNL     1       0.634  11.434  21.142  0.00  0.00    +0.000 S 
ATOM      3  O   UNL     1       0.909  10.372  22.092  0.00  0.00    +0.000 OA
ATOM      4  O   UNL     1       1.417  12.655  21.156  0.00  0.00    +0.000 OA
BRANCH   2   5
ATOM      5  C   UNL     1      -1.069  11.891  21.334  0.00  0.00    +0.000 A 
ATOM      6  C   UNL     1      -1.792  12.330  20.226  0.00  0.00    +0.000 A 
ATOM      7  C   UNL     1      -3.111  12.752  20.397  0.00  0.00    +0.000 A 
ATOM      8  C   UNL     1      -3.708  12.753  21.669  0.00  0.00    +0.000 A 
ATOM      9  C   UNL     1      -5.027  13.196  21.854  0.00  0.00    +0.000 A 
ATOM     10  C   UNL     1      -5.593  13.202  23.128  0.00  0.00    +0.000 A 
ATOM     11 CL   UNL     1      -7.209  13.755  23.340  0.00  0.00    +0.000 Cl
ATOM     12  C   UNL     1      -4.863  12.770  24.232  0.00  0.00    +0.000 A 
ATOM     13  C   UNL     1      -3.551  12.325  24.062  0.00  0.00    +0.000 A 
ATOM     14  C   UNL     1      -2.961  12.313  22.789  0.00  0.00    +0.000 A 
ATOM     15  C   UNL     1      -1.640  11.885  22.610  0.00  0.00    +0.000 A 
ENDBRANCH   2   5
ENDBRANCH   1   2
BRANCH   1  16
ATOM     16  C   UNL     1       0.979   9.252  19.615  0.00  0.00    +0.000 C 
BRANCH  16  18
ATOM     17  O   UNL     1       2.138   9.465  17.542  0.00  0.00    +0.000 OA
ATOM     18  C   UNL     1       1.863   8.747  18.502  0.00  0.00    +0.000 C 
ATOM     19  N   UNL     1       2.345   7.448  18.637  0.00  0.00    +0.000 N 
ATOM     20  C   UNL     1       1.932   6.512  19.685  0.00  0.00    +0.000 C 
ATOM     21  C   UNL     1       3.133   5.788  20.280  0.00  0.00    +0.000 C 
ATOM     22  C   UNL     1       4.066   5.185  19.222  0.00  0.00    +0.000 C 
ATOM     23  C   UNL     1       4.390   6.189  18.108  0.00  0.00    +0.000 C 
ATOM     24  C   UNL     1       3.151   6.884  17.557  0.00  0.00    +0.000 C 
BRANCH  22  25
ATOM     25  N   UNL     1       3.629   3.890  18.714  0.00  0.00    +0.000 N 
ATOM     26  C   UNL     1       3.707   3.396  17.443  0.00  0.00    +0.000 A 
ATOM     27  C   UNL     1       3.187   2.125  17.513  0.00  0.00    +0.000 A 
ATOM     28  N   UNL     1       2.790   1.833  18.787  0.00  0.00    +0.000 NA
ATOM     29  C   UNL     1       3.066   2.909  19.489  0.00  0.00    +0.000 A 
ENDBRANCH  22  25
ENDBRANCH  16  18
ENDBRANCH   1  16
TORSDOF 5
ENDMDL
MODEL 7
REMARK VINA RESULT:      -7.3      5.130      6.899
REMARK  Name = 
REMARK  5 active torsions:
REMARK  status: ('A' for Active; 'I' for Inactive)
REMARK    1  A    between atoms: C_2  and  C_3
REMARK    2  A    between atoms: C_3  and  C_4
REMARK    3  A    between atoms: C_4  and  S_5
REMARK    4  A    between atoms: S_5  and  C_8
REMARK    5  A    between atoms: C_22  and  N_23
REMARK                            x       y       z     vdW  Elec       q    Type
REMARK                         _______ _______ _______ _____ _____    ______ ____
ROOT
ATOM      1  C   UNL     1      -0.290   9.816  17.876  0.00  0.00    +0.000 C 
ENDROOT
BRANCH   1   2
ATOM      2  S   UNL     1       1.106  10.051  18.950  0.00  0.00    +0.000 S 
ATOM      3  O   UNL     1       1.985  11.028  18.334  0.00  0.00    +0.000 OA
ATOM      4  O   UNL     1       0.609  10.254  20.297  0.00  0.00    +0.000 OA
BRANCH   2   5
ATOM      5  C   UNL     1       1.943   8.488  18.919  0.00  0.00    +0.000 A 
ATOM      6  C   UNL     1       2.809   8.192  17.867  0.00  0.00    +0.000 A 
ATOM      7  C   UNL     1       3.412   6.935  17.814  0.00  0.00    +0.000 A 
ATOM      8  C   UNL     1       3.145   5.966  18.796  0.00  0.00    +0.000 A 
ATOM      9  C   UNL     1       3.729   4.692  18.739  0.00  0.00    +0.000 A 
ATOM     10  C   UNL     1       3.437   3.740  19.716  0.00  0.00    +0.000 A 
ATOM     11 CL   UNL     1       4.157   2.180  19.628  0.00  0.00    +0.000 Cl
ATOM     12  C   UNL     1       2.566   4.040  20.760  0.00  0.00    +0.000 A 
ATOM     13  C   UNL     1       1.979   5.304  20.830  0.00  0.00    +0.000 A 
ATOM     14  C   UNL     1       2.256   6.274  19.855  0.00  0.00    +0.000 A 
ATOM     15  C   UNL     1       1.659   7.540  19.907  0.00  0.00    +0.000 A 
ENDBRANCH   2   5
ENDBRANCH   1   2
BRANCH   1  16
ATOM     16  C   UNL     1      -1.540  10.321  18.575  0.00  0.00    +0.000 C 
BRANCH  16  18
ATOM     17  O   UNL     1      -2.770   9.761  16.610  0.00  0.00    +0.000 OA
ATOM     18  C   UNL     1      -2.710  10.443  17.631  0.00  0.00    +0.000 C 
ATOM     19  N   UNL     1      -3.703  11.350  17.993  0.00  0.00    +0.000 N 
ATOM     20  C   UNL     1      -3.609  12.282  19.119  0.00  0.00    +0.000 C 
ATOM     21  C   UNL     1      -4.904  12.310  19.920  0.00  0.00    +0.000 C 
ATOM     22  C   UNL     1      -6.154  12.490  19.049  0.00  0.00    +0.000 C 
ATOM     23  C   UNL     1      -6.149  11.546  17.840  0.00  0.00    +0.000 C 
ATOM     24  C   UNL     1      -4.827  11.558  17.083  0.00  0.00    +0.000 C 
BRANCH  22  25
ATOM     25  N   UNL     1      -6.432  13.876  18.690  0.00  0.00    +0.000 N 
ATOM     26  C   UNL     1      -6.252  15.007  19.434  0.00  0.00    +0.000 A 
ATOM     27  C   UNL     1      -6.639  16.046  18.619  0.00  0.00    +0.000 A 
ATOM     28  N   UNL     1      -7.054  15.578  17.404  0.00  0.00    +0.000 NA
ATOM     29  C   UNL     1      -6.919  14.273  17.472  0.00  0.00    +0.000 A 
ENDBRANCH  22  25
ENDBRANCH  16  18
ENDBRANCH   1  16
TORSDOF 5
ENDMDL
MODEL 8
REMARK VINA RESULT:      -7.3      4.119      6.417
REMARK  Name = 
REMARK  5 active torsions:
REMARK  status: ('A' for Active; 'I' for Inactive)
REMARK    1  A    between atoms: C_2  and  C_3
REMARK    2  A    between atoms: C_3  and  C_4
REMARK    3  A    between atoms: C_4  and  S_5
REMARK    4  A    between atoms: S_5  and  C_8
REMARK    5  A    between atoms: C_22  and  N_23
REMARK                            x       y       z     vdW  Elec       q    Type
REMARK                         _______ _______ _______ _____ _____    ______ ____
ROOT
ATOM      1  C   UNL     1       1.308  10.510  19.735  0.00  0.00    +0.000 C 
ENDROOT
BRANCH   1   2
ATOM      2  S   UNL     1       0.919   9.231  20.905  0.00  0.00    +0.000 S 
ATOM      3  O   UNL     1       1.647   9.507  22.130  0.00  0.00    +0.000 OA
ATOM      4  O   UNL     1      -0.521   9.063  20.927  0.00  0.00    +0.000 OA
BRANCH   2   5
ATOM      5  C   UNL     1       1.616   7.765  20.191  0.00  0.00    +0.000 A 
ATOM      6  C   UNL     1       2.251   7.838  18.952  0.00  0.00    +0.000 A 
ATOM      7  C   UNL     1       2.737   6.669  18.365  0.00  0.00    +0.000 A 
ATOM      8  C   UNL     1       2.580   5.425  19.000  0.00  0.00    +0.000 A 
ATOM      9  C   UNL     1       3.046   4.242  18.409  0.00  0.00    +0.000 A 
ATOM     10  C   UNL     1       2.865   3.016  19.050  0.00  0.00    +0.000 A 
ATOM     11 CL   UNL     1       3.436   1.573  18.307  0.00  0.00    +0.000 Cl
ATOM     12  C   UNL     1       2.224   2.950  20.283  0.00  0.00    +0.000 A 
ATOM     13  C   UNL     1       1.757   4.119  20.885  0.00  0.00    +0.000 A 
ATOM     14  C   UNL     1       1.925   5.361  20.255  0.00  0.00    +0.000 A 
ATOM     15  C   UNL     1       1.445   6.539  20.842  0.00  0.00    +0.000 A 
ENDBRANCH   2   5
ENDBRANCH   1   2
BRANCH   1  16
ATOM     16  C   UNL     1       0.167  11.511  19.702  0.00  0.00    +0.000 C 
BRANCH  16  18
ATOM     17  O   UNL     1       1.125  12.733  21.514  0.00  0.00    +0.000 OA
ATOM     18  C   UNL     1       0.099  12.339  20.962  0.00  0.00    +0.000 C 
ATOM     19  N   UNL     1      -1.175  12.631  21.441  0.00  0.00    +0.000 N 
ATOM     20  C   UNL     1      -2.416  12.069  20.902  0.00  0.00    +0.000 C 
ATOM     21  C   UNL     1      -3.484  13.143  20.745  0.00  0.00    +0.000 C 
ATOM     22  C   UNL     1      -3.670  14.004  22.001  0.00  0.00    +0.000 C 
ATOM     23  C   UNL     1      -2.329  14.489  22.565  0.00  0.00    +0.000 C 
ATOM     24  C   UNL     1      -1.300  13.372  22.693  0.00  0.00    +0.000 C 
BRANCH  22  25
ATOM     25  N   UNL     1      -4.530  13.400  23.012  0.00  0.00    +0.000 N 
ATOM     26  C   UNL     1      -5.888  13.471  23.136  0.00  0.00    +0.000 A 
ATOM     27  C   UNL     1      -6.195  12.701  24.235  0.00  0.00    +0.000 A 
ATOM     28  N   UNL     1      -5.063  12.170  24.785  0.00  0.00    +0.000 NA
ATOM     29  C   UNL     1      -4.077  12.604  24.032  0.00  0.00    +0.000 A 
ENDBRANCH  22  25
ENDBRANCH  16  18
ENDBRANCH   1  16
TORSDOF 5
ENDMDL
MODEL 9
REMARK VINA RESULT:      -7.2      4.146      6.435
REMARK  Name = 
REMARK  5 active torsions:
REMARK  status: ('A' for Active; 'I' for Inactive)
REMARK    1  A    between atoms: C_2  and  C_3
REMARK    2  A    between atoms: C_3  and  C_4
REMARK    3  A    between atoms: C_4  and  S_5
REMARK    4  A    between atoms: S_5  and  C_8
REMARK    5  A    between atoms: C_22  and  N_23
REMARK                            x       y       z     vdW  Elec       q    Type
REMARK                         _______ _______ _______ _____ _____    ______ ____
ROOT
ATOM      1  C   UNL     1       1.410  11.274  19.303  0.00  0.00    +0.000 C 
ENDROOT
BRANCH   1   2
ATOM      2  S   UNL     1       0.762  10.005  20.364  0.00  0.00    +0.000 S 
ATOM      3  O   UNL     1       1.257  10.249  21.707  0.00  0.00    +0.000 OA
ATOM      4  O   UNL     1      -0.662   9.892  20.114  0.00  0.00    +0.000 OA
BRANCH   2   5
ATOM      5  C   UNL     1       1.528   8.518  19.777  0.00  0.00    +0.000 A 
ATOM      6  C   UNL     1       2.055   8.478  18.487  0.00  0.00    +0.000 A 
ATOM      7  C   UNL     1       2.595   7.284  18.007  0.00  0.00    +0.000 A 
ATOM      8  C   UNL     1       2.598   6.125  18.802  0.00  0.00    +0.000 A 
ATOM      9  C   UNL     1       3.119   4.914  18.321  0.00  0.00    +0.000 A 
ATOM     10  C   UNL     1       3.097   3.773  19.121  0.00  0.00    +0.000 A 
ATOM     11 CL   UNL     1       3.733   2.294  18.513  0.00  0.00    +0.000 Cl
ATOM     12  C   UNL     1       2.562   3.817  20.405  0.00  0.00    +0.000 A 
ATOM     13  C   UNL     1       2.042   5.015  20.898  0.00  0.00    +0.000 A 
ATOM     14  C   UNL     1       2.051   6.174  20.108  0.00  0.00    +0.000 A 
ATOM     15  C   UNL     1       1.517   7.377  20.586  0.00  0.00    +0.000 A 
ENDBRANCH   2   5
ENDBRANCH   1   2
BRANCH   1  16
ATOM     16  C   UNL     1       1.089  12.631  19.904  0.00  0.00    +0.000 C 
BRANCH  16  18
ATOM     17  O   UNL     1      -0.774  13.162  18.512  0.00  0.00    +0.000 OA
ATOM     18  C   UNL     1      -0.343  13.039  19.657  0.00  0.00    +0.000 C 
ATOM     19  N   UNL     1      -1.128  13.250  20.787  0.00  0.00    +0.000 N 
ATOM     20  C   UNL     1      -0.625  13.254  22.162  0.00  0.00    +0.000 C 
ATOM     21  C   UNL     1      -1.542  12.466  23.088  0.00  0.00    +0.000 C 
ATOM     22  C   UNL     1      -3.021  12.852  22.952  0.00  0.00    +0.000 C 
ATOM     23  C   UNL     1      -3.463  12.914  21.484  0.00  0.00    +0.000 C 
ATOM     24  C   UNL     1      -2.503  13.711  20.609  0.00  0.00    +0.000 C 
BRANCH  22  25
ATOM     25  N   UNL     1      -3.396  14.039  23.712  0.00  0.00    +0.000 N 
ATOM     26  C   UNL     1      -2.690  14.697  24.678  0.00  0.00    +0.000 A 
ATOM     27  C   UNL     1      -3.478  15.764  25.043  0.00  0.00    +0.000 A 
ATOM     28  N   UNL     1      -4.645  15.770  24.332  0.00  0.00    +0.000 NA
ATOM     29  C   UNL     1      -4.570  14.725  23.539  0.00  0.00    +0.000 A 
ENDBRANCH  22  25
ENDBRANCH  16  18
ENDBRANCH   1  16
TORSDOF 5
ENDMDL
