MODEL 1
REMARK VINA RESULT:      -8.1      0.000      0.000
REMARK  Name = 
REMARK  9 active torsions:
REMARK  status: ('A' for Active; 'I' for Inactive)
REMARK    1  A    between atoms: C_1  and  O_2
REMARK    2  A    between atoms: O_2  and  C_3
REMARK    3  A    between atoms: C_8  and  O_9
REMARK    4  A    between atoms: O_9  and  C_10
REMARK    5  A    between atoms: N_21  and  C_22
REMARK    6  A    between atoms: C_22  and  C_23
REMARK    7  A    between atoms: C_23  and  C_24
REMARK    8  A    between atoms: C_24  and  N_25
REMARK    9  A    between atoms: N_28  and  C_29
REMARK                            x       y       z     vdW  Elec       q    Type
REMARK                         _______ _______ _______ _____ _____    ______ ____
ROOT
ATOM      1  C   UNL     1       3.276   6.386  18.041  0.00  0.00    +0.000 A 
ATOM      2  C   UNL     1       2.566   7.492  17.556  0.00  0.00    +0.000 A 
ATOM      3  C   UNL     1       1.774   8.297  18.399  0.00  0.00    +0.000 A 
ATOM      4  C   UNL     1       1.593   7.954  19.733  0.00  0.00    +0.000 A 
ATOM      5  C   UNL     1       2.232   6.782  20.178  0.00  0.00    +0.000 A 
ATOM      6  C   UNL     1       3.068   5.997  19.363  0.00  0.00    +0.000 A 
ATOM      7  C   UNL     1       0.788   8.836  20.603  0.00  0.00    +0.000 A 
ATOM      8  C   UNL     1       0.526   8.470  21.935  0.00  0.00    +0.000 A 
ATOM      9  C   UNL     1      -0.231   9.261  22.785  0.00  0.00    +0.000 A 
ATOM     10  C   UNL     1      -0.671  10.505  22.366  0.00  0.00    +0.000 A 
ATOM     11  C   UNL     1      -1.442  11.267  23.265  0.00  0.00    +0.000 A 
ATOM     12  C   UNL     1      -1.853  12.511  22.877  0.00  0.00    +0.000 A 
ATOM     13  C   UNL     1      -1.441  13.055  21.690  0.00  0.00    +0.000 A 
ATOM     14  C   UNL     1      -0.651  12.346  20.811  0.00  0.00    +0.000 A 
ATOM     15  C   UNL     1      -0.350  10.980  21.055  0.00  0.00    +0.000 A 
ATOM     16  C   UNL     1       0.257  10.069  20.102  0.00  0.00    +0.000 A 
ATOM     17  N   UNL     1       0.279  10.312  18.713  0.00  0.00    +0.000 N 
ATOM     18  C   UNL     1       1.137   9.523  17.819  0.00  0.00    +0.000 C 
ATOM     19  O   UNL     1      -1.938  14.307  21.497  0.00  0.00    +0.000 OA
ATOM     20  C   UNL     1      -2.864  14.388  22.600  0.00  0.00    +0.000 C 
ATOM     21  O   UNL     1      -2.676  13.338  23.571  0.00  0.00    +0.000 OA
ENDROOT
BRANCH   1  23
ATOM     22  C   UNL     1       4.787   6.478  16.229  0.00  0.00    +0.000 C 
ATOM     23  O   UNL     1       4.143   5.696  17.239  0.00  0.00    +0.000 OA
ENDBRANCH   1  23
BRANCH   6  24
ATOM     24  O   UNL     1       3.590   4.942  20.060  0.00  0.00    +0.000 OA
ATOM     25  C   UNL     1       2.959   3.676  20.002  0.00  0.00    +0.000 C 
ENDBRANCH   6  24
BRANCH  17  26
ATOM     26  C   UNL     1      -0.714  11.185  18.051  0.00  0.00    +0.000 C 
BRANCH  26  27
ATOM     27  C   UNL     1      -2.025  10.483  17.689  0.00  0.00    +0.000 C 
BRANCH  27  28
ATOM     28  C   UNL     1      -3.166  11.495  17.525  0.00  0.00    +0.000 C 
BRANCH  28  29
ATOM     29  N   UNL     1      -4.272  11.262  18.467  0.00  0.00    +0.000 NA
ATOM     30  C   UNL     1      -5.525  10.984  17.731  0.00  0.00    +0.000 C 
ATOM     31  C   UNL     1      -6.741  10.790  18.670  0.00  0.00    +0.000 C 
ATOM     32  N   UNL     1      -6.964  11.880  19.640  0.00  0.00    +0.000 NA
ATOM     33  C   UNL     1      -7.511  13.073  18.998  0.00  0.00    +0.000 C 
ATOM     34  C   UNL     1      -5.694  12.173  20.329  0.00  0.00    +0.000 C 
ATOM     35  C   UNL     1      -4.482  12.390  19.394  0.00  0.00    +0.000 C 
ENDBRANCH  28  29
ENDBRANCH  27  28
ENDBRANCH  26  27
ENDBRANCH  17  26
TORSDOF 6
ENDMDL
MODEL 2
REMARK VINA RESULT:      -8.1      0.813      1.158
REMARK  Name = 
REMARK  9 active torsions:
REMARK  status: ('A' for Active; 'I' for Inactive)
REMARK    1  A    between atoms: C_1  and  O_2
REMARK    2  A    between atoms: O_2  and  C_3
REMARK    3  A    between atoms: C_8  and  O_9
REMARK    4  A    between atoms: O_9  and  C_10
REMARK    5  A    between atoms: N_21  and  C_22
REMARK    6  A    between atoms: C_22  and  C_23
REMARK    7  A    between atoms: C_23  and  C_24
REMARK    8  A    between atoms: C_24  and  N_25
REMARK    9  A    between atoms: N_28  and  C_29
REMARK                            x       y       z     vdW  Elec       q    Type
REMARK                         _______ _______ _______ _____ _____    ______ ____
ROOT
ATOM      1  C   UNL     1       3.089   6.891  18.222  0.00  0.00    +0.000 A 
ATOM      2  C   UNL     1       2.516   8.090  17.780  0.00  0.00    +0.000 A 
ATOM      3  C   UNL     1       1.709   8.884  18.620  0.00  0.00    +0.000 A 
ATOM      4  C   UNL     1       1.374   8.445  19.895  0.00  0.00    +0.000 A 
ATOM      5  C   UNL     1       1.877   7.190  20.284  0.00  0.00    +0.000 A 
ATOM      6  C   UNL     1       2.725   6.409  19.478  0.00  0.00    +0.000 A 
ATOM      7  C   UNL     1       0.558   9.314  20.767  0.00  0.00    +0.000 A 
ATOM      8  C   UNL     1       0.142   8.859  22.031  0.00  0.00    +0.000 A 
ATOM      9  C   UNL     1      -0.631   9.635  22.880  0.00  0.00    +0.000 A 
ATOM     10  C   UNL     1      -0.932  10.943  22.541  0.00  0.00    +0.000 A 
ATOM     11  C   UNL     1      -1.727  11.689  23.435  0.00  0.00    +0.000 A 
ATOM     12  C   UNL     1      -2.002  12.991  23.129  0.00  0.00    +0.000 A 
ATOM     13  C   UNL     1      -1.438  13.598  22.038  0.00  0.00    +0.000 A 
ATOM     14  C   UNL     1      -0.623  12.903  21.172  0.00  0.00    +0.000 A 
ATOM     15  C   UNL     1      -0.451  11.500  21.313  0.00  0.00    +0.000 A 
ATOM     16  C   UNL     1       0.174  10.626  20.339  0.00  0.00    +0.000 A 
ATOM     17  N   UNL     1       0.348  10.984  18.986  0.00  0.00    +0.000 N 
ATOM     18  C   UNL     1       1.227  10.205  18.102  0.00  0.00    +0.000 C 
ATOM     19  O   UNL     1      -1.817  14.899  21.919  0.00  0.00    +0.000 OA
ATOM     20  C   UNL     1      -2.836  14.964  22.938  0.00  0.00    +0.000 C 
ATOM     21  O   UNL     1      -2.824  13.822  23.819  0.00  0.00    +0.000 OA
ENDROOT
BRANCH   1  23
ATOM     22  C   UNL     1       5.151   6.927  17.072  0.00  0.00    +0.000 C 
ATOM     23  O   UNL     1       3.975   6.201  17.440  0.00  0.00    +0.000 OA
ENDBRANCH   1  23
BRANCH   6  24
ATOM     24  O   UNL     1       3.096   5.258  20.118  0.00  0.00    +0.000 OA
ATOM     25  C   UNL     1       2.225   4.664  21.063  0.00  0.00    +0.000 C 
ENDBRANCH   6  24
BRANCH  17  26
ATOM     26  C   UNL     1      -0.507  11.992  18.321  0.00  0.00    +0.000 C 
BRANCH  26  27
ATOM     27  C   UNL     1      -1.659  11.398  17.508  0.00  0.00    +0.000 C 
BRANCH  27  28
ATOM     28  C   UNL     1      -2.773  10.878  18.426  0.00  0.00    +0.000 C 
BRANCH  28  29
ATOM     29  N   UNL     1      -3.980  11.717  18.386  0.00  0.00    +0.000 NA
ATOM     30  C   UNL     1      -4.192  12.376  19.693  0.00  0.00    +0.000 C 
ATOM     31  C   UNL     1      -5.484  13.228  19.733  0.00  0.00    +0.000 C 
ATOM     32  N   UNL     1      -6.715  12.519  19.327  0.00  0.00    +0.000 NA
ATOM     33  C   UNL     1      -7.167  11.585  20.356  0.00  0.00    +0.000 C 
ATOM     34  C   UNL     1      -6.468  11.831  18.047  0.00  0.00    +0.000 C 
ATOM     35  C   UNL     1      -5.190  10.962  18.010  0.00  0.00    +0.000 C 
ENDBRANCH  28  29
ENDBRANCH  27  28
ENDBRANCH  26  27
ENDBRANCH  17  26
TORSDOF 6
ENDMDL
MODEL 3
REMARK VINA RESULT:      -7.5      2.999      4.588
REMARK  Name = 
REMARK  9 active torsions:
REMARK  status: ('A' for Active; 'I' for Inactive)
REMARK    1  A    between atoms: C_1  and  O_2
REMARK    2  A    between atoms: O_2  and  C_3
REMARK    3  A    between atoms: C_8  and  O_9
REMARK    4  A    between atoms: O_9  and  C_10
REMARK    5  A    between atoms: N_21  and  C_22
REMARK    6  A    between atoms: C_22  and  C_23
REMARK    7  A    between atoms: C_23  and  C_24
REMARK    8  A    between atoms: C_24  and  N_25
REMARK    9  A    between atoms: N_28  and  C_29
REMARK                            x       y       z     vdW  Elec       q    Type
REMARK                         _______ _______ _______ _____ _____    ______ ____
ROOT
ATOM      1  C   UNL     1       3.231   6.422  18.210  0.00  0.00    +0.000 A 
ATOM      2  C   UNL     1       2.880   7.726  17.836  0.00  0.00    +0.000 A 
ATOM      3  C   UNL     1       2.091   8.551  18.662  0.00  0.00    +0.000 A 
ATOM      4  C   UNL     1       1.550   8.054  19.843  0.00  0.00    +0.000 A 
ATOM      5  C   UNL     1       1.831   6.711  20.151  0.00  0.00    +0.000 A 
ATOM      6  C   UNL     1       2.658   5.890  19.364  0.00  0.00    +0.000 A 
ATOM      7  C   UNL     1       0.758   8.952  20.708  0.00  0.00    +0.000 A 
ATOM      8  C   UNL     1       0.136   8.453  21.866  0.00  0.00    +0.000 A 
ATOM      9  C   UNL     1      -0.623   9.255  22.703  0.00  0.00    +0.000 A 
ATOM     10  C   UNL     1      -0.705  10.617  22.471  0.00  0.00    +0.000 A 
ATOM     11  C   UNL     1      -1.495  11.388  23.347  0.00  0.00    +0.000 A 
ATOM     12  C   UNL     1      -1.556  12.738  23.150  0.00  0.00    +0.000 A 
ATOM     13  C   UNL     1      -0.790  13.351  22.194  0.00  0.00    +0.000 A 
ATOM     14  C   UNL     1       0.024  12.624  21.352  0.00  0.00    +0.000 A 
ATOM     15  C   UNL     1      -0.011  11.204  21.366  0.00  0.00    +0.000 A 
ATOM     16  C   UNL     1       0.605  10.338  20.378  0.00  0.00    +0.000 A 
ATOM     17  N   UNL     1       0.987  10.785  19.096  0.00  0.00    +0.000 N 
ATOM     18  C   UNL     1       1.854   9.967  18.236  0.00  0.00    +0.000 C 
ATOM     19  O   UNL     1      -0.976  14.698  22.170  0.00  0.00    +0.000 OA
ATOM     20  C   UNL     1      -2.092  14.819  23.076  0.00  0.00    +0.000 C 
ATOM     21  O   UNL     1      -2.337  13.615  23.831  0.00  0.00    +0.000 OA
ENDROOT
BRANCH   1  23
ATOM     22  C   UNL     1       5.460   5.700  17.917  0.00  0.00    +0.000 C 
ATOM     23  O   UNL     1       4.105   5.684  17.460  0.00  0.00    +0.000 OA
ENDBRANCH   1  23
BRANCH   6  24
ATOM     24  O   UNL     1       2.793   4.646  19.917  0.00  0.00    +0.000 OA
ATOM     25  C   UNL     1       2.206   4.365  21.173  0.00  0.00    +0.000 C 
ENDBRANCH   6  24
BRANCH  17  26
ATOM     26  C   UNL     1       0.359  11.959  18.451  0.00  0.00    +0.000 C 
BRANCH  26  27
ATOM     27  C   UNL     1       1.357  12.994  17.928  0.00  0.00    +0.000 C 
BRANCH  27  28
ATOM     28  C   UNL     1       2.490  13.227  18.935  0.00  0.00    +0.000 C 
BRANCH  28  29
ATOM     29  N   UNL     1       2.838  14.649  19.080  0.00  0.00    +0.000 NA
ATOM     30  C   UNL     1       1.672  15.417  19.567  0.00  0.00    +0.000 C 
ATOM     31  C   UNL     1       1.960  16.935  19.682  0.00  0.00    +0.000 C 
ATOM     32  N   UNL     1       2.495  17.566  18.459  0.00  0.00    +0.000 NA
ATOM     33  C   UNL     1       1.464  17.726  17.436  0.00  0.00    +0.000 C 
ATOM     34  C   UNL     1       3.625  16.759  17.963  0.00  0.00    +0.000 C 
ATOM     35  C   UNL     1       3.336  15.247  17.826  0.00  0.00    +0.000 C 
ENDBRANCH  28  29
ENDBRANCH  27  28
ENDBRANCH  26  27
ENDBRANCH  17  26
TORSDOF 6
ENDMDL
MODEL 4
REMARK VINA RESULT:      -7.4      3.094      5.159
REMARK  Name = 
REMARK  9 active torsions:
REMARK  status: ('A' for Active; 'I' for Inactive)
REMARK    1  A    between atoms: C_1  and  O_2
REMARK    2  A    between atoms: O_2  and  C_3
REMARK    3  A    between atoms: C_8  and  O_9
REMARK    4  A    between atoms: O_9  and  C_10
REMARK    5  A    between atoms: N_21  and  C_22
REMARK    6  A    between atoms: C_22  and  C_23
REMARK    7  A    between atoms: C_23  and  C_24
REMARK    8  A    between atoms: C_24  and  N_25
REMARK    9  A    between atoms: N_28  and  C_29
REMARK                            x       y       z     vdW  Elec       q    Type
REMARK                         _______ _______ _______ _____ _____    ______ ____
ROOT
ATOM      1  C   UNL     1       3.250   6.460  18.218  0.00  0.00    +0.000 A 
ATOM      2  C   UNL     1       2.944   7.776  17.847  0.00  0.00    +0.000 A 
ATOM      3  C   UNL     1       2.172   8.621  18.670  0.00  0.00    +0.000 A 
ATOM      4  C   UNL     1       1.602   8.134  19.841  0.00  0.00    +0.000 A 
ATOM      5  C   UNL     1       1.837   6.781  20.144  0.00  0.00    +0.000 A 
ATOM      6  C   UNL     1       2.647   5.939  19.361  0.00  0.00    +0.000 A 
ATOM      7  C   UNL     1       0.829   9.051  20.702  0.00  0.00    +0.000 A 
ATOM      8  C   UNL     1       0.178   8.566  21.850  0.00  0.00    +0.000 A 
ATOM      9  C   UNL     1      -0.566   9.386  22.683  0.00  0.00    +0.000 A 
ATOM     10  C   UNL     1      -0.601  10.752  22.459  0.00  0.00    +0.000 A 
ATOM     11  C   UNL     1      -1.376  11.542  23.331  0.00  0.00    +0.000 A 
ATOM     12  C   UNL     1      -1.392  12.894  23.142  0.00  0.00    +0.000 A 
ATOM     13  C   UNL     1      -0.595  13.488  22.200  0.00  0.00    +0.000 A 
ATOM     14  C   UNL     1       0.205  12.741  21.362  0.00  0.00    +0.000 A 
ATOM     15  C   UNL     1       0.124  11.323  21.366  0.00  0.00    +0.000 A 
ATOM     16  C   UNL     1       0.725  10.444  20.380  0.00  0.00    +0.000 A 
ATOM     17  N   UNL     1       1.135  10.886  19.105  0.00  0.00    +0.000 N 
ATOM     18  C   UNL     1       1.986  10.047  18.250  0.00  0.00    +0.000 C 
ATOM     19  O   UNL     1      -0.738  14.841  22.183  0.00  0.00    +0.000 OA
ATOM     20  C   UNL     1      -1.861  14.992  23.076  0.00  0.00    +0.000 C 
ATOM     21  O   UNL     1      -2.153  13.791  23.820  0.00  0.00    +0.000 OA
ENDROOT
BRANCH   1  23
ATOM     22  C   UNL     1       5.497   5.924  17.730  0.00  0.00    +0.000 C 
ATOM     23  O   UNL     1       4.108   5.698  17.473  0.00  0.00    +0.000 OA
ENDBRANCH   1  23
BRANCH   6  24
ATOM     24  O   UNL     1       2.735   4.688  19.907  0.00  0.00    +0.000 OA
ATOM     25  C   UNL     1       1.605   4.109  20.532  0.00  0.00    +0.000 C 
ENDBRANCH   6  24
BRANCH  17  26
ATOM     26  C   UNL     1       0.553  12.083  18.461  0.00  0.00    +0.000 C 
BRANCH  26  27
ATOM     27  C   UNL     1       1.585  13.125  18.025  0.00  0.00    +0.000 C 
BRANCH  27  28
ATOM     28  C   UNL     1       1.275  14.499  18.635  0.00  0.00    +0.000 C 
BRANCH  28  29
ATOM     29  N   UNL     1       2.473  15.173  19.155  0.00  0.00    +0.000 NA
ATOM     30  C   UNL     1       3.128  15.959  18.087  0.00  0.00    +0.000 C 
ATOM     31  C   UNL     1       4.433  16.645  18.560  0.00  0.00    +0.000 C 
ATOM     32  N   UNL     1       5.419  15.747  19.192  0.00  0.00    +0.000 NA
ATOM     33  C   UNL     1       6.091  14.900  18.208  0.00  0.00    +0.000 C 
ATOM     34  C   UNL     1       4.738  14.940  20.221  0.00  0.00    +0.000 C 
ATOM     35  C   UNL     1       3.447  14.235  19.746  0.00  0.00    +0.000 C 
ENDBRANCH  28  29
ENDBRANCH  27  28
ENDBRANCH  26  27
ENDBRANCH  17  26
TORSDOF 6
ENDMDL
MODEL 5
REMARK VINA RESULT:      -7.4      0.987      1.345
REMARK  Name = 
REMARK  9 active torsions:
REMARK  status: ('A' for Active; 'I' for Inactive)
REMARK    1  A    between atoms: C_1  and  O_2
REMARK    2  A    between atoms: O_2  and  C_3
REMARK    3  A    between atoms: C_8  and  O_9
REMARK    4  A    between atoms: O_9  and  C_10
REMARK    5  A    between atoms: N_21  and  C_22
REMARK    6  A    between atoms: C_22  and  C_23
REMARK    7  A    between atoms: C_23  and  C_24
REMARK    8  A    between atoms: C_24  and  N_25
REMARK    9  A    between atoms: N_28  and  C_29
REMARK                            x       y       z     vdW  Elec       q    Type
REMARK                         _______ _______ _______ _____ _____    ______ ____
ROOT
ATOM      1  C   UNL     1       3.080   5.713  18.804  0.00  0.00    +0.000 A 
ATOM      2  C   UNL     1       2.547   6.844  18.171  0.00  0.00    +0.000 A 
ATOM      3  C   UNL     1       1.819   7.820  18.880  0.00  0.00    +0.000 A 
ATOM      4  C   UNL     1       1.520   7.636  20.225  0.00  0.00    +0.000 A 
ATOM      5  C   UNL     1       1.977   6.446  20.818  0.00  0.00    +0.000 A 
ATOM      6  C   UNL     1       2.749   5.486  20.139  0.00  0.00    +0.000 A 
ATOM      7  C   UNL     1       0.787   8.693  20.952  0.00  0.00    +0.000 A 
ATOM      8  C   UNL     1       0.406   8.497  22.291  0.00  0.00    +0.000 A 
ATOM      9  C   UNL     1      -0.290   9.456  23.011  0.00  0.00    +0.000 A 
ATOM     10  C   UNL     1      -0.542  10.696  22.450  0.00  0.00    +0.000 A 
ATOM     11  C   UNL     1      -1.258  11.633  23.221  0.00  0.00    +0.000 A 
ATOM     12  C   UNL     1      -1.483  12.873  22.692  0.00  0.00    +0.000 A 
ATOM     13  C   UNL     1      -0.938  13.241  21.491  0.00  0.00    +0.000 A 
ATOM     14  C   UNL     1      -0.197  12.356  20.737  0.00  0.00    +0.000 A 
ATOM     15  C   UNL     1      -0.089  10.994  21.126  0.00  0.00    +0.000 A 
ATOM     16  C   UNL     1       0.449   9.926  20.305  0.00  0.00    +0.000 A 
ATOM     17  N   UNL     1       0.580  10.025  18.904  0.00  0.00    +0.000 N 
ATOM     18  C   UNL     1       1.379   9.051  18.148  0.00  0.00    +0.000 C 
ATOM     19  O   UNL     1      -1.258  14.519  21.150  0.00  0.00    +0.000 OA
ATOM     20  C   UNL     1      -2.226  14.823  22.175  0.00  0.00    +0.000 C 
ATOM     21  O   UNL     1      -2.231  13.859  23.248  0.00  0.00    +0.000 OA
ENDROOT
BRANCH   1  23
ATOM     22  C   UNL     1       3.225   3.751  17.497  0.00  0.00    +0.000 C 
ATOM     23  O   UNL     1       3.895   4.845  18.130  0.00  0.00    +0.000 OA
ENDBRANCH   1  23
BRANCH   6  24
ATOM     24  O   UNL     1       3.091   4.450  20.964  0.00  0.00    +0.000 OA
ATOM     25  C   UNL     1       2.191   3.375  21.156  0.00  0.00    +0.000 C 
ENDBRANCH   6  24
BRANCH  17  26
ATOM     26  C   UNL     1      -0.253  10.942  18.098  0.00  0.00    +0.000 C 
BRANCH  26  27
ATOM     27  C   UNL     1      -1.747  10.614  18.119  0.00  0.00    +0.000 C 
BRANCH  27  28
ATOM     28  C   UNL     1      -2.496  11.380  17.019  0.00  0.00    +0.000 C 
BRANCH  28  29
ATOM     29  N   UNL     1      -3.757  11.968  17.495  0.00  0.00    +0.000 NA
ATOM     30  C   UNL     1      -3.919  11.735  18.946  0.00  0.00    +0.000 C 
ATOM     31  C   UNL     1      -5.260  12.280  19.495  0.00  0.00    +0.000 C 
ATOM     32  N   UNL     1      -6.465  11.816  18.780  0.00  0.00    +0.000 NA
ATOM     33  C   UNL     1      -6.777  10.422  19.091  0.00  0.00    +0.000 C 
ATOM     34  C   UNL     1      -6.266  12.012  17.333  0.00  0.00    +0.000 C 
ATOM     35  C   UNL     1      -4.938  11.450  16.776  0.00  0.00    +0.000 C 
ENDBRANCH  28  29
ENDBRANCH  27  28
ENDBRANCH  26  27
ENDBRANCH  17  26
TORSDOF 6
ENDMDL
MODEL 6
REMARK VINA RESULT:      -7.4      1.226      1.399
REMARK  Name = 
REMARK  9 active torsions:
REMARK  status: ('A' for Active; 'I' for Inactive)
REMARK    1  A    between atoms: C_1  and  O_2
REMARK    2  A    between atoms: O_2  and  C_3
REMARK    3  A    between atoms: C_8  and  O_9
REMARK    4  A    between atoms: O_9  and  C_10
REMARK    5  A    between atoms: N_21  and  C_22
REMARK    6  A    between atoms: C_22  and  C_23
REMARK    7  A    between atoms: C_23  and  C_24
REMARK    8  A    between atoms: C_24  and  N_25
REMARK    9  A    between atoms: N_28  and  C_29
REMARK                            x       y       z     vdW  Elec       q    Type
REMARK                         _______ _______ _______ _____ _____    ______ ____
ROOT
ATOM      1  C   UNL     1       2.620   6.665  18.802  0.00  0.00    +0.000 A 
ATOM      2  C   UNL     1       2.373   7.949  18.299  0.00  0.00    +0.000 A 
ATOM      3  C   UNL     1       1.685   8.923  19.050  0.00  0.00    +0.000 A 
ATOM      4  C   UNL     1       1.139   8.602  20.287  0.00  0.00    +0.000 A 
ATOM      5  C   UNL     1       1.311   7.279  20.730  0.00  0.00    +0.000 A 
ATOM      6  C   UNL     1       2.039   6.309  20.017  0.00  0.00    +0.000 A 
ATOM      7  C   UNL     1       0.456   9.653  21.069  0.00  0.00    +0.000 A 
ATOM      8  C   UNL     1      -0.171   9.335  22.287  0.00  0.00    +0.000 A 
ATOM      9  C   UNL     1      -0.831  10.285  23.050  0.00  0.00    +0.000 A 
ATOM     10  C   UNL     1      -0.801  11.618  22.676  0.00  0.00    +0.000 A 
ATOM     11  C   UNL     1      -1.492  12.543  23.482  0.00  0.00    +0.000 A 
ATOM     12  C   UNL     1      -1.441  13.866  23.144  0.00  0.00    +0.000 A 
ATOM     13  C   UNL     1      -0.653  14.304  22.113  0.00  0.00    +0.000 A 
ATOM     14  C   UNL     1       0.067  13.423  21.336  0.00  0.00    +0.000 A 
ATOM     15  C   UNL     1      -0.092  12.021  21.500  0.00  0.00    +0.000 A 
ATOM     16  C   UNL     1       0.416  11.006  20.598  0.00  0.00    +0.000 A 
ATOM     17  N   UNL     1       0.795  11.281  19.267  0.00  0.00    +0.000 N 
ATOM     18  C   UNL     1       1.560  10.303  18.480  0.00  0.00    +0.000 C 
ATOM     19  O   UNL     1      -0.721  15.653  21.951  0.00  0.00    +0.000 OA
ATOM     20  C   UNL     1      -1.794  15.968  22.862  0.00  0.00    +0.000 C 
ATOM     21  O   UNL     1      -2.121  14.875  23.745  0.00  0.00    +0.000 OA
ENDROOT
BRANCH   1  23
ATOM     22  C   UNL     1       4.783   5.769  18.491  0.00  0.00    +0.000 C 
ATOM     23  O   UNL     1       3.402   5.776  18.116  0.00  0.00    +0.000 OA
ENDBRANCH   1  23
BRANCH   6  24
ATOM     24  O   UNL     1       2.081   5.122  20.696  0.00  0.00    +0.000 OA
ATOM     25  C   UNL     1       1.087   4.141  20.464  0.00  0.00    +0.000 C 
ENDBRANCH   6  24
BRANCH  17  26
ATOM     26  C   UNL     1       0.254  12.433  18.515  0.00  0.00    +0.000 C 
BRANCH  26  27
ATOM     27  C   UNL     1      -1.262  12.603  18.635  0.00  0.00    +0.000 C 
BRANCH  27  28
ATOM     28  C   UNL     1      -2.004  11.526  17.831  0.00  0.00    +0.000 C 
BRANCH  28  29
ATOM     29  N   UNL     1      -3.385  11.324  18.292  0.00  0.00    +0.000 NA
ATOM     30  C   UNL     1      -4.331  11.473  17.165  0.00  0.00    +0.000 C 
ATOM     31  C   UNL     1      -5.810  11.330  17.601  0.00  0.00    +0.000 C 
ATOM     32  N   UNL     1      -6.223  12.206  18.715  0.00  0.00    +0.000 NA
ATOM     33  C   UNL     1      -6.367  13.596  18.287  0.00  0.00    +0.000 C 
ATOM     34  C   UNL     1      -5.242  12.079  19.809  0.00  0.00    +0.000 C 
ATOM     35  C   UNL     1      -3.766  12.243  19.382  0.00  0.00    +0.000 C 
ENDBRANCH  28  29
ENDBRANCH  27  28
ENDBRANCH  26  27
ENDBRANCH  17  26
TORSDOF 6
ENDMDL
MODEL 7
REMARK VINA RESULT:      -7.3      3.201      4.925
REMARK  Name = 
REMARK  9 active torsions:
REMARK  status: ('A' for Active; 'I' for Inactive)
REMARK    1  A    between atoms: C_1  and  O_2
REMARK    2  A    between atoms: O_2  and  C_3
REMARK    3  A    between atoms: C_8  and  O_9
REMARK    4  A    between atoms: O_9  and  C_10
REMARK    5  A    between atoms: N_21  and  C_22
REMARK    6  A    between atoms: C_22  and  C_23
REMARK    7  A    between atoms: C_23  and  C_24
REMARK    8  A    between atoms: C_24  and  N_25
REMARK    9  A    between atoms: N_28  and  C_29
REMARK                            x       y       z     vdW  Elec       q    Type
REMARK                         _______ _______ _______ _____ _____    ______ ____
ROOT
ATOM      1  C   UNL     1       2.892   6.101  18.966  0.00  0.00    +0.000 A 
ATOM      2  C   UNL     1       2.702   7.391  18.453  0.00  0.00    +0.000 A 
ATOM      3  C   UNL     1       1.978   8.374  19.157  0.00  0.00    +0.000 A 
ATOM      4  C   UNL     1       1.340   8.057  20.351  0.00  0.00    +0.000 A 
ATOM      5  C   UNL     1       1.457   6.729  20.798  0.00  0.00    +0.000 A 
ATOM      6  C   UNL     1       2.219   5.750  20.134  0.00  0.00    +0.000 A 
ATOM      7  C   UNL     1       0.619   9.116  21.087  0.00  0.00    +0.000 A 
ATOM      8  C   UNL     1      -0.099   8.804  22.255  0.00  0.00    +0.000 A 
ATOM      9  C   UNL     1      -0.797   9.761  22.973  0.00  0.00    +0.000 A 
ATOM     10  C   UNL     1      -0.718  11.095  22.609  0.00  0.00    +0.000 A 
ATOM     11  C   UNL     1      -1.451  12.028  23.369  0.00  0.00    +0.000 A 
ATOM     12  C   UNL     1      -1.354  13.351  23.042  0.00  0.00    +0.000 A 
ATOM     13  C   UNL     1      -0.487  13.781  22.072  0.00  0.00    +0.000 A 
ATOM     14  C   UNL     1       0.273  12.891  21.344  0.00  0.00    +0.000 A 
ATOM     15  C   UNL     1       0.080  11.491  21.490  0.00  0.00    +0.000 A 
ATOM     16  C   UNL     1       0.635  10.471  20.621  0.00  0.00    +0.000 A 
ATOM     17  N   UNL     1       1.113  10.745  19.322  0.00  0.00    +0.000 N 
ATOM     18  C   UNL     1       1.917   9.758  18.588  0.00  0.00    +0.000 C 
ATOM     19  O   UNL     1      -0.521  15.131  21.912  0.00  0.00    +0.000 OA
ATOM     20  C   UNL     1      -1.651  15.460  22.745  0.00  0.00    +0.000 C 
ATOM     21  O   UNL     1      -2.058  14.370  23.598  0.00  0.00    +0.000 OA
ENDROOT
BRANCH   1  23
ATOM     22  C   UNL     1       5.062   5.187  18.791  0.00  0.00    +0.000 C 
ATOM     23  O   UNL     1       3.707   5.202  18.333  0.00  0.00    +0.000 OA
ENDBRANCH   1  23
BRANCH   6  24
ATOM     24  O   UNL     1       2.193   4.560  20.808  0.00  0.00    +0.000 OA
ATOM     25  C   UNL     1       1.143   3.640  20.575  0.00  0.00    +0.000 C 
ENDBRANCH   6  24
BRANCH  17  26
ATOM     26  C   UNL     1       0.646  11.909  18.540  0.00  0.00    +0.000 C 
BRANCH  26  27
ATOM     27  C   UNL     1       1.771  12.741  17.921  0.00  0.00    +0.000 C 
BRANCH  27  28
ATOM     28  C   UNL     1       2.695  13.313  19.005  0.00  0.00    +0.000 C 
BRANCH  28  29
ATOM     29  N   UNL     1       3.057  14.717  18.761  0.00  0.00    +0.000 NA
ATOM     30  C   UNL     1       4.038  15.179  19.767  0.00  0.00    +0.000 C 
ATOM     31  C   UNL     1       4.413  16.671  19.598  0.00  0.00    +0.000 C 
ATOM     32  N   UNL     1       3.269  17.604  19.554  0.00  0.00    +0.000 NA
ATOM     33  C   UNL     1       2.670  17.790  20.874  0.00  0.00    +0.000 C 
ATOM     34  C   UNL     1       2.282  17.102  18.581  0.00  0.00    +0.000 C 
ATOM     35  C   UNL     1       1.888  15.618  18.760  0.00  0.00    +0.000 C 
ENDBRANCH  28  29
ENDBRANCH  27  28
ENDBRANCH  26  27
ENDBRANCH  17  26
TORSDOF 6
ENDMDL
MODEL 8
REMARK VINA RESULT:      -7.3      3.095      4.901
REMARK  Name = 
REMARK  9 active torsions:
REMARK  status: ('A' for Active; 'I' for Inactive)
REMARK    1  A    between atoms: C_1  and  O_2
REMARK    2  A    between atoms: O_2  and  C_3
REMARK    3  A    between atoms: C_8  and  O_9
REMARK    4  A    between atoms: O_9  and  C_10
REMARK    5  A    between atoms: N_21  and  C_22
REMARK    6  A    between atoms: C_22  and  C_23
REMARK    7  A    between atoms: C_23  and  C_24
REMARK    8  A    between atoms: C_24  and  N_25
REMARK    9  A    between atoms: N_28  and  C_29
REMARK                            x       y       z     vdW  Elec       q    Type
REMARK                         _______ _______ _______ _____ _____    ______ ____
ROOT
ATOM      1  C   UNL     1       3.258   6.596  18.170  0.00  0.00    +0.000 A 
ATOM      2  C   UNL     1       2.946   7.916  17.821  0.00  0.00    +0.000 A 
ATOM      3  C   UNL     1       2.165   8.742  18.655  0.00  0.00    +0.000 A 
ATOM      4  C   UNL     1       1.594   8.231  19.815  0.00  0.00    +0.000 A 
ATOM      5  C   UNL     1       1.836   6.874  20.096  0.00  0.00    +0.000 A 
ATOM      6  C   UNL     1       2.655   6.051  19.302  0.00  0.00    +0.000 A 
ATOM      7  C   UNL     1       0.811   9.128  20.690  0.00  0.00    +0.000 A 
ATOM      8  C   UNL     1       0.159   8.619  21.826  0.00  0.00    +0.000 A 
ATOM      9  C   UNL     1      -0.593   9.420  22.670  0.00  0.00    +0.000 A 
ATOM     10  C   UNL     1      -0.637  10.789  22.470  0.00  0.00    +0.000 A 
ATOM     11  C   UNL     1      -1.420  11.558  23.352  0.00  0.00    +0.000 A 
ATOM     12  C   UNL     1      -1.444  12.914  23.186  0.00  0.00    +0.000 A 
ATOM     13  C   UNL     1      -0.648  13.529  22.258  0.00  0.00    +0.000 A 
ATOM     14  C   UNL     1       0.160  12.802  21.411  0.00  0.00    +0.000 A 
ATOM     15  C   UNL     1       0.089  11.383  21.390  0.00  0.00    +0.000 A 
ATOM     16  C   UNL     1       0.699  10.525  20.391  0.00  0.00    +0.000 A 
ATOM     17  N   UNL     1       1.112  10.992  19.126  0.00  0.00    +0.000 N 
ATOM     18  C   UNL     1       1.971  10.173  18.259  0.00  0.00    +0.000 C 
ATOM     19  O   UNL     1      -0.799  14.881  22.263  0.00  0.00    +0.000 OA
ATOM     20  C   UNL     1      -1.926  15.009  23.155  0.00  0.00    +0.000 C 
ATOM     21  O   UNL     1      -2.213  13.794  23.877  0.00  0.00    +0.000 OA
ENDROOT
BRANCH   1  23
ATOM     22  C   UNL     1       5.495   5.923  17.821  0.00  0.00    +0.000 C 
ATOM     23  O   UNL     1       4.125   5.853  17.416  0.00  0.00    +0.000 OA
ENDBRANCH   1  23
BRANCH   6  24
ATOM     24  O   UNL     1       2.749   4.792  19.826  0.00  0.00    +0.000 OA
ATOM     25  C   UNL     1       1.789   4.344  20.765  0.00  0.00    +0.000 C 
ENDBRANCH   6  24
BRANCH  17  26
ATOM     26  C   UNL     1       0.524  12.197  18.500  0.00  0.00    +0.000 C 
BRANCH  26  27
ATOM     27  C   UNL     1       1.550  13.259  18.100  0.00  0.00    +0.000 C 
BRANCH  27  28
ATOM     28  C   UNL     1       1.192  14.626  18.697  0.00  0.00    +0.000 C 
BRANCH  28  29
ATOM     29  N   UNL     1       2.363  15.335  19.234  0.00  0.00    +0.000 NA
ATOM     30  C   UNL     1       3.438  14.376  19.568  0.00  0.00    +0.000 C 
ATOM     31  C   UNL     1       4.678  15.059  20.196  0.00  0.00    +0.000 C 
ATOM     32  N   UNL     1       4.396  15.918  21.364  0.00  0.00    +0.000 NA
ATOM     33  C   UNL     1       4.090  15.129  22.556  0.00  0.00    +0.000 C 
ATOM     34  C   UNL     1       3.291  16.834  21.027  0.00  0.00    +0.000 C 
ATOM     35  C   UNL     1       2.043  16.153  20.420  0.00  0.00    +0.000 C 
ENDBRANCH  28  29
ENDBRANCH  27  28
ENDBRANCH  26  27
ENDBRANCH  17  26
TORSDOF 6
ENDMDL
MODEL 9
REMARK VINA RESULT:      -7.2      3.253      5.134
REMARK  Name = 
REMARK  9 active torsions:
REMARK  status: ('A' for Active; 'I' for Inactive)
REMARK    1  A    between atoms: C_1  and  O_2
REMARK    2  A    between atoms: O_2  and  C_3
REMARK    3  A    between atoms: C_8  and  O_9
REMARK    4  A    between atoms: O_9  and  C_10
REMARK    5  A    between atoms: N_21  and  C_22
REMARK    6  A    between atoms: C_22  and  C_23
REMARK    7  A    between atoms: C_23  and  C_24
REMARK    8  A    between atoms: C_24  and  N_25
REMARK    9  A    between atoms: N_28  and  C_29
REMARK                            x       y       z     vdW  Elec       q    Type
REMARK                         _______ _______ _______ _____ _____    ______ ____
ROOT
ATOM      1  C   UNL     1       3.294   5.446  18.685  0.00  0.00    +0.000 A 
ATOM      2  C   UNL     1       3.109   6.748  18.200  0.00  0.00    +0.000 A 
ATOM      3  C   UNL     1       2.358   7.707  18.909  0.00  0.00    +0.000 A 
ATOM      4  C   UNL     1       1.690   7.356  20.076  0.00  0.00    +0.000 A 
ATOM      5  C   UNL     1       1.805   6.017  20.493  0.00  0.00    +0.000 A 
ATOM      6  C   UNL     1       2.592   5.061  19.826  0.00  0.00    +0.000 A 
ATOM      7  C   UNL     1       0.941   8.390  20.818  0.00  0.00    +0.000 A 
ATOM      8  C   UNL     1       0.194   8.044  21.957  0.00  0.00    +0.000 A 
ATOM      9  C   UNL     1      -0.531   8.978  22.680  0.00  0.00    +0.000 A 
ATOM     10  C   UNL     1      -0.452  10.321  22.352  0.00  0.00    +0.000 A 
ATOM     11  C   UNL     1      -1.213  11.230  23.114  0.00  0.00    +0.000 A 
ATOM     12  C   UNL     1      -1.117  12.561  22.824  0.00  0.00    +0.000 A 
ATOM     13  C   UNL     1      -0.227  13.021  21.890  0.00  0.00    +0.000 A 
ATOM     14  C   UNL     1       0.560  12.155  21.161  0.00  0.00    +0.000 A 
ATOM     15  C   UNL     1       0.373  10.751  21.266  0.00  0.00    +0.000 A 
ATOM     16  C   UNL     1       0.959   9.757  20.387  0.00  0.00    +0.000 A 
ATOM     17  N   UNL     1       1.471  10.067  19.109  0.00  0.00    +0.000 N 
ATOM     18  C   UNL     1       2.302   9.105  18.373  0.00  0.00    +0.000 C 
ATOM     19  O   UNL     1      -0.267  14.375  21.763  0.00  0.00    +0.000 OA
ATOM     20  C   UNL     1      -1.422  14.675  22.572  0.00  0.00    +0.000 C 
ATOM     21  O   UNL     1      -1.844  13.560  23.385  0.00  0.00    +0.000 OA
ENDROOT
BRANCH   1  23
ATOM     22  C   UNL     1       3.503   3.704  17.105  0.00  0.00    +0.000 C 
ATOM     23  O   UNL     1       4.133   4.570  18.053  0.00  0.00    +0.000 OA
ENDBRANCH   1  23
BRANCH   6  24
ATOM     24  O   UNL     1       2.556   3.854  20.468  0.00  0.00    +0.000 OA
ATOM     25  C   UNL     1       1.312   3.258  20.782  0.00  0.00    +0.000 C 
ENDBRANCH   6  24
BRANCH  17  26
ATOM     26  C   UNL     1       1.017  11.247  18.343  0.00  0.00    +0.000 C 
BRANCH  26  27
ATOM     27  C   UNL     1       2.131  12.239  18.000  0.00  0.00    +0.000 C 
BRANCH  27  28
ATOM     28  C   UNL     1       1.754  13.663  18.431  0.00  0.00    +0.000 C 
BRANCH  28  29
ATOM     29  N   UNL     1       2.737  14.666  17.995  0.00  0.00    +0.000 NA
ATOM     30  C   UNL     1       4.042  14.427  18.648  0.00  0.00    +0.000 C 
ATOM     31  C   UNL     1       5.104  15.490  18.274  0.00  0.00    +0.000 C 
ATOM     32  N   UNL     1       4.691  16.891  18.488  0.00  0.00    +0.000 NA
ATOM     33  C   UNL     1       4.678  17.242  19.907  0.00  0.00    +0.000 C 
ATOM     34  C   UNL     1       3.368  17.097  17.871  0.00  0.00    +0.000 C 
ATOM     35  C   UNL     1       2.298  16.050  18.259  0.00  0.00    +0.000 C 
ENDBRANCH  28  29
ENDBRANCH  27  28
ENDBRANCH  26  27
ENDBRANCH  17  26
TORSDOF 6
ENDMDL
