MODEL 1
REMARK VINA RESULT:      -9.0      0.000      0.000
REMARK  Name = 
REMARK  9 active torsions:
REMARK  status: ('A' for Active; 'I' for Inactive)
REMARK    1  A    between atoms: C_1  and  C_2
REMARK    2  A    between atoms: C_2  and  O_3
REMARK    3  A    between atoms: O_3  and  C_4
REMARK    4  A    between atoms: C_4  and  C_6
REMARK    5  A    between atoms: C_9  and  N_10
REMARK    6  A    between atoms: N_10  and  C_11
REMARK    7  A    between atoms: C_20  and  N_21
REMARK    8  A    between atoms: N_21  and  S_22
REMARK    9  A    between atoms: S_22  and  C_25
REMARK                            x       y       z     vdW  Elec       q    Type
REMARK                         _______ _______ _______ _____ _____    ______ ____
ROOT
ATOM      1  C   UNL     1       2.723   6.118  19.483  0.00  0.00    +0.000 A 
ATOM      2  N   UNL     1       1.875   5.190  19.004  0.00  0.00    +0.000 NA
ATOM      3  C   UNL     1       2.419   3.962  18.816  0.00  0.00    +0.000 A 
ATOM      4  C   UNL     1       2.146   3.170  17.712  0.00  0.00    +0.000 A 
ATOM      5  C   UNL     1       2.820   1.962  17.512  0.00  0.00    +0.000 A 
ATOM      6  C   UNL     1       3.547   1.422  18.567  0.00  0.00    +0.000 A 
ATOM      7  C   UNL     1       3.838   2.237  19.652  0.00  0.00    +0.000 A 
ATOM      8  C   UNL     1       3.547   3.590  19.534  0.00  0.00    +0.000 A 
ATOM      9  N   UNL     1       4.442   4.572  19.790  0.00  0.00    +0.000 NA
ATOM     10  C   UNL     1       4.082   5.817  19.380  0.00  0.00    +0.000 A 
ENDROOT
BRANCH   1  11
ATOM     11  N   UNL     1       2.364   7.275  20.207  0.00  0.00    +0.000 N 
ATOM     12  H   UNL     1       2.739   7.263  21.154  0.00  0.00    +0.000 HD
BRANCH  11  16
ATOM     13  C   UNL     1      -0.195  10.456  19.113  0.00  0.00    +0.000 A 
ATOM     14  C   UNL     1      -0.202   9.952  20.419  0.00  0.00    +0.000 A 
ATOM     15  C   UNL     1       0.716   8.946  20.779  0.00  0.00    +0.000 A 
ATOM     16  C   UNL     1       1.633   8.415  19.854  0.00  0.00    +0.000 A 
ATOM     17  C   UNL     1       1.649   8.960  18.568  0.00  0.00    +0.000 A 
ATOM     18  C   UNL     1       0.755   9.982  18.209  0.00  0.00    +0.000 A 
BRANCH  13  19
ATOM     19  C   UNL     1      -1.143  11.481  18.630  0.00  0.00    +0.000 C 
ATOM     20  O   UNL     1      -0.816  12.615  18.293  0.00  0.00    +0.000 OA
BRANCH  19  21
ATOM     21  O   UNL     1      -2.417  10.988  18.530  0.00  0.00    +0.000 OA
BRANCH  21  23
ATOM     22  C   UNL     1      -2.581   9.961  16.322  0.00  0.00    +0.000 C 
ATOM     23  C   UNL     1      -3.009  11.097  17.234  0.00  0.00    +0.000 C 
ENDBRANCH  21  23
ENDBRANCH  19  21
ENDBRANCH  13  19
ENDBRANCH  11  16
ENDBRANCH   1  11
BRANCH  10  24
ATOM     24  N   UNL     1       4.609   6.004  18.035  0.00  0.00    +0.000 N 
ATOM     25  H   UNL     1       4.331   6.908  17.639  0.00  0.00    +0.000 HD
BRANCH  24  26
ATOM     26  S   UNL     1       6.288   5.872  17.816  0.00  0.00    +0.000 S 
ATOM     27  O   UNL     1       6.800   7.211  17.647  0.00  0.00    +0.000 OA
ATOM     28  O   UNL     1       6.841   4.925  18.741  0.00  0.00    +0.000 OA
BRANCH  26  29
ATOM     29  C   UNL     1       6.272   5.098  16.214  0.00  0.00    +0.000 A 
ATOM     30  C   UNL     1       7.310   5.348  15.309  0.00  0.00    +0.000 A 
ATOM     31  C   UNL     1       7.257   4.771  14.041  0.00  0.00    +0.000 A 
ATOM     32  C   UNL     1       6.184   3.947  13.696  0.00  0.00    +0.000 A 
ATOM     33 CL   UNL     1       6.124   3.237  12.132  0.00  0.00    +0.000 Cl
ATOM     34  C   UNL     1       5.160   3.689  14.609  0.00  0.00    +0.000 A 
ATOM     35  C   UNL     1       5.202   4.260  15.874  0.00  0.00    +0.000 A 
ENDBRANCH  26  29
ENDBRANCH  24  26
ENDBRANCH  10  24
TORSDOF 8
ENDMDL
MODEL 2
REMARK VINA RESULT:      -8.6      0.756      1.566
REMARK  Name = 
REMARK  9 active torsions:
REMARK  status: ('A' for Active; 'I' for Inactive)
REMARK    1  A    between atoms: C_1  and  C_2
REMARK    2  A    between atoms: C_2  and  O_3
REMARK    3  A    between atoms: O_3  and  C_4
REMARK    4  A    between atoms: C_4  and  C_6
REMARK    5  A    between atoms: C_9  and  N_10
REMARK    6  A    between atoms: N_10  and  C_11
REMARK    7  A    between atoms: C_20  and  N_21
REMARK    8  A    between atoms: N_21  and  S_22
REMARK    9  A    between atoms: S_22  and  C_25
REMARK                            x       y       z     vdW  Elec       q    Type
REMARK                         _______ _______ _______ _____ _____    ______ ____
ROOT
ATOM      1  C   UNL     1       2.764   6.062  19.552  0.00  0.00    +0.000 A 
ATOM      2  N   UNL     1       1.912   5.140  19.068  0.00  0.00    +0.000 NA
ATOM      3  C   UNL     1       2.458   3.921  18.837  0.00  0.00    +0.000 A 
ATOM      4  C   UNL     1       2.165   3.155  17.719  0.00  0.00    +0.000 A 
ATOM      5  C   UNL     1       2.843   1.957  17.474  0.00  0.00    +0.000 A 
ATOM      6  C   UNL     1       3.596   1.396  18.498  0.00  0.00    +0.000 A 
ATOM      7  C   UNL     1       3.906   2.184  19.597  0.00  0.00    +0.000 A 
ATOM      8  C   UNL     1       3.605   3.538  19.520  0.00  0.00    +0.000 A 
ATOM      9  N   UNL     1       4.499   4.519  19.781  0.00  0.00    +0.000 NA
ATOM     10  C   UNL     1       4.122   5.771  19.411  0.00  0.00    +0.000 A 
ENDROOT
BRANCH   1  11
ATOM     11  N   UNL     1       2.415   7.197  20.312  0.00  0.00    +0.000 N 
ATOM     12  H   UNL     1       2.840   7.180  21.238  0.00  0.00    +0.000 HD
BRANCH  11  16
ATOM     13  C   UNL     1      -0.277  10.326  19.404  0.00  0.00    +0.000 A 
ATOM     14  C   UNL     1      -0.212   9.795  20.697  0.00  0.00    +0.000 A 
ATOM     15  C   UNL     1       0.749   8.808  20.994  0.00  0.00    +0.000 A 
ATOM     16  C   UNL     1       1.637   8.323  20.018  0.00  0.00    +0.000 A 
ATOM     17  C   UNL     1       1.581   8.894  18.745  0.00  0.00    +0.000 A 
ATOM     18  C   UNL     1       0.644   9.897  18.448  0.00  0.00    +0.000 A 
BRANCH  13  19
ATOM     19  C   UNL     1      -1.274  11.333  18.986  0.00  0.00    +0.000 C 
ATOM     20  O   UNL     1      -2.313  11.066  18.391  0.00  0.00    +0.000 OA
BRANCH  19  21
ATOM     21  O   UNL     1      -0.935  12.590  19.412  0.00  0.00    +0.000 OA
BRANCH  21  23
ATOM     22  C   UNL     1       1.104  13.669  18.618  0.00  0.00    +0.000 C 
ATOM     23  C   UNL     1      -0.382  13.443  18.408  0.00  0.00    +0.000 C 
ENDBRANCH  21  23
ENDBRANCH  19  21
ENDBRANCH  13  19
ENDBRANCH  11  16
ENDBRANCH   1  11
BRANCH  10  24
ATOM     24  N   UNL     1       4.619   5.996  18.060  0.00  0.00    +0.000 N 
ATOM     25  H   UNL     1       4.337   6.914  17.699  0.00  0.00    +0.000 HD
BRANCH  24  26
ATOM     26  S   UNL     1       6.291   5.861  17.797  0.00  0.00    +0.000 S 
ATOM     27  O   UNL     1       6.808   7.202  17.656  0.00  0.00    +0.000 OA
ATOM     28  O   UNL     1       6.860   4.884  18.680  0.00  0.00    +0.000 OA
BRANCH  26  29
ATOM     29  C   UNL     1       6.232   5.136  16.173  0.00  0.00    +0.000 A 
ATOM     30  C   UNL     1       5.144   4.336  15.807  0.00  0.00    +0.000 A 
ATOM     31  C   UNL     1       5.137   3.736  14.548  0.00  0.00    +0.000 A 
ATOM     32  C   UNL     1       6.202   3.950  13.670  0.00  0.00    +0.000 A 
ATOM     33 CL   UNL     1       6.189   3.210  12.119  0.00  0.00    +0.000 Cl
ATOM     34  C   UNL     1       7.277   4.762  14.037  0.00  0.00    +0.000 A 
ATOM     35  C   UNL     1       7.294   5.362  15.289  0.00  0.00    +0.000 A 
ENDBRANCH  26  29
ENDBRANCH  24  26
ENDBRANCH  10  24
TORSDOF 8
ENDMDL
MODEL 3
REMARK VINA RESULT:      -8.6      1.758      2.335
REMARK  Name = 
REMARK  9 active torsions:
REMARK  status: ('A' for Active; 'I' for Inactive)
REMARK    1  A    between atoms: C_1  and  C_2
REMARK    2  A    between atoms: C_2  and  O_3
REMARK    3  A    between atoms: O_3  and  C_4
REMARK    4  A    between atoms: C_4  and  C_6
REMARK    5  A    between atoms: C_9  and  N_10
REMARK    6  A    between atoms: N_10  and  C_11
REMARK    7  A    between atoms: C_20  and  N_21
REMARK    8  A    between atoms: N_21  and  S_22
REMARK    9  A    between atoms: S_22  and  C_25
REMARK                            x       y       z     vdW  Elec       q    Type
REMARK                         _______ _______ _______ _____ _____    ______ ____
ROOT
ATOM      1  C   UNL     1       2.773   6.264  18.323  0.00  0.00    +0.000 A 
ATOM      2  N   UNL     1       1.822   5.378  17.974  0.00  0.00    +0.000 NA
ATOM      3  C   UNL     1       1.721   4.298  18.787  0.00  0.00    +0.000 A 
ATOM      4  C   UNL     1       1.520   3.009  18.319  0.00  0.00    +0.000 A 
ATOM      5  C   UNL     1       1.537   1.918  19.193  0.00  0.00    +0.000 A 
ATOM      6  C   UNL     1       1.464   2.158  20.560  0.00  0.00    +0.000 A 
ATOM      7  C   UNL     1       1.698   3.448  21.016  0.00  0.00    +0.000 A 
ATOM      8  C   UNL     1       2.172   4.376  20.098  0.00  0.00    +0.000 A 
ATOM      9  N   UNL     1       3.267   5.142  20.307  0.00  0.00    +0.000 NA
ATOM     10  C   UNL     1       3.740   5.802  19.217  0.00  0.00    +0.000 A 
ENDROOT
BRANCH   1  11
ATOM     11  N   UNL     1       2.791   7.636  17.994  0.00  0.00    +0.000 N 
ATOM     12  H   UNL     1       3.451   7.839  17.245  0.00  0.00    +0.000 HD
BRANCH  11  16
ATOM     13  C   UNL     1       0.973  11.100  19.594  0.00  0.00    +0.000 A 
ATOM     14  C   UNL     1       1.640  11.148  18.364  0.00  0.00    +0.000 A 
ATOM     15  C   UNL     1       2.169   9.963  17.814  0.00  0.00    +0.000 A 
ATOM     16  C   UNL     1       2.063   8.728  18.479  0.00  0.00    +0.000 A 
ATOM     17  C   UNL     1       1.360   8.696  19.685  0.00  0.00    +0.000 A 
ATOM     18  C   UNL     1       0.807   9.868  20.226  0.00  0.00    +0.000 A 
BRANCH  13  19
ATOM     19  C   UNL     1       0.421  12.292  20.269  0.00  0.00    +0.000 C 
ATOM     20  O   UNL     1      -0.092  13.239  19.680  0.00  0.00    +0.000 OA
BRANCH  19  21
ATOM     21  O   UNL     1       0.481  12.178  21.632  0.00  0.00    +0.000 OA
BRANCH  21  23
ATOM     22  C   UNL     1      -1.490  11.689  22.986  0.00  0.00    +0.000 C 
ATOM     23  C   UNL     1      -0.621  12.752  22.338  0.00  0.00    +0.000 C 
ENDBRANCH  21  23
ENDBRANCH  19  21
ENDBRANCH  13  19
ENDBRANCH  11  16
ENDBRANCH   1  11
BRANCH  10  24
ATOM     24  N   UNL     1       4.740   4.949  18.589  0.00  0.00    +0.000 N 
ATOM     25  H   UNL     1       4.349   4.423  17.800  0.00  0.00    +0.000 HD
BRANCH  24  26
ATOM     26  S   UNL     1       6.167   5.680  18.028  0.00  0.00    +0.000 S 
ATOM     27  O   UNL     1       5.902   7.094  17.913  0.00  0.00    +0.000 OA
ATOM     28  O   UNL     1       7.307   5.142  18.712  0.00  0.00    +0.000 OA
BRANCH  26  29
ATOM     29  C   UNL     1       6.168   4.999  16.384  0.00  0.00    +0.000 A 
ATOM     30  C   UNL     1       7.251   5.239  15.531  0.00  0.00    +0.000 A 
ATOM     31  C   UNL     1       7.213   4.739  14.230  0.00  0.00    +0.000 A 
ATOM     32  C   UNL     1       6.110   3.997  13.802  0.00  0.00    +0.000 A 
ATOM     33 CL   UNL     1       6.068   3.381  12.198  0.00  0.00    +0.000 Cl
ATOM     34  C   UNL     1       5.040   3.747  14.664  0.00  0.00    +0.000 A 
ATOM     35  C   UNL     1       5.067   4.243  15.960  0.00  0.00    +0.000 A 
ENDBRANCH  26  29
ENDBRANCH  24  26
ENDBRANCH  10  24
TORSDOF 8
ENDMDL
MODEL 4
REMARK VINA RESULT:      -8.6      1.178      1.342
REMARK  Name = 
REMARK  9 active torsions:
REMARK  status: ('A' for Active; 'I' for Inactive)
REMARK    1  A    between atoms: C_1  and  C_2
REMARK    2  A    between atoms: C_2  and  O_3
REMARK    3  A    between atoms: O_3  and  C_4
REMARK    4  A    between atoms: C_4  and  C_6
REMARK    5  A    between atoms: C_9  and  N_10
REMARK    6  A    between atoms: N_10  and  C_11
REMARK    7  A    between atoms: C_20  and  N_21
REMARK    8  A    between atoms: N_21  and  S_22
REMARK    9  A    between atoms: S_22  and  C_25
REMARK                            x       y       z     vdW  Elec       q    Type
REMARK                         _______ _______ _______ _____ _____    ______ ____
ROOT
ATOM      1  C   UNL     1       2.933   6.196  18.292  0.00  0.00    +0.000 A 
ATOM      2  N   UNL     1       1.978   5.343  17.878  0.00  0.00    +0.000 NA
ATOM      3  C   UNL     1       1.834   4.232  18.641  0.00  0.00    +0.000 A 
ATOM      4  C   UNL     1       1.625   2.968  18.113  0.00  0.00    +0.000 A 
ATOM      5  C   UNL     1       1.596   1.841  18.940  0.00  0.00    +0.000 A 
ATOM      6  C   UNL     1       1.486   2.025  20.313  0.00  0.00    +0.000 A 
ATOM      7  C   UNL     1       1.727   3.291  20.830  0.00  0.00    +0.000 A 
ATOM      8  C   UNL     1       2.245   4.247  19.967  0.00  0.00    +0.000 A 
ATOM      9  N   UNL     1       3.347   4.983  20.241  0.00  0.00    +0.000 NA
ATOM     10  C   UNL     1       3.864   5.679  19.195  0.00  0.00    +0.000 A 
ENDROOT
BRANCH   1  11
ATOM     11  N   UNL     1       2.984   7.580  18.022  0.00  0.00    +0.000 N 
ATOM     12  H   UNL     1       3.645   7.798  17.278  0.00  0.00    +0.000 HD
BRANCH  11  16
ATOM     13  C   UNL     1       0.514  10.640  19.568  0.00  0.00    +0.000 A 
ATOM     14  C   UNL     1       0.802   9.504  20.331  0.00  0.00    +0.000 A 
ATOM     15  C   UNL     1       1.692   8.536  19.825  0.00  0.00    +0.000 A 
ATOM     16  C   UNL     1       2.287   8.668  18.558  0.00  0.00    +0.000 A 
ATOM     17  C   UNL     1       2.016   9.829  17.830  0.00  0.00    +0.000 A 
ATOM     18  C   UNL     1       1.151  10.811  18.339  0.00  0.00    +0.000 A 
BRANCH  13  19
ATOM     19  C   UNL     1      -0.435  11.690  19.994  0.00  0.00    +0.000 C 
ATOM     20  O   UNL     1      -0.098  12.800  20.394  0.00  0.00    +0.000 OA
BRANCH  19  21
ATOM     21  O   UNL     1      -1.736  11.301  19.814  0.00  0.00    +0.000 OA
BRANCH  21  23
ATOM     22  C   UNL     1      -2.455  11.399  17.484  0.00  0.00    +0.000 C 
ATOM     23  C   UNL     1      -2.469  12.061  18.850  0.00  0.00    +0.000 C 
ENDBRANCH  21  23
ENDBRANCH  19  21
ENDBRANCH  13  19
ENDBRANCH  11  16
ENDBRANCH   1  11
BRANCH  10  24
ATOM     24  N   UNL     1       4.868   4.835  18.561  0.00  0.00    +0.000 N 
ATOM     25  H   UNL     1       4.479   4.311  17.769  0.00  0.00    +0.000 HD
BRANCH  24  26
ATOM     26  S   UNL     1       6.290   5.576  18.003  0.00  0.00    +0.000 S 
ATOM     27  O   UNL     1       6.024   6.993  17.917  0.00  0.00    +0.000 OA
ATOM     28  O   UNL     1       7.436   5.026  18.667  0.00  0.00    +0.000 OA
BRANCH  26  29
ATOM     29  C   UNL     1       6.277   4.927  16.346  0.00  0.00    +0.000 A 
ATOM     30  C   UNL     1       7.299   5.273  15.454  0.00  0.00    +0.000 A 
ATOM     31  C   UNL     1       7.248   4.795  14.146  0.00  0.00    +0.000 A 
ATOM     32  C   UNL     1       6.193   3.971  13.747  0.00  0.00    +0.000 A 
ATOM     33 CL   UNL     1       6.134   3.382  12.134  0.00  0.00    +0.000 Cl
ATOM     34  C   UNL     1       5.185   3.616  14.647  0.00  0.00    +0.000 A 
ATOM     35  C   UNL     1       5.226   4.090  15.952  0.00  0.00    +0.000 A 
ENDBRANCH  26  29
ENDBRANCH  24  26
ENDBRANCH  10  24
TORSDOF 8
ENDMDL
MODEL 5
REMARK VINA RESULT:      -8.5      0.943      1.272
REMARK  Name = 
REMARK  9 active torsions:
REMARK  status: ('A' for Active; 'I' for Inactive)
REMARK    1  A    between atoms: C_1  and  C_2
REMARK    2  A    between atoms: C_2  and  O_3
REMARK    3  A    between atoms: O_3  and  C_4
REMARK    4  A    between atoms: C_4  and  C_6
REMARK    5  A    between atoms: C_9  and  N_10
REMARK    6  A    between atoms: N_10  and  C_11
REMARK    7  A    between atoms: C_20  and  N_21
REMARK    8  A    between atoms: N_21  and  S_22
REMARK    9  A    between atoms: S_22  and  C_25
REMARK                            x       y       z     vdW  Elec       q    Type
REMARK                         _______ _______ _______ _____ _____    ______ ____
ROOT
ATOM      1  C   UNL     1       2.712   6.088  19.544  0.00  0.00    +0.000 A 
ATOM      2  N   UNL     1       1.862   5.145  19.097  0.00  0.00    +0.000 NA
ATOM      3  C   UNL     1       2.428   3.940  18.841  0.00  0.00    +0.000 A 
ATOM      4  C   UNL     1       2.106   3.166  17.736  0.00  0.00    +0.000 A 
ATOM      5  C   UNL     1       2.802   1.986  17.461  0.00  0.00    +0.000 A 
ATOM      6  C   UNL     1       3.613   1.444  18.451  0.00  0.00    +0.000 A 
ATOM      7  C   UNL     1       3.951   2.240  19.536  0.00  0.00    +0.000 A 
ATOM      8  C   UNL     1       3.613   3.586  19.473  0.00  0.00    +0.000 A 
ATOM      9  N   UNL     1       4.492   4.589  19.696  0.00  0.00    +0.000 NA
ATOM     10  C   UNL     1       4.069   5.832  19.344  0.00  0.00    +0.000 A 
ENDROOT
BRANCH   1  11
ATOM     11  N   UNL     1       2.367   7.215  20.320  0.00  0.00    +0.000 N 
ATOM     12  H   UNL     1       2.761   7.165  21.258  0.00  0.00    +0.000 HD
BRANCH  11  16
ATOM     13  C   UNL     1      -0.217  10.440  19.438  0.00  0.00    +0.000 A 
ATOM     14  C   UNL     1      -0.123   9.938  20.740  0.00  0.00    +0.000 A 
ATOM     15  C   UNL     1       0.803   8.915  21.025  0.00  0.00    +0.000 A 
ATOM     16  C   UNL     1       1.629   8.367  20.027  0.00  0.00    +0.000 A 
ATOM     17  C   UNL     1       1.548   8.911  18.743  0.00  0.00    +0.000 A 
ATOM     18  C   UNL     1       0.646   9.948  18.458  0.00  0.00    +0.000 A 
BRANCH  13  19
ATOM     19  C   UNL     1      -1.183  11.482  19.033  0.00  0.00    +0.000 C 
ATOM     20  O   UNL     1      -1.596  11.629  17.887  0.00  0.00    +0.000 OA
BRANCH  19  21
ATOM     21  O   UNL     1      -1.622  12.212  20.106  0.00  0.00    +0.000 OA
BRANCH  21  23
ATOM     22  C   UNL     1      -3.570  12.800  21.453  0.00  0.00    +0.000 C 
ATOM     23  C   UNL     1      -3.000  12.587  20.062  0.00  0.00    +0.000 C 
ENDBRANCH  21  23
ENDBRANCH  19  21
ENDBRANCH  13  19
ENDBRANCH  11  16
ENDBRANCH   1  11
BRANCH  10  24
ATOM     24  N   UNL     1       4.500   6.068  17.972  0.00  0.00    +0.000 N 
ATOM     25  H   UNL     1       4.089   6.925  17.587  0.00  0.00    +0.000 HD
BRANCH  24  26
ATOM     26  S   UNL     1       6.169   6.150  17.669  0.00  0.00    +0.000 S 
ATOM     27  O   UNL     1       6.481   7.530  17.380  0.00  0.00    +0.000 OA
ATOM     28  O   UNL     1       6.891   5.360  18.624  0.00  0.00    +0.000 OA
BRANCH  26  29
ATOM     29  C   UNL     1       6.188   5.261  16.127  0.00  0.00    +0.000 A 
ATOM     30  C   UNL     1       7.214   5.489  15.204  0.00  0.00    +0.000 A 
ATOM     31  C   UNL     1       7.187   4.821  13.981  0.00  0.00    +0.000 A 
ATOM     32  C   UNL     1       6.151   3.928  13.700  0.00  0.00    +0.000 A 
ATOM     33 CL   UNL     1       6.122   3.104  12.192  0.00  0.00    +0.000 Cl
ATOM     34  C   UNL     1       5.139   3.692  14.633  0.00  0.00    +0.000 A 
ATOM     35  C   UNL     1       5.156   4.355  15.853  0.00  0.00    +0.000 A 
ENDBRANCH  26  29
ENDBRANCH  24  26
ENDBRANCH  10  24
TORSDOF 8
ENDMDL
MODEL 6
REMARK VINA RESULT:      -8.5      1.390      1.851
REMARK  Name = 
REMARK  9 active torsions:
REMARK  status: ('A' for Active; 'I' for Inactive)
REMARK    1  A    between atoms: C_1  and  C_2
REMARK    2  A    between atoms: C_2  and  O_3
REMARK    3  A    between atoms: O_3  and  C_4
REMARK    4  A    between atoms: C_4  and  C_6
REMARK    5  A    between atoms: C_9  and  N_10
REMARK    6  A    between atoms: N_10  and  C_11
REMARK    7  A    between atoms: C_20  and  N_21
REMARK    8  A    between atoms: N_21  and  S_22
REMARK    9  A    between atoms: S_22  and  C_25
REMARK                            x       y       z     vdW  Elec       q    Type
REMARK                         _______ _______ _______ _____ _____    ______ ____
ROOT
ATOM      1  C   UNL     1       2.729   6.310  18.394  0.00  0.00    +0.000 A 
ATOM      2  N   UNL     1       1.750   5.454  18.051  0.00  0.00    +0.000 NA
ATOM      3  C   UNL     1       1.681   4.331  18.807  0.00  0.00    +0.000 A 
ATOM      4  C   UNL     1       1.439   3.072  18.280  0.00  0.00    +0.000 A 
ATOM      5  C   UNL     1       1.491   1.934  19.090  0.00  0.00    +0.000 A 
ATOM      6  C   UNL     1       1.497   2.098  20.470  0.00  0.00    +0.000 A 
ATOM      7  C   UNL     1       1.771   3.358  20.983  0.00  0.00    +0.000 A 
ATOM      8  C   UNL     1       2.205   4.332  20.093  0.00  0.00    +0.000 A 
ATOM      9  N   UNL     1       3.319   5.075  20.283  0.00  0.00    +0.000 NA
ATOM     10  C   UNL     1       3.739   5.791  19.206  0.00  0.00    +0.000 A 
ENDROOT
BRANCH   1  11
ATOM     11  N   UNL     1       2.745   7.698  18.141  0.00  0.00    +0.000 N 
ATOM     12  H   UNL     1       3.422   7.946  17.420  0.00  0.00    +0.000 HD
BRANCH  11  16
ATOM     13  C   UNL     1       0.868  11.085  19.834  0.00  0.00    +0.000 A 
ATOM     14  C   UNL     1       1.443  11.151  18.560  0.00  0.00    +0.000 A 
ATOM     15  C   UNL     1       1.992   9.988  17.985  0.00  0.00    +0.000 A 
ATOM     16  C   UNL     1       1.997   8.758  18.666  0.00  0.00    +0.000 A 
ATOM     17  C   UNL     1       1.384   8.706  19.920  0.00  0.00    +0.000 A 
ATOM     18  C   UNL     1       0.811   9.854  20.488  0.00  0.00    +0.000 A 
BRANCH  13  19
ATOM     19  C   UNL     1       0.304  12.257  20.536  0.00  0.00    +0.000 C 
ATOM     20  O   UNL     1       0.649  12.618  21.656  0.00  0.00    +0.000 OA
BRANCH  19  21
ATOM     21  O   UNL     1      -0.593  12.934  19.753  0.00  0.00    +0.000 OA
BRANCH  21  23
ATOM     22  C   UNL     1      -2.527  11.772  18.823  0.00  0.00    +0.000 C 
ATOM     23  C   UNL     1      -1.965  12.594  19.968  0.00  0.00    +0.000 C 
ENDBRANCH  21  23
ENDBRANCH  19  21
ENDBRANCH  13  19
ENDBRANCH  11  16
ENDBRANCH   1  11
BRANCH  10  24
ATOM     24  N   UNL     1       4.692   4.965  18.477  0.00  0.00    +0.000 N 
ATOM     25  H   UNL     1       4.267   4.535  17.648  0.00  0.00    +0.000 HD
BRANCH  24  26
ATOM     26  S   UNL     1       6.138   5.692  17.961  0.00  0.00    +0.000 S 
ATOM     27  O   UNL     1       5.879   7.106  17.828  0.00  0.00    +0.000 OA
ATOM     28  O   UNL     1       7.254   5.157  18.685  0.00  0.00    +0.000 OA
BRANCH  26  29
ATOM     29  C   UNL     1       6.193   5.002  16.321  0.00  0.00    +0.000 A 
ATOM     30  C   UNL     1       7.259   5.314  15.469  0.00  0.00    +0.000 A 
ATOM     31  C   UNL     1       7.262   4.803  14.172  0.00  0.00    +0.000 A 
ATOM     32  C   UNL     1       6.217   3.982  13.746  0.00  0.00    +0.000 A 
ATOM     33 CL   UNL     1       6.225   3.353  12.146  0.00  0.00    +0.000 Cl
ATOM     34  C   UNL     1       5.165   3.661  14.606  0.00  0.00    +0.000 A 
ATOM     35  C   UNL     1       5.151   4.166  15.899  0.00  0.00    +0.000 A 
ENDBRANCH  26  29
ENDBRANCH  24  26
ENDBRANCH  10  24
TORSDOF 8
ENDMDL
MODEL 7
REMARK VINA RESULT:      -8.5      1.250      1.873
REMARK  Name = 
REMARK  9 active torsions:
REMARK  status: ('A' for Active; 'I' for Inactive)
REMARK    1  A    between atoms: C_1  and  C_2
REMARK    2  A    between atoms: C_2  and  O_3
REMARK    3  A    between atoms: O_3  and  C_4
REMARK    4  A    between atoms: C_4  and  C_6
REMARK    5  A    between atoms: C_9  and  N_10
REMARK    6  A    between atoms: N_10  and  C_11
REMARK    7  A    between atoms: C_20  and  N_21
REMARK    8  A    between atoms: N_21  and  S_22
REMARK    9  A    between atoms: S_22  and  C_25
REMARK                            x       y       z     vdW  Elec       q    Type
REMARK                         _______ _______ _______ _____ _____    ______ ____
ROOT
ATOM      1  C   UNL     1       2.757   6.071  19.663  0.00  0.00    +0.000 A 
ATOM      2  N   UNL     1       1.874   5.159  19.215  0.00  0.00    +0.000 NA
ATOM      3  C   UNL     1       2.407   3.952  18.906  0.00  0.00    +0.000 A 
ATOM      4  C   UNL     1       2.035   3.218  17.790  0.00  0.00    +0.000 A 
ATOM      5  C   UNL     1       2.697   2.032  17.459  0.00  0.00    +0.000 A 
ATOM      6  C   UNL     1       3.527   1.445  18.407  0.00  0.00    +0.000 A 
ATOM      7  C   UNL     1       3.914   2.202  19.504  0.00  0.00    +0.000 A 
ATOM      8  C   UNL     1       3.603   3.555  19.491  0.00  0.00    +0.000 A 
ATOM      9  N   UNL     1       4.509   4.533  19.716  0.00  0.00    +0.000 NA
ATOM     10  C   UNL     1       4.102   5.794  19.413  0.00  0.00    +0.000 A 
ENDROOT
BRANCH   1  11
ATOM     11  N   UNL     1       2.460   7.181  20.482  0.00  0.00    +0.000 N 
ATOM     12  H   UNL     1       3.088   7.242  21.282  0.00  0.00    +0.000 HD
BRANCH  11  16
ATOM     13  C   UNL     1      -0.091  10.536  20.174  0.00  0.00    +0.000 A 
ATOM     14  C   UNL     1       0.620  10.077  19.059  0.00  0.00    +0.000 A 
ATOM     15  C   UNL     1       1.402   8.909  19.168  0.00  0.00    +0.000 A 
ATOM     16  C   UNL     1       1.505   8.198  20.377  0.00  0.00    +0.000 A 
ATOM     17  C   UNL     1       0.757   8.652  21.465  0.00  0.00    +0.000 A 
ATOM     18  C   UNL     1      -0.046   9.800  21.357  0.00  0.00    +0.000 A 
BRANCH  13  19
ATOM     19  C   UNL     1      -0.904  11.770  20.170  0.00  0.00    +0.000 C 
ATOM     20  O   UNL     1      -1.287  12.337  19.151  0.00  0.00    +0.000 OA
BRANCH  19  21
ATOM     21  O   UNL     1      -1.244  12.158  21.438  0.00  0.00    +0.000 OA
BRANCH  21  23
ATOM     22  C   UNL     1      -3.051  12.354  23.067  0.00  0.00    +0.000 C 
ATOM     23  C   UNL     1      -2.619  12.503  21.620  0.00  0.00    +0.000 C 
ENDBRANCH  21  23
ENDBRANCH  19  21
ENDBRANCH  13  19
ENDBRANCH  11  16
ENDBRANCH   1  11
BRANCH  10  24
ATOM     24  N   UNL     1       4.495   6.063  18.037  0.00  0.00    +0.000 N 
ATOM     25  H   UNL     1       4.052   6.913  17.673  0.00  0.00    +0.000 HD
BRANCH  24  26
ATOM     26  S   UNL     1       6.154   6.197  17.698  0.00  0.00    +0.000 S 
ATOM     27  O   UNL     1       6.414   7.583  17.390  0.00  0.00    +0.000 OA
ATOM     28  O   UNL     1       6.921   5.440  18.645  0.00  0.00    +0.000 OA
BRANCH  26  29
ATOM     29  C   UNL     1       6.171   5.294  16.164  0.00  0.00    +0.000 A 
ATOM     30  C   UNL     1       7.224   5.475  15.260  0.00  0.00    +0.000 A 
ATOM     31  C   UNL     1       7.196   4.797  14.043  0.00  0.00    +0.000 A 
ATOM     32  C   UNL     1       6.134   3.941  13.748  0.00  0.00    +0.000 A 
ATOM     33 CL   UNL     1       6.104   3.105  12.246  0.00  0.00    +0.000 Cl
ATOM     34  C   UNL     1       5.094   3.752  14.661  0.00  0.00    +0.000 A 
ATOM     35  C   UNL     1       5.111   4.425  15.876  0.00  0.00    +0.000 A 
ENDBRANCH  26  29
ENDBRANCH  24  26
ENDBRANCH  10  24
TORSDOF 8
ENDMDL
MODEL 8
REMARK VINA RESULT:      -8.4      1.609      2.007
REMARK  Name = 
REMARK  9 active torsions:
REMARK  status: ('A' for Active; 'I' for Inactive)
REMARK    1  A    between atoms: C_1  and  C_2
REMARK    2  A    between atoms: C_2  and  O_3
REMARK    3  A    between atoms: O_3  and  C_4
REMARK    4  A    between atoms: C_4  and  C_6
REMARK    5  A    between atoms: C_9  and  N_10
REMARK    6  A    between atoms: N_10  and  C_11
REMARK    7  A    between atoms: C_20  and  N_21
REMARK    8  A    between atoms: N_21  and  S_22
REMARK    9  A    between atoms: S_22  and  C_25
REMARK                            x       y       z     vdW  Elec       q    Type
REMARK                         _______ _______ _______ _____ _____    ______ ____
ROOT
ATOM      1  C   UNL     1       2.765   6.229  18.288  0.00  0.00    +0.000 A 
ATOM      2  N   UNL     1       1.802   5.348  17.960  0.00  0.00    +0.000 NA
ATOM      3  C   UNL     1       1.707   4.273  18.780  0.00  0.00    +0.000 A 
ATOM      4  C   UNL     1       1.489   2.983  18.322  0.00  0.00    +0.000 A 
ATOM      5  C   UNL     1       1.512   1.897  19.203  0.00  0.00    +0.000 A 
ATOM      6  C   UNL     1       1.462   2.145  20.569  0.00  0.00    +0.000 A 
ATOM      7  C   UNL     1       1.712   3.436  21.014  0.00  0.00    +0.000 A 
ATOM      8  C   UNL     1       2.178   4.356  20.083  0.00  0.00    +0.000 A 
ATOM      9  N   UNL     1       3.282   5.114  20.271  0.00  0.00    +0.000 NA
ATOM     10  C   UNL     1       3.743   5.765  19.170  0.00  0.00    +0.000 A 
ENDROOT
BRANCH   1  11
ATOM     11  N   UNL     1       2.787   7.599  17.951  0.00  0.00    +0.000 N 
ATOM     12  H   UNL     1       3.331   7.774  17.107  0.00  0.00    +0.000 HD
BRANCH  11  16
ATOM     13  C   UNL     1       0.594  10.806  19.612  0.00  0.00    +0.000 A 
ATOM     14  C   UNL     1       0.723   9.597  20.305  0.00  0.00    +0.000 A 
ATOM     15  C   UNL     1       1.525   8.571  19.766  0.00  0.00    +0.000 A 
ATOM     16  C   UNL     1       2.188   8.720  18.535  0.00  0.00    +0.000 A 
ATOM     17  C   UNL     1       2.078   9.949  17.881  0.00  0.00    +0.000 A 
ATOM     18  C   UNL     1       1.302  10.985  18.424  0.00  0.00    +0.000 A 
BRANCH  13  19
ATOM     19  C   UNL     1      -0.255  11.924  20.075  0.00  0.00    +0.000 C 
ATOM     20  O   UNL     1      -1.307  11.779  20.689  0.00  0.00    +0.000 OA
BRANCH  19  21
ATOM     21  O   UNL     1       0.314  13.140  19.804  0.00  0.00    +0.000 OA
BRANCH  21  23
ATOM     22  C   UNL     1       0.168  15.392  18.877  0.00  0.00    +0.000 C 
ATOM     23  C   UNL     1      -0.541  14.077  19.147  0.00  0.00    +0.000 C 
ENDBRANCH  21  23
ENDBRANCH  19  21
ENDBRANCH  13  19
ENDBRANCH  11  16
ENDBRANCH   1  11
BRANCH  10  24
ATOM     24  N   UNL     1       4.726   4.901  18.531  0.00  0.00    +0.000 N 
ATOM     25  H   UNL     1       4.333   4.413  17.719  0.00  0.00    +0.000 HD
BRANCH  24  26
ATOM     26  S   UNL     1       6.184   5.604  18.017  0.00  0.00    +0.000 S 
ATOM     27  O   UNL     1       5.959   7.027  17.922  0.00  0.00    +0.000 OA
ATOM     28  O   UNL     1       7.294   5.025  18.717  0.00  0.00    +0.000 OA
BRANCH  26  29
ATOM     29  C   UNL     1       6.206   4.953  16.361  0.00  0.00    +0.000 A 
ATOM     30  C   UNL     1       7.294   5.220  15.522  0.00  0.00    +0.000 A 
ATOM     31  C   UNL     1       7.273   4.743  14.212  0.00  0.00    +0.000 A 
ATOM     32  C   UNL     1       6.181   3.999  13.761  0.00  0.00    +0.000 A 
ATOM     33 CL   UNL     1       6.160   3.411  12.146  0.00  0.00    +0.000 Cl
ATOM     34  C   UNL     1       5.107   3.722  14.609  0.00  0.00    +0.000 A 
ATOM     35  C   UNL     1       5.117   4.194  15.914  0.00  0.00    +0.000 A 
ENDBRANCH  26  29
ENDBRANCH  24  26
ENDBRANCH  10  24
TORSDOF 8
ENDMDL
MODEL 9
REMARK VINA RESULT:      -8.3      1.631      2.278
REMARK  Name = 
REMARK  9 active torsions:
REMARK  status: ('A' for Active; 'I' for Inactive)
REMARK    1  A    between atoms: C_1  and  C_2
REMARK    2  A    between atoms: C_2  and  O_3
REMARK    3  A    between atoms: O_3  and  C_4
REMARK    4  A    between atoms: C_4  and  C_6
REMARK    5  A    between atoms: C_9  and  N_10
REMARK    6  A    between atoms: N_10  and  C_11
REMARK    7  A    between atoms: C_20  and  N_21
REMARK    8  A    between atoms: N_21  and  S_22
REMARK    9  A    between atoms: S_22  and  C_25
REMARK                            x       y       z     vdW  Elec       q    Type
REMARK                         _______ _______ _______ _____ _____    ______ ____
ROOT
ATOM      1  C   UNL     1       2.751   6.255  18.223  0.00  0.00    +0.000 A 
ATOM      2  N   UNL     1       1.832   5.333  17.880  0.00  0.00    +0.000 NA
ATOM      3  C   UNL     1       1.794   4.239  18.679  0.00  0.00    +0.000 A 
ATOM      4  C   UNL     1       1.640   2.949  18.196  0.00  0.00    +0.000 A 
ATOM      5  C   UNL     1       1.721   1.848  19.054  0.00  0.00    +0.000 A 
ATOM      6  C   UNL     1       1.665   2.066  20.425  0.00  0.00    +0.000 A 
ATOM      7  C   UNL     1       1.851   3.359  20.896  0.00  0.00    +0.000 A 
ATOM      8  C   UNL     1       2.267   4.319  19.982  0.00  0.00    +0.000 A 
ATOM      9  N   UNL     1       3.331   5.129  20.182  0.00  0.00    +0.000 NA
ATOM     10  C   UNL     1       3.754   5.824  19.093  0.00  0.00    +0.000 A 
ENDROOT
BRANCH   1  11
ATOM     11  N   UNL     1       2.702   7.631  17.914  0.00  0.00    +0.000 N 
ATOM     12  H   UNL     1       3.156   7.836  17.025  0.00  0.00    +0.000 HD
BRANCH  11  16
ATOM     13  C   UNL     1       0.593  10.748  19.835  0.00  0.00    +0.000 A 
ATOM     14  C   UNL     1       0.793   9.521  20.478  0.00  0.00    +0.000 A 
ATOM     15  C   UNL     1       1.568   8.527  19.849  0.00  0.00    +0.000 A 
ATOM     16  C   UNL     1       2.132   8.723  18.576  0.00  0.00    +0.000 A 
ATOM     17  C   UNL     1       1.952   9.969  17.970  0.00  0.00    +0.000 A 
ATOM     18  C   UNL     1       1.204  10.975  18.602  0.00  0.00    +0.000 A 
BRANCH  13  19
ATOM     19  C   UNL     1      -0.236  11.836  20.395  0.00  0.00    +0.000 C 
ATOM     20  O   UNL     1      -0.094  13.022  20.114  0.00  0.00    +0.000 OA
BRANCH  19  21
ATOM     21  O   UNL     1      -1.230  11.353  21.204  0.00  0.00    +0.000 OA
BRANCH  21  23
ATOM     22  C   UNL     1      -1.811  12.724  23.137  0.00  0.00    +0.000 C 
ATOM     23  C   UNL     1      -1.019  11.543  22.605  0.00  0.00    +0.000 C 
ENDBRANCH  21  23
ENDBRANCH  19  21
ENDBRANCH  13  19
ENDBRANCH  11  16
ENDBRANCH   1  11
BRANCH  10  24
ATOM     24  N   UNL     1       4.777   5.023  18.433  0.00  0.00    +0.000 N 
ATOM     25  H   UNL     1       4.390   4.476  17.657  0.00  0.00    +0.000 HD
BRANCH  24  26
ATOM     26  S   UNL     1       6.145   5.828  17.828  0.00  0.00    +0.000 S 
ATOM     27  O   UNL     1       5.794   7.222  17.696  0.00  0.00    +0.000 OA
ATOM     28  O   UNL     1       7.330   5.371  18.493  0.00  0.00    +0.000 OA
BRANCH  26  29
ATOM     29  C   UNL     1       6.149   5.120  16.195  0.00  0.00    +0.000 A 
ATOM     30  C   UNL     1       5.070   4.336  15.772  0.00  0.00    +0.000 A 
ATOM     31  C   UNL     1       5.113   3.749  14.508  0.00  0.00    +0.000 A 
ATOM     32  C   UNL     1       6.216   3.962  13.680  0.00  0.00    +0.000 A 
ATOM     33 CL   UNL     1       6.263   3.239  12.121  0.00  0.00    +0.000 Cl
ATOM     34  C   UNL     1       7.282   4.760  14.101  0.00  0.00    +0.000 A 
ATOM     35  C   UNL     1       7.251   5.346  15.359  0.00  0.00    +0.000 A 
ENDBRANCH  26  29
ENDBRANCH  24  26
ENDBRANCH  10  24
TORSDOF 8
ENDMDL
