MODEL 1
REMARK VINA RESULT:      -7.4      0.000      0.000
REMARK  Name = 
REMARK  10 active torsions:
REMARK  status: ('A' for Active; 'I' for Inactive)
REMARK    1  A    between atoms: C_1  and  O_2
REMARK    2  A    between atoms: O_2  and  C_3
REMARK    3  A    between atoms: C_5  and  C_6
REMARK    4  A    between atoms: C_10  and  C_11
REMARK    5  A    between atoms: C_14  and  O_15
REMARK    6  A    between atoms: C_16  and  O_17
REMARK    7  A    between atoms: O_17  and  C_18
REMARK    8  A    between atoms: C_21  and  O_22
REMARK    9  A    between atoms: O_22  and  C_23
REMARK   10  A    between atoms: C_27  and  O_28
REMARK                            x       y       z     vdW  Elec       q    Type
REMARK                         _______ _______ _______ _____ _____    ______ ____
ROOT
ATOM      1  C   UNL     1       2.453   7.869  19.300  0.00  0.00    +0.000 C 
ATOM      2  O   UNL     1       2.845   8.150  17.945  0.00  0.00    +0.000 OA
ATOM      3  C   UNL     1       2.332   9.457  17.660  0.00  0.00    +0.000 C 
ATOM      4  C   UNL     1       0.951   9.481  18.287  0.00  0.00    +0.000 C 
ATOM      5  C   UNL     1       0.572  10.800  18.944  0.00  0.00    +0.000 C 
ATOM      6  O   UNL     1       1.006  10.677  20.311  0.00  0.00    +0.000 OA
ATOM      7  C   UNL     1       0.902   9.302  20.700  0.00  0.00    +0.000 C 
ATOM      8  C   UNL     1       1.056   8.482  19.425  0.00  0.00    +0.000 C 
ENDROOT
BRANCH   1  11
ATOM      9  C   UNL     1       3.714   4.239  19.484  0.00  0.00    +0.000 A 
ATOM     10  C   UNL     1       3.570   5.592  19.127  0.00  0.00    +0.000 A 
ATOM     11  C   UNL     1       2.533   6.391  19.637  0.00  0.00    +0.000 A 
ATOM     12  C   UNL     1       1.639   5.801  20.543  0.00  0.00    +0.000 A 
ATOM     13  C   UNL     1       1.761   4.458  20.900  0.00  0.00    +0.000 A 
ATOM     14  C   UNL     1       2.792   3.678  20.375  0.00  0.00    +0.000 A 
BRANCH   9  16
ATOM     15  C   UNL     1       5.802   4.470  18.338  0.00  0.00    +0.000 C 
ATOM     16  O   UNL     1       4.790   3.638  18.888  0.00  0.00    +0.000 OA
ENDBRANCH   9  16
BRANCH  14  17
ATOM     17  O   UNL     1       2.870   2.370  20.765  0.00  0.00    +0.000 OA
ATOM     18  H   UNL     1       3.676   1.975  20.395  0.00  0.00    +0.000 HD
ENDBRANCH  14  17
ENDBRANCH   1  11
BRANCH   5  19
ATOM     19  C   UNL     1      -0.911  11.149  18.947  0.00  0.00    +0.000 A 
ATOM     20  C   UNL     1      -1.481  11.977  19.920  0.00  0.00    +0.000 A 
ATOM     21  C   UNL     1      -2.808  12.389  19.829  0.00  0.00    +0.000 A 
ATOM     22  C   UNL     1      -3.604  11.961  18.768  0.00  0.00    +0.000 A 
ATOM     23  C   UNL     1      -3.087  11.089  17.806  0.00  0.00    +0.000 A 
ATOM     24  C   UNL     1      -1.735  10.706  17.897  0.00  0.00    +0.000 A 
BRANCH  22  25
ATOM     25  O   UNL     1      -4.881  12.444  18.699  0.00  0.00    +0.000 OA
ATOM     26  H   UNL     1      -4.852  13.367  18.401  0.00  0.00    +0.000 HD
ENDBRANCH  22  25
BRANCH  23  27
ATOM     27  O   UNL     1      -3.729  10.545  16.727  0.00  0.00    +0.000 OA
ATOM     28  C   UNL     1      -3.160  10.762  15.441  0.00  0.00    +0.000 C 
ENDBRANCH  23  27
ENDBRANCH   5  19
BRANCH   7  29
ATOM     29  O   UNL     1      -0.373   8.997  21.267  0.00  0.00    +0.000 OA
ATOM     30  C   UNL     1      -0.450   9.352  22.642  0.00  0.00    +0.000 C 
ENDBRANCH   7  29
TORSDOF 7
ENDMDL
MODEL 2
REMARK VINA RESULT:      -7.2      1.334      1.931
REMARK  Name = 
REMARK  10 active torsions:
REMARK  status: ('A' for Active; 'I' for Inactive)
REMARK    1  A    between atoms: C_1  and  O_2
REMARK    2  A    between atoms: O_2  and  C_3
REMARK    3  A    between atoms: C_5  and  C_6
REMARK    4  A    between atoms: C_10  and  C_11
REMARK    5  A    between atoms: C_14  and  O_15
REMARK    6  A    between atoms: C_16  and  O_17
REMARK    7  A    between atoms: O_17  and  C_18
REMARK    8  A    between atoms: C_21  and  O_22
REMARK    9  A    between atoms: O_22  and  C_23
REMARK   10  A    between atoms: C_27  and  O_28
REMARK                            x       y       z     vdW  Elec       q    Type
REMARK                         _______ _______ _______ _____ _____    ______ ____
ROOT
ATOM      1  C   UNL     1       2.464   7.410  18.979  0.00  0.00    +0.000 C 
ATOM      2  O   UNL     1       2.934   7.977  17.744  0.00  0.00    +0.000 OA
ATOM      3  C   UNL     1       2.609   9.371  17.814  0.00  0.00    +0.000 C 
ATOM      4  C   UNL     1       1.224   9.420  18.432  0.00  0.00    +0.000 C 
ATOM      5  C   UNL     1       1.004  10.561  19.414  0.00  0.00    +0.000 C 
ATOM      6  O   UNL     1       1.374  10.027  20.699  0.00  0.00    +0.000 OA
ATOM      7  C   UNL     1       1.074   8.626  20.713  0.00  0.00    +0.000 C 
ATOM      8  C   UNL     1       1.159   8.154  19.267  0.00  0.00    +0.000 C 
ENDROOT
BRANCH   1  11
ATOM      9  C   UNL     1       1.555   3.789  19.910  0.00  0.00    +0.000 A 
ATOM     10  C   UNL     1       1.758   5.179  19.975  0.00  0.00    +0.000 A 
ATOM     11  C   UNL     1       2.336   5.898  18.915  0.00  0.00    +0.000 A 
ATOM     12  C   UNL     1       2.695   5.185  17.762  0.00  0.00    +0.000 A 
ATOM     13  C   UNL     1       2.512   3.804  17.684  0.00  0.00    +0.000 A 
ATOM     14  C   UNL     1       1.944   3.106  18.752  0.00  0.00    +0.000 A 
BRANCH   9  16
ATOM     15  C   UNL     1       1.793   2.562  21.951  0.00  0.00    +0.000 C 
ATOM     16  O   UNL     1       0.973   3.278  21.039  0.00  0.00    +0.000 OA
ENDBRANCH   9  16
BRANCH  14  17
ATOM     17  O   UNL     1       1.779   1.755  18.619  0.00  0.00    +0.000 OA
ATOM     18  H   UNL     1       1.315   1.572  17.786  0.00  0.00    +0.000 HD
ENDBRANCH  14  17
ENDBRANCH   1  11
BRANCH   5  19
ATOM     19  C   UNL     1      -0.419  11.097  19.514  0.00  0.00    +0.000 A 
ATOM     20  C   UNL     1      -0.824  11.948  20.548  0.00  0.00    +0.000 A 
ATOM     21  C   UNL     1      -2.089  12.531  20.548  0.00  0.00    +0.000 A 
ATOM     22  C   UNL     1      -2.988  12.255  19.520  0.00  0.00    +0.000 A 
ATOM     23  C   UNL     1      -2.640  11.367  18.499  0.00  0.00    +0.000 A 
ATOM     24  C   UNL     1      -1.347  10.809  18.498  0.00  0.00    +0.000 A 
BRANCH  22  25
ATOM     25  O   UNL     1      -4.193  12.900  19.542  0.00  0.00    +0.000 OA
ATOM     26  H   UNL     1      -4.238  13.454  20.339  0.00  0.00    +0.000 HD
ENDBRANCH  22  25
BRANCH  23  27
ATOM     27  O   UNL     1      -3.404  10.957  17.439  0.00  0.00    +0.000 OA
ATOM     28  C   UNL     1      -2.837  10.005  16.546  0.00  0.00    +0.000 C 
ENDBRANCH  23  27
ENDBRANCH   5  19
BRANCH   7  29
ATOM     29  O   UNL     1      -0.247   8.362  21.186  0.00  0.00    +0.000 OA
ATOM     30  C   UNL     1      -0.472   8.897  22.483  0.00  0.00    +0.000 C 
ENDBRANCH   7  29
TORSDOF 7
ENDMDL
MODEL 3
REMARK VINA RESULT:      -7.1      3.591      9.042
REMARK  Name = 
REMARK  10 active torsions:
REMARK  status: ('A' for Active; 'I' for Inactive)
REMARK    1  A    between atoms: C_1  and  O_2
REMARK    2  A    between atoms: O_2  and  C_3
REMARK    3  A    between atoms: C_5  and  C_6
REMARK    4  A    between atoms: C_10  and  C_11
REMARK    5  A    between atoms: C_14  and  O_15
REMARK    6  A    between atoms: C_16  and  O_17
REMARK    7  A    between atoms: O_17  and  C_18
REMARK    8  A    between atoms: C_21  and  O_22
REMARK    9  A    between atoms: O_22  and  C_23
REMARK   10  A    between atoms: C_27  and  O_28
REMARK                            x       y       z     vdW  Elec       q    Type
REMARK                         _______ _______ _______ _____ _____    ______ ____
ROOT
ATOM      1  C   UNL     1       3.143   5.971  18.727  0.00  0.00    +0.000 C 
ATOM      2  O   UNL     1       2.276   4.833  18.571  0.00  0.00    +0.000 OA
ATOM      3  C   UNL     1       3.067   3.835  17.916  0.00  0.00    +0.000 C 
ATOM      4  C   UNL     1       3.862   4.590  16.867  0.00  0.00    +0.000 C 
ATOM      5  C   UNL     1       5.295   4.111  16.685  0.00  0.00    +0.000 C 
ATOM      6  O   UNL     1       6.074   4.901  17.603  0.00  0.00    +0.000 OA
ATOM      7  C   UNL     1       5.461   6.190  17.728  0.00  0.00    +0.000 C 
ATOM      8  C   UNL     1       3.977   5.990  17.444  0.00  0.00    +0.000 C 
ENDROOT
BRANCH   1  11
ATOM      9  C   UNL     1       1.277   8.757  20.612  0.00  0.00    +0.000 A 
ATOM     10  C   UNL     1       1.917   7.544  20.304  0.00  0.00    +0.000 A 
ATOM     11  C   UNL     1       2.380   7.252  19.010  0.00  0.00    +0.000 A 
ATOM     12  C   UNL     1       2.201   8.227  18.018  0.00  0.00    +0.000 A 
ATOM     13  C   UNL     1       1.557   9.432  18.303  0.00  0.00    +0.000 A 
ATOM     14  C   UNL     1       1.097   9.699  19.593  0.00  0.00    +0.000 A 
BRANCH   9  16
ATOM     15  C   UNL     1      -0.472   8.773  22.245  0.00  0.00    +0.000 C 
ATOM     16  O   UNL     1       0.910   8.852  21.928  0.00  0.00    +0.000 OA
ENDBRANCH   9  16
BRANCH  14  17
ATOM     17  O   UNL     1       0.481  10.899  19.819  0.00  0.00    +0.000 OA
ATOM     18  H   UNL     1       0.867  11.310  20.610  0.00  0.00    +0.000 HD
ENDBRANCH  14  17
ENDBRANCH   1  11
BRANCH   5  19
ATOM     19  C   UNL     1       5.888   4.278  15.293  0.00  0.00    +0.000 A 
ATOM     20  C   UNL     1       7.112   4.921  15.075  0.00  0.00    +0.000 A 
ATOM     21  C   UNL     1       7.698   4.945  13.812  0.00  0.00    +0.000 A 
ATOM     22  C   UNL     1       7.059   4.344  12.730  0.00  0.00    +0.000 A 
ATOM     23  C   UNL     1       5.810   3.741  12.896  0.00  0.00    +0.000 A 
ATOM     24  C   UNL     1       5.245   3.699  14.185  0.00  0.00    +0.000 A 
BRANCH  22  25
ATOM     25  O   UNL     1       7.709   4.350  11.526  0.00  0.00    +0.000 OA
ATOM     26  H   UNL     1       8.663   4.436  11.686  0.00  0.00    +0.000 HD
ENDBRANCH  22  25
BRANCH  23  27
ATOM     27  O   UNL     1       5.029   3.139  11.946  0.00  0.00    +0.000 OA
ATOM     28  C   UNL     1       5.476   1.897  11.415  0.00  0.00    +0.000 C 
ENDBRANCH  23  27
ENDBRANCH   5  19
BRANCH   7  29
ATOM     29  O   UNL     1       5.969   7.124  16.775  0.00  0.00    +0.000 OA
ATOM     30  C   UNL     1       7.132   7.793  17.244  0.00  0.00    +0.000 C 
ENDBRANCH   7  29
TORSDOF 7
ENDMDL
MODEL 4
REMARK VINA RESULT:      -6.9      1.370      2.302
REMARK  Name = 
REMARK  10 active torsions:
REMARK  status: ('A' for Active; 'I' for Inactive)
REMARK    1  A    between atoms: C_1  and  O_2
REMARK    2  A    between atoms: O_2  and  C_3
REMARK    3  A    between atoms: C_5  and  C_6
REMARK    4  A    between atoms: C_10  and  C_11
REMARK    5  A    between atoms: C_14  and  O_15
REMARK    6  A    between atoms: C_16  and  O_17
REMARK    7  A    between atoms: O_17  and  C_18
REMARK    8  A    between atoms: C_21  and  O_22
REMARK    9  A    between atoms: O_22  and  C_23
REMARK   10  A    between atoms: C_27  and  O_28
REMARK                            x       y       z     vdW  Elec       q    Type
REMARK                         _______ _______ _______ _____ _____    ______ ____
ROOT
ATOM      1  C   UNL     1       2.247   7.886  19.241  0.00  0.00    +0.000 C 
ATOM      2  O   UNL     1       2.648   8.315  17.928  0.00  0.00    +0.000 OA
ATOM      3  C   UNL     1       2.295   9.702  17.854  0.00  0.00    +0.000 C 
ATOM      4  C   UNL     1       0.937   9.796  18.526  0.00  0.00    +0.000 C 
ATOM      5  C   UNL     1       0.734  11.039  19.380  0.00  0.00    +0.000 C 
ATOM      6  O   UNL     1       1.173  10.664  20.699  0.00  0.00    +0.000 OA
ATOM      7  C   UNL     1       0.907   9.269  20.887  0.00  0.00    +0.000 C 
ATOM      8  C   UNL     1       0.938   8.634  19.502  0.00  0.00    +0.000 C 
ENDROOT
BRANCH   1  11
ATOM      9  C   UNL     1       2.552   4.142  18.406  0.00  0.00    +0.000 A 
ATOM     10  C   UNL     1       2.556   5.544  18.299  0.00  0.00    +0.000 A 
ATOM     11  C   UNL     1       2.151   6.375  19.357  0.00  0.00    +0.000 A 
ATOM     12  C   UNL     1       1.752   5.760  20.553  0.00  0.00    +0.000 A 
ATOM     13  C   UNL     1       1.731   4.370  20.674  0.00  0.00    +0.000 A 
ATOM     14  C   UNL     1       2.129   3.562  19.608  0.00  0.00    +0.000 A 
BRANCH   9  16
ATOM     15  C   UNL     1       4.281   3.845  16.779  0.00  0.00    +0.000 C 
ATOM     16  O   UNL     1       2.990   3.515  17.270  0.00  0.00    +0.000 OA
ENDBRANCH   9  16
BRANCH  14  17
ATOM     17  O   UNL     1       2.098   2.206  19.783  0.00  0.00    +0.000 OA
ATOM     18  H   UNL     1       1.214   1.876  19.552  0.00  0.00    +0.000 HD
ENDBRANCH  14  17
ENDBRANCH   1  11
BRANCH   5  19
ATOM     19  C   UNL     1      -0.694  11.558  19.484  0.00  0.00    +0.000 A 
ATOM     20  C   UNL     1      -1.651  11.315  18.492  0.00  0.00    +0.000 A 
ATOM     21  C   UNL     1      -2.982  11.684  18.668  0.00  0.00    +0.000 A 
ATOM     22  C   UNL     1      -3.383  12.327  19.837  0.00  0.00    +0.000 A 
ATOM     23  C   UNL     1      -2.446  12.637  20.828  0.00  0.00    +0.000 A 
ATOM     24  C   UNL     1      -1.111  12.231  20.647  0.00  0.00    +0.000 A 
BRANCH  22  25
ATOM     25  O   UNL     1      -4.712  12.614  19.980  0.00  0.00    +0.000 OA
ATOM     26  H   UNL     1      -5.226  11.994  19.438  0.00  0.00    +0.000 HD
ENDBRANCH  22  25
BRANCH  23  27
ATOM     27  O   UNL     1      -2.655  13.291  22.012  0.00  0.00    +0.000 OA
ATOM     28  C   UNL     1      -2.998  12.506  23.148  0.00  0.00    +0.000 C 
ENDBRANCH  23  27
ENDBRANCH   5  19
BRANCH   7  29
ATOM     29  O   UNL     1      -0.386   9.037  21.448  0.00  0.00    +0.000 OA
ATOM     30  C   UNL     1      -0.445   9.380  22.826  0.00  0.00    +0.000 C 
ENDBRANCH   7  29
TORSDOF 7
ENDMDL
MODEL 5
REMARK VINA RESULT:      -6.9      3.660      8.934
REMARK  Name = 
REMARK  10 active torsions:
REMARK  status: ('A' for Active; 'I' for Inactive)
REMARK    1  A    between atoms: C_1  and  O_2
REMARK    2  A    between atoms: O_2  and  C_3
REMARK    3  A    between atoms: C_5  and  C_6
REMARK    4  A    between atoms: C_10  and  C_11
REMARK    5  A    between atoms: C_14  and  O_15
REMARK    6  A    between atoms: C_16  and  O_17
REMARK    7  A    between atoms: O_17  and  C_18
REMARK    8  A    between atoms: C_21  and  O_22
REMARK    9  A    between atoms: O_22  and  C_23
REMARK   10  A    between atoms: C_27  and  O_28
REMARK                            x       y       z     vdW  Elec       q    Type
REMARK                         _______ _______ _______ _____ _____    ______ ____
ROOT
ATOM      1  C   UNL     1       3.383   5.605  18.818  0.00  0.00    +0.000 C 
ATOM      2  O   UNL     1       2.513   4.474  18.638  0.00  0.00    +0.000 OA
ATOM      3  C   UNL     1       3.273   3.520  17.888  0.00  0.00    +0.000 C 
ATOM      4  C   UNL     1       4.015   4.341  16.848  0.00  0.00    +0.000 C 
ATOM      5  C   UNL     1       5.438   3.881  16.570  0.00  0.00    +0.000 C 
ATOM      6  O   UNL     1       6.259   4.620  17.493  0.00  0.00    +0.000 OA
ATOM      7  C   UNL     1       5.649   5.896  17.723  0.00  0.00    +0.000 C 
ATOM      8  C   UNL     1       4.153   5.704  17.500  0.00  0.00    +0.000 C 
ENDROOT
BRANCH   1  11
ATOM      9  C   UNL     1       1.757   9.087  18.629  0.00  0.00    +0.000 A 
ATOM     10  C   UNL     1       2.513   7.942  18.321  0.00  0.00    +0.000 A 
ATOM     11  C   UNL     1       2.630   6.864  19.213  0.00  0.00    +0.000 A 
ATOM     12  C   UNL     1       1.946   6.950  20.435  0.00  0.00    +0.000 A 
ATOM     13  C   UNL     1       1.200   8.083  20.762  0.00  0.00    +0.000 A 
ATOM     14  C   UNL     1       1.104   9.148  19.865  0.00  0.00    +0.000 A 
BRANCH   9  16
ATOM     15  C   UNL     1       2.385  11.270  17.877  0.00  0.00    +0.000 C 
ATOM     16  O   UNL     1       1.761  10.020  17.626  0.00  0.00    +0.000 OA
ENDBRANCH   9  16
BRANCH  14  17
ATOM     17  O   UNL     1       0.352  10.230  20.233  0.00  0.00    +0.000 OA
ATOM     18  H   UNL     1       0.427  10.357  21.193  0.00  0.00    +0.000 HD
ENDBRANCH  14  17
ENDBRANCH   1  11
BRANCH   5  19
ATOM     19  C   UNL     1       5.963   4.132  15.162  0.00  0.00    +0.000 A 
ATOM     20  C   UNL     1       7.059   4.965  14.912  0.00  0.00    +0.000 A 
ATOM     21  C   UNL     1       7.603   5.076  13.635  0.00  0.00    +0.000 A 
ATOM     22  C   UNL     1       7.045   4.371  12.571  0.00  0.00    +0.000 A 
ATOM     23  C   UNL     1       5.916   3.572  12.770  0.00  0.00    +0.000 A 
ATOM     24  C   UNL     1       5.396   3.447  14.072  0.00  0.00    +0.000 A 
BRANCH  22  25
ATOM     25  O   UNL     1       7.656   4.473  11.352  0.00  0.00    +0.000 OA
ATOM     26  H   UNL     1       7.155   3.950  10.705  0.00  0.00    +0.000 HD
ENDBRANCH  22  25
BRANCH  23  27
ATOM     27  O   UNL     1       5.222   2.843  11.841  0.00  0.00    +0.000 OA
ATOM     28  C   UNL     1       4.013   3.398  11.336  0.00  0.00    +0.000 C 
ENDBRANCH  23  27
ENDBRANCH   5  19
BRANCH   7  29
ATOM     29  O   UNL     1       6.107   6.887  16.803  0.00  0.00    +0.000 OA
ATOM     30  C   UNL     1       7.198   7.638  17.320  0.00  0.00    +0.000 C 
ENDBRANCH   7  29
TORSDOF 7
ENDMDL
MODEL 6
REMARK VINA RESULT:      -6.9      1.685      2.843
REMARK  Name = 
REMARK  10 active torsions:
REMARK  status: ('A' for Active; 'I' for Inactive)
REMARK    1  A    between atoms: C_1  and  O_2
REMARK    2  A    between atoms: O_2  and  C_3
REMARK    3  A    between atoms: C_5  and  C_6
REMARK    4  A    between atoms: C_10  and  C_11
REMARK    5  A    between atoms: C_14  and  O_15
REMARK    6  A    between atoms: C_16  and  O_17
REMARK    7  A    between atoms: O_17  and  C_18
REMARK    8  A    between atoms: C_21  and  O_22
REMARK    9  A    between atoms: O_22  and  C_23
REMARK   10  A    between atoms: C_27  and  O_28
REMARK                            x       y       z     vdW  Elec       q    Type
REMARK                         _______ _______ _______ _____ _____    ______ ____
ROOT
ATOM      1  C   UNL     1       2.363   7.468  18.981  0.00  0.00    +0.000 C 
ATOM      2  O   UNL     1       2.875   8.018  17.755  0.00  0.00    +0.000 OA
ATOM      3  C   UNL     1       2.616   9.425  17.829  0.00  0.00    +0.000 C 
ATOM      4  C   UNL     1       1.226   9.537  18.429  0.00  0.00    +0.000 C 
ATOM      5  C   UNL     1       1.047  10.682  19.414  0.00  0.00    +0.000 C 
ATOM      6  O   UNL     1       1.374  10.125  20.701  0.00  0.00    +0.000 OA
ATOM      7  C   UNL     1       1.009   8.740  20.703  0.00  0.00    +0.000 C 
ATOM      8  C   UNL     1       1.091   8.271  19.255  0.00  0.00    +0.000 C 
ENDROOT
BRANCH   1  11
ATOM      9  C   UNL     1       1.452   3.861  19.965  0.00  0.00    +0.000 A 
ATOM     10  C   UNL     1       1.720   5.241  20.026  0.00  0.00    +0.000 A 
ATOM     11  C   UNL     1       2.165   5.964  18.907  0.00  0.00    +0.000 A 
ATOM     12  C   UNL     1       2.321   5.268  17.699  0.00  0.00    +0.000 A 
ATOM     13  C   UNL     1       2.071   3.897  17.623  0.00  0.00    +0.000 A 
ATOM     14  C   UNL     1       1.638   3.194  18.749  0.00  0.00    +0.000 A 
BRANCH   9  16
ATOM     15  C   UNL     1       1.952   2.624  21.951  0.00  0.00    +0.000 C 
ATOM     16  O   UNL     1       1.021   3.344  21.157  0.00  0.00    +0.000 OA
ENDBRANCH   9  16
BRANCH  14  17
ATOM     17  O   UNL     1       1.400   1.854  18.616  0.00  0.00    +0.000 OA
ATOM     18  H   UNL     1       1.531   1.599  17.688  0.00  0.00    +0.000 HD
ENDBRANCH  14  17
ENDBRANCH   1  11
BRANCH   5  19
ATOM     19  C   UNL     1      -0.350  11.284  19.499  0.00  0.00    +0.000 A 
ATOM     20  C   UNL     1      -1.308  11.092  18.497  0.00  0.00    +0.000 A 
ATOM     21  C   UNL     1      -2.617  11.539  18.656  0.00  0.00    +0.000 A 
ATOM     22  C   UNL     1      -2.992  12.212  19.816  0.00  0.00    +0.000 A 
ATOM     23  C   UNL     1      -2.050  12.473  20.816  0.00  0.00    +0.000 A 
ATOM     24  C   UNL     1      -0.739  11.988  20.652  0.00  0.00    +0.000 A 
BRANCH  22  25
ATOM     25  O   UNL     1      -4.304  12.577  19.942  0.00  0.00    +0.000 OA
ATOM     26  H   UNL     1      -4.682  12.126  20.714  0.00  0.00    +0.000 HD
ENDBRANCH  22  25
BRANCH  23  27
ATOM     27  O   UNL     1      -2.233  13.146  21.994  0.00  0.00    +0.000 OA
ATOM     28  C   UNL     1      -2.331  12.375  23.186  0.00  0.00    +0.000 C 
ENDBRANCH  23  27
ENDBRANCH   5  19
BRANCH   7  29
ATOM     29  O   UNL     1      -0.330   8.536  21.157  0.00  0.00    +0.000 OA
ATOM     30  C   UNL     1      -0.511   8.954  22.504  0.00  0.00    +0.000 C 
ENDBRANCH   7  29
TORSDOF 7
ENDMDL
MODEL 7
REMARK VINA RESULT:      -6.8      0.749      1.791
REMARK  Name = 
REMARK  10 active torsions:
REMARK  status: ('A' for Active; 'I' for Inactive)
REMARK    1  A    between atoms: C_1  and  O_2
REMARK    2  A    between atoms: O_2  and  C_3
REMARK    3  A    between atoms: C_5  and  C_6
REMARK    4  A    between atoms: C_10  and  C_11
REMARK    5  A    between atoms: C_14  and  O_15
REMARK    6  A    between atoms: C_16  and  O_17
REMARK    7  A    between atoms: O_17  and  C_18
REMARK    8  A    between atoms: C_21  and  O_22
REMARK    9  A    between atoms: O_22  and  C_23
REMARK   10  A    between atoms: C_27  and  O_28
REMARK                            x       y       z     vdW  Elec       q    Type
REMARK                         _______ _______ _______ _____ _____    ______ ____
ROOT
ATOM      1  C   UNL     1       2.549   7.797  19.240  0.00  0.00    +0.000 C 
ATOM      2  O   UNL     1       2.969   8.033  17.884  0.00  0.00    +0.000 OA
ATOM      3  C   UNL     1       2.462   9.329  17.546  0.00  0.00    +0.000 C 
ATOM      4  C   UNL     1       1.069   9.373  18.144  0.00  0.00    +0.000 C 
ATOM      5  C   UNL     1       0.677  10.713  18.750  0.00  0.00    +0.000 C 
ATOM      6  O   UNL     1       1.083  10.636  20.129  0.00  0.00    +0.000 OA
ATOM      7  C   UNL     1       0.970   9.274  20.560  0.00  0.00    +0.000 C 
ATOM      8  C   UNL     1       1.151   8.412  19.316  0.00  0.00    +0.000 C 
ENDROOT
BRANCH   1  11
ATOM      9  C   UNL     1       3.872   4.213  19.700  0.00  0.00    +0.000 A 
ATOM     10  C   UNL     1       3.741   5.551  19.288  0.00  0.00    +0.000 A 
ATOM     11  C   UNL     1       2.622   6.330  19.626  0.00  0.00    +0.000 A 
ATOM     12  C   UNL     1       1.627   5.735  20.416  0.00  0.00    +0.000 A 
ATOM     13  C   UNL     1       1.735   4.405  20.825  0.00  0.00    +0.000 A 
ATOM     14  C   UNL     1       2.850   3.645  20.470  0.00  0.00    +0.000 A 
BRANCH   9  16
ATOM     15  C   UNL     1       5.883   4.379  18.415  0.00  0.00    +0.000 C 
ATOM     16  O   UNL     1       5.036   3.631  19.276  0.00  0.00    +0.000 OA
ENDBRANCH   9  16
BRANCH  14  17
ATOM     17  O   UNL     1       2.909   2.350  20.905  0.00  0.00    +0.000 OA
ATOM     18  H   UNL     1       2.528   1.769  20.226  0.00  0.00    +0.000 HD
ENDBRANCH  14  17
ENDBRANCH   1  11
BRANCH   5  19
ATOM     19  C   UNL     1      -0.806  11.062  18.711  0.00  0.00    +0.000 A 
ATOM     20  C   UNL     1      -1.697  10.431  17.836  0.00  0.00    +0.000 A 
ATOM     21  C   UNL     1      -3.068  10.669  17.909  0.00  0.00    +0.000 A 
ATOM     22  C   UNL     1      -3.575  11.566  18.847  0.00  0.00    +0.000 A 
ATOM     23  C   UNL     1      -2.711  12.257  19.700  0.00  0.00    +0.000 A 
ATOM     24  C   UNL     1      -1.332  11.983  19.634  0.00  0.00    +0.000 A 
BRANCH  22  25
ATOM     25  O   UNL     1      -4.933  11.717  18.910  0.00  0.00    +0.000 OA
ATOM     26  H   UNL     1      -5.134  12.604  19.250  0.00  0.00    +0.000 HD
ENDBRANCH  22  25
BRANCH  23  27
ATOM     27  O   UNL     1      -3.029  13.192  20.649  0.00  0.00    +0.000 OA
ATOM     28  C   UNL     1      -2.189  14.335  20.756  0.00  0.00    +0.000 C 
ENDBRANCH  23  27
ENDBRANCH   5  19
BRANCH   7  29
ATOM     29  O   UNL     1      -0.316   8.987  21.111  0.00  0.00    +0.000 OA
ATOM     30  C   UNL     1      -0.416   9.377  22.474  0.00  0.00    +0.000 C 
ENDBRANCH   7  29
TORSDOF 7
ENDMDL
MODEL 8
REMARK VINA RESULT:      -6.5      3.721      7.592
REMARK  Name = 
REMARK  10 active torsions:
REMARK  status: ('A' for Active; 'I' for Inactive)
REMARK    1  A    between atoms: C_1  and  O_2
REMARK    2  A    between atoms: O_2  and  C_3
REMARK    3  A    between atoms: C_5  and  C_6
REMARK    4  A    between atoms: C_10  and  C_11
REMARK    5  A    between atoms: C_14  and  O_15
REMARK    6  A    between atoms: C_16  and  O_17
REMARK    7  A    between atoms: O_17  and  C_18
REMARK    8  A    between atoms: C_21  and  O_22
REMARK    9  A    between atoms: O_22  and  C_23
REMARK   10  A    between atoms: C_27  and  O_28
REMARK                            x       y       z     vdW  Elec       q    Type
REMARK                         _______ _______ _______ _____ _____    ______ ____
ROOT
ATOM      1  C   UNL     1       6.873   4.338  16.430  0.00  0.00    +0.000 C 
ATOM      2  O   UNL     1       7.821   5.186  17.101  0.00  0.00    +0.000 OA
ATOM      3  C   UNL     1       7.328   5.328  18.439  0.00  0.00    +0.000 C 
ATOM      4  C   UNL     1       5.826   5.491  18.288  0.00  0.00    +0.000 C 
ATOM      5  C   UNL     1       4.999   4.784  19.352  0.00  0.00    +0.000 C 
ATOM      6  O   UNL     1       4.741   3.473  18.817  0.00  0.00    +0.000 OA
ATOM      7  C   UNL     1       4.658   3.571  17.391  0.00  0.00    +0.000 C 
ATOM      8  C   UNL     1       5.516   4.766  16.991  0.00  0.00    +0.000 C 
ENDROOT
BRANCH   1  11
ATOM      9  C   UNL     1       6.247   3.685  12.690  0.00  0.00    +0.000 A 
ATOM     10  C   UNL     1       6.217   3.582  14.092  0.00  0.00    +0.000 A 
ATOM     11  C   UNL     1       6.991   4.415  14.918  0.00  0.00    +0.000 A 
ATOM     12  C   UNL     1       7.795   5.383  14.298  0.00  0.00    +0.000 A 
ATOM     13  C   UNL     1       7.846   5.492  12.908  0.00  0.00    +0.000 A 
ATOM     14  C   UNL     1       7.077   4.649  12.105  0.00  0.00    +0.000 A 
BRANCH   9  16
ATOM     15  C   UNL     1       4.244   3.292  11.443  0.00  0.00    +0.000 C 
ATOM     16  O   UNL     1       5.417   2.792  12.068  0.00  0.00    +0.000 OA
ENDBRANCH   9  16
BRANCH  14  17
ATOM     17  O   UNL     1       7.158   4.805  10.749  0.00  0.00    +0.000 OA
ATOM     18  H   UNL     1       6.347   4.461  10.340  0.00  0.00    +0.000 HD
ENDBRANCH  14  17
ENDBRANCH   1  11
BRANCH   5  19
ATOM     19  C   UNL     1       3.662   5.426  19.700  0.00  0.00    +0.000 A 
ATOM     20  C   UNL     1       2.729   4.802  20.536  0.00  0.00    +0.000 A 
ATOM     21  C   UNL     1       1.574   5.462  20.946  0.00  0.00    +0.000 A 
ATOM     22  C   UNL     1       1.314   6.759  20.510  0.00  0.00    +0.000 A 
ATOM     23  C   UNL     1       2.194   7.396  19.630  0.00  0.00    +0.000 A 
ATOM     24  C   UNL     1       3.372   6.726  19.248  0.00  0.00    +0.000 A 
BRANCH  22  25
ATOM     25  O   UNL     1       0.194   7.378  20.991  0.00  0.00    +0.000 OA
ATOM     26  H   UNL     1       0.234   7.389  21.961  0.00  0.00    +0.000 HD
ENDBRANCH  22  25
BRANCH  23  27
ATOM     27  O   UNL     1       2.080   8.643  19.077  0.00  0.00    +0.000 OA
ATOM     28  C   UNL     1       2.189   8.749  17.662  0.00  0.00    +0.000 C 
ENDBRANCH  23  27
ENDBRANCH   5  19
BRANCH   7  29
ATOM     29  O   UNL     1       3.325   3.818  16.943  0.00  0.00    +0.000 OA
ATOM     30  C   UNL     1       2.413   2.823  17.390  0.00  0.00    +0.000 C 
ENDBRANCH   7  29
TORSDOF 7
ENDMDL
MODEL 9
REMARK VINA RESULT:      -6.5      1.236      1.768
REMARK  Name = 
REMARK  10 active torsions:
REMARK  status: ('A' for Active; 'I' for Inactive)
REMARK    1  A    between atoms: C_1  and  O_2
REMARK    2  A    between atoms: O_2  and  C_3
REMARK    3  A    between atoms: C_5  and  C_6
REMARK    4  A    between atoms: C_10  and  C_11
REMARK    5  A    between atoms: C_14  and  O_15
REMARK    6  A    between atoms: C_16  and  O_17
REMARK    7  A    between atoms: O_17  and  C_18
REMARK    8  A    between atoms: C_21  and  O_22
REMARK    9  A    between atoms: O_22  and  C_23
REMARK   10  A    between atoms: C_27  and  O_28
REMARK                            x       y       z     vdW  Elec       q    Type
REMARK                         _______ _______ _______ _____ _____    ______ ____
ROOT
ATOM      1  C   UNL     1       2.942   7.588  18.828  0.00  0.00    +0.000 C 
ATOM      2  O   UNL     1       3.380   8.083  17.551  0.00  0.00    +0.000 OA
ATOM      3  C   UNL     1       2.812   9.393  17.432  0.00  0.00    +0.000 C 
ATOM      4  C   UNL     1       1.404   9.261  17.983  0.00  0.00    +0.000 C 
ATOM      5  C   UNL     1       0.926  10.450  18.804  0.00  0.00    +0.000 C 
ATOM      6  O   UNL     1       1.304  10.146  20.159  0.00  0.00    +0.000 OA
ATOM      7  C   UNL     1       1.255   8.726  20.338  0.00  0.00    +0.000 C 
ATOM      8  C   UNL     1       1.511   8.110  18.967  0.00  0.00    +0.000 C 
ENDROOT
BRANCH   1  11
ATOM      9  C   UNL     1       2.226   3.822  18.498  0.00  0.00    +0.000 A 
ATOM     10  C   UNL     1       2.085   5.221  18.470  0.00  0.00    +0.000 A 
ATOM     11  C   UNL     1       3.086   6.082  18.951  0.00  0.00    +0.000 A 
ATOM     12  C   UNL     1       4.260   5.501  19.452  0.00  0.00    +0.000 A 
ATOM     13  C   UNL     1       4.413   4.115  19.499  0.00  0.00    +0.000 A 
ATOM     14  C   UNL     1       3.402   3.277  19.024  0.00  0.00    +0.000 A 
BRANCH   9  16
ATOM     15  C   UNL     1       0.401   2.312  18.836  0.00  0.00    +0.000 C 
ATOM     16  O   UNL     1       1.146   3.163  17.976  0.00  0.00    +0.000 OA
ENDBRANCH   9  16
BRANCH  14  17
ATOM     17  O   UNL     1       3.608   1.926  19.085  0.00  0.00    +0.000 OA
ATOM     18  H   UNL     1       4.067   1.638  18.279  0.00  0.00    +0.000 HD
ENDBRANCH  14  17
ENDBRANCH   1  11
BRANCH   5  19
ATOM     19  C   UNL     1      -0.572  10.726  18.779  0.00  0.00    +0.000 A 
ATOM     20  C   UNL     1      -1.186  11.590  19.693  0.00  0.00    +0.000 A 
ATOM     21  C   UNL     1      -2.531  11.930  19.570  0.00  0.00    +0.000 A 
ATOM     22  C   UNL     1      -3.300  11.392  18.540  0.00  0.00    +0.000 A 
ATOM     23  C   UNL     1      -2.736  10.483  17.641  0.00  0.00    +0.000 A 
ATOM     24  C   UNL     1      -1.368  10.172  17.761  0.00  0.00    +0.000 A 
BRANCH  22  25
ATOM     25  O   UNL     1      -4.599  11.807  18.435  0.00  0.00    +0.000 OA
ATOM     26  H   UNL     1      -4.697  12.325  17.620  0.00  0.00    +0.000 HD
ENDBRANCH  22  25
BRANCH  23  27
ATOM     27  O   UNL     1      -3.346   9.835  16.600  0.00  0.00    +0.000 OA
ATOM     28  C   UNL     1      -2.947  10.186  15.280  0.00  0.00    +0.000 C 
ENDBRANCH  23  27
ENDBRANCH   5  19
BRANCH   7  29
ATOM     29  O   UNL     1      -0.026   8.282  20.788  0.00  0.00    +0.000 OA
ATOM     30  C   UNL     1      -0.369   8.824  22.056  0.00  0.00    +0.000 C 
ENDBRANCH   7  29
TORSDOF 7
ENDMDL
