MODEL 1
REMARK VINA RESULT:      -8.8      0.000      0.000
REMARK  Name = 
REMARK  9 active torsions:
REMARK  status: ('A' for Active; 'I' for Inactive)
REMARK    1  A    between atoms: C_1  and  C_2
REMARK    2  A    between atoms: C_5  and  C_7
REMARK    3  A    between atoms: C_7  and  O_8
REMARK    4  A    between atoms: O_8  and  C_9
REMARK    5  A    between atoms: C_13  and  C_14
REMARK    6  A    between atoms: C_21  and  C_22
REMARK    7  A    between atoms: C_23  and  N_24
REMARK    8  A    between atoms: N_25  and  C_26
REMARK    9  A    between atoms: C_30  and  N_31
REMARK                            x       y       z     vdW  Elec       q    Type
REMARK                         _______ _______ _______ _____ _____    ______ ____
ROOT
ATOM      1  C   UNL     1       1.762   9.155  17.756  0.00  0.00    +0.000 C 
ATOM      2  C   UNL     1       1.344   9.592  19.113  0.00  0.00    +0.000 A 
ATOM      3  N   UNL     1       1.129  10.884  19.393  0.00  0.00    +0.000 NA
ATOM      4  N   UNL     1       0.746  10.930  20.718  0.00  0.00    +0.000 N 
ATOM      5  C   UNL     1       0.401  12.208  21.252  0.00  0.00    +0.000 C 
ATOM      6  O   UNL     1       0.855  13.230  20.751  0.00  0.00    +0.000 OA
ATOM      7  C   UNL     1       0.758   9.646  21.268  0.00  0.00    +0.000 A 
ATOM      8  C   UNL     1       0.513   9.241  22.670  0.00  0.00    +0.000 C 
ATOM      9  C   UNL     1       1.156   8.803  20.254  0.00  0.00    +0.000 A 
ENDROOT
BRANCH   9  10
ATOM     10  N   UNL     1       1.392   7.440  20.453  0.00  0.00    +0.000 NA
ATOM     11  N   UNL     1       2.365   6.977  19.825  0.00  0.00    +0.000 NA
BRANCH  11  12
ATOM     12  C   UNL     1       2.422   5.572  19.955  0.00  0.00    +0.000 A 
ATOM     13  C   UNL     1       1.952   4.981  21.135  0.00  0.00    +0.000 A 
ATOM     14  C   UNL     1       2.044   3.599  21.338  0.00  0.00    +0.000 A 
ATOM     15  C   UNL     1       2.615   2.785  20.360  0.00  0.00    +0.000 A 
ATOM     16  C   UNL     1       3.087   3.365  19.177  0.00  0.00    +0.000 A 
ATOM     17  C   UNL     1       2.998   4.748  18.974  0.00  0.00    +0.000 A 
BRANCH  16  18
ATOM     18  N   UNL     1       3.694   2.520  18.140  0.00  0.00    +0.000 N 
ATOM     19  O   UNL     1       3.705   1.296  18.329  0.00  0.00    +0.000 OA
ATOM     20  O   UNL     1       4.156   3.082  17.138  0.00  0.00    +0.000 OA
ENDBRANCH  16  18
ENDBRANCH  11  12
ENDBRANCH   9  10
BRANCH   5  21
ATOM     21  C   UNL     1      -0.667  12.206  22.338  0.00  0.00    +0.000 C 
BRANCH  21  22
ATOM     22  O   UNL     1      -1.378  13.426  22.520  0.00  0.00    +0.000 OA
BRANCH  22  23
ATOM     23  C   UNL     1      -2.747  13.337  22.627  0.00  0.00    +0.000 A 
ATOM     24  C   UNL     1      -3.317  13.969  23.736  0.00  0.00    +0.000 A 
ATOM     25  C   UNL     1      -4.709  13.935  23.963  0.00  0.00    +0.000 A 
ATOM     26  C   UNL     1      -5.568  13.267  23.085  0.00  0.00    +0.000 A 
ATOM     27  C   UNL     1      -7.030  13.163  23.241  0.00  0.00    +0.000 A 
ATOM     28  C   UNL     1      -7.777  13.775  24.391  0.00  0.00    +0.000 C 
ATOM     29  C   UNL     1      -7.722  12.484  22.312  0.00  0.00    +0.000 A 
ATOM     30  C   UNL     1      -7.111  11.835  21.146  0.00  0.00    +0.000 A 
ATOM     31  O   UNL     1      -7.795  11.229  20.330  0.00  0.00    +0.000 OA
ATOM     32  O   UNL     1      -5.737  11.945  21.027  0.00  0.00    +0.000 OA
ATOM     33  C   UNL     1      -4.972  12.648  21.981  0.00  0.00    +0.000 A 
ATOM     34  C   UNL     1      -3.591  12.675  21.740  0.00  0.00    +0.000 A 
ENDBRANCH  22  23
ENDBRANCH  21  22
ENDBRANCH   5  21
TORSDOF 6
ENDMDL
MODEL 2
REMARK VINA RESULT:      -8.6      3.906      6.845
REMARK  Name = 
REMARK  9 active torsions:
REMARK  status: ('A' for Active; 'I' for Inactive)
REMARK    1  A    between atoms: C_1  and  C_2
REMARK    2  A    between atoms: C_5  and  C_7
REMARK    3  A    between atoms: C_7  and  O_8
REMARK    4  A    between atoms: O_8  and  C_9
REMARK    5  A    between atoms: C_13  and  C_14
REMARK    6  A    between atoms: C_21  and  C_22
REMARK    7  A    between atoms: C_23  and  N_24
REMARK    8  A    between atoms: N_25  and  C_26
REMARK    9  A    between atoms: C_30  and  N_31
REMARK                            x       y       z     vdW  Elec       q    Type
REMARK                         _______ _______ _______ _____ _____    ______ ____
ROOT
ATOM      1  C   UNL     1       3.683   1.280  18.554  0.00  0.00    +0.000 C 
ATOM      2  C   UNL     1       3.390   2.737  18.554  0.00  0.00    +0.000 A 
ATOM      3  N   UNL     1       2.576   3.283  19.466  0.00  0.00    +0.000 NA
ATOM      4  N   UNL     1       2.539   4.634  19.186  0.00  0.00    +0.000 N 
ATOM      5  C   UNL     1       1.773   5.460  20.063  0.00  0.00    +0.000 C 
ATOM      6  O   UNL     1       0.847   4.983  20.709  0.00  0.00    +0.000 OA
ATOM      7  C   UNL     1       3.319   4.914  18.062  0.00  0.00    +0.000 A 
ATOM      8  C   UNL     1       3.488   6.204  17.355  0.00  0.00    +0.000 C 
ATOM      9  C   UNL     1       3.841   3.707  17.652  0.00  0.00    +0.000 A 
ENDROOT
BRANCH   9  10
ATOM     10  N   UNL     1       4.594   3.567  16.482  0.00  0.00    +0.000 NA
ATOM     11  N   UNL     1       5.348   4.525  16.225  0.00  0.00    +0.000 NA
BRANCH  11  12
ATOM     12  C   UNL     1       5.936   4.371  14.950  0.00  0.00    +0.000 A 
ATOM     13  C   UNL     1       7.107   5.081  14.655  0.00  0.00    +0.000 A 
ATOM     14  C   UNL     1       7.694   5.011  13.386  0.00  0.00    +0.000 A 
ATOM     15  C   UNL     1       7.113   4.229  12.388  0.00  0.00    +0.000 A 
ATOM     16  C   UNL     1       5.943   3.515  12.673  0.00  0.00    +0.000 A 
ATOM     17  C   UNL     1       5.354   3.587  13.941  0.00  0.00    +0.000 A 
BRANCH  16  18
ATOM     18  N   UNL     1       5.318   2.691  11.631  0.00  0.00    +0.000 N 
ATOM     19  O   UNL     1       5.936   1.690  11.241  0.00  0.00    +0.000 OA
ATOM     20  O   UNL     1       4.210   3.044  11.205  0.00  0.00    +0.000 OA
ENDBRANCH  16  18
ENDBRANCH  11  12
ENDBRANCH   9  10
BRANCH   5  21
ATOM     21  C   UNL     1       2.287   6.881  20.252  0.00  0.00    +0.000 C 
BRANCH  21  22
ATOM     22  O   UNL     1       1.875   7.542  21.444  0.00  0.00    +0.000 OA
BRANCH  22  23
ATOM     23  C   UNL     1       1.033   8.620  21.297  0.00  0.00    +0.000 A 
ATOM     24  C   UNL     1       0.996   9.200  20.026  0.00  0.00    +0.000 A 
ATOM     25  C   UNL     1       0.182  10.320  19.754  0.00  0.00    +0.000 A 
ATOM     26  C   UNL     1      -0.618  10.889  20.750  0.00  0.00    +0.000 A 
ATOM     27  C   UNL     1      -1.491  12.063  20.570  0.00  0.00    +0.000 A 
ATOM     28  C   UNL     1      -1.617  12.800  19.267  0.00  0.00    +0.000 C 
ATOM     29  C   UNL     1      -2.200  12.495  21.625  0.00  0.00    +0.000 A 
ATOM     30  C   UNL     1      -2.161  11.868  22.952  0.00  0.00    +0.000 A 
ATOM     31  O   UNL     1      -2.833  12.308  23.878  0.00  0.00    +0.000 OA
ATOM     32  O   UNL     1      -1.331  10.771  23.093  0.00  0.00    +0.000 OA
ATOM     33  C   UNL     1      -0.567  10.286  22.011  0.00  0.00    +0.000 A 
ATOM     34  C   UNL     1       0.235   9.171  22.295  0.00  0.00    +0.000 A 
ENDBRANCH  22  23
ENDBRANCH  21  22
ENDBRANCH   5  21
TORSDOF 6
ENDMDL
MODEL 3
REMARK VINA RESULT:      -8.5      3.898      7.003
REMARK  Name = 
REMARK  9 active torsions:
REMARK  status: ('A' for Active; 'I' for Inactive)
REMARK    1  A    between atoms: C_1  and  C_2
REMARK    2  A    between atoms: C_5  and  C_7
REMARK    3  A    between atoms: C_7  and  O_8
REMARK    4  A    between atoms: O_8  and  C_9
REMARK    5  A    between atoms: C_13  and  C_14
REMARK    6  A    between atoms: C_21  and  C_22
REMARK    7  A    between atoms: C_23  and  N_24
REMARK    8  A    between atoms: N_25  and  C_26
REMARK    9  A    between atoms: C_30  and  N_31
REMARK                            x       y       z     vdW  Elec       q    Type
REMARK                         _______ _______ _______ _____ _____    ______ ____
ROOT
ATOM      1  C   UNL     1       3.795   1.253  18.452  0.00  0.00    +0.000 C 
ATOM      2  C   UNL     1       3.514   2.712  18.478  0.00  0.00    +0.000 A 
ATOM      3  N   UNL     1       2.741   3.255  19.425  0.00  0.00    +0.000 NA
ATOM      4  N   UNL     1       2.705   4.610  19.161  0.00  0.00    +0.000 N 
ATOM      5  C   UNL     1       1.980   5.433  20.074  0.00  0.00    +0.000 C 
ATOM      6  O   UNL     1       1.075   4.957  20.750  0.00  0.00    +0.000 OA
ATOM      7  C   UNL     1       3.445   4.895  18.011  0.00  0.00    +0.000 A 
ATOM      8  C   UNL     1       3.599   6.190  17.312  0.00  0.00    +0.000 C 
ATOM      9  C   UNL     1       3.940   3.688  17.570  0.00  0.00    +0.000 A 
ENDROOT
BRANCH   9  10
ATOM     10  N   UNL     1       4.647   3.554  16.371  0.00  0.00    +0.000 NA
ATOM     11  N   UNL     1       5.510   4.430  16.169  0.00  0.00    +0.000 NA
BRANCH  11  12
ATOM     12  C   UNL     1       6.051   4.311  14.869  0.00  0.00    +0.000 A 
ATOM     13  C   UNL     1       7.158   5.095  14.522  0.00  0.00    +0.000 A 
ATOM     14  C   UNL     1       7.691   5.060  13.229  0.00  0.00    +0.000 A 
ATOM     15  C   UNL     1       7.120   4.238  12.258  0.00  0.00    +0.000 A 
ATOM     16  C   UNL     1       6.014   3.449  12.595  0.00  0.00    +0.000 A 
ATOM     17  C   UNL     1       5.477   3.486  13.888  0.00  0.00    +0.000 A 
BRANCH  16  18
ATOM     18  N   UNL     1       5.399   2.581  11.582  0.00  0.00    +0.000 N 
ATOM     19  O   UNL     1       4.278   2.895  11.159  0.00  0.00    +0.000 OA
ATOM     20  O   UNL     1       6.039   1.588  11.210  0.00  0.00    +0.000 OA
ENDBRANCH  16  18
ENDBRANCH  11  12
ENDBRANCH   9  10
BRANCH   5  21
ATOM     21  C   UNL     1       2.514   6.847  20.258  0.00  0.00    +0.000 C 
BRANCH  21  22
ATOM     22  O   UNL     1       1.974   7.838  19.389  0.00  0.00    +0.000 OA
BRANCH  22  23
ATOM     23  C   UNL     1       1.226   8.834  19.973  0.00  0.00    +0.000 A 
ATOM     24  C   UNL     1       0.621   8.513  21.191  0.00  0.00    +0.000 A 
ATOM     25  C   UNL     1      -0.183   9.446  21.880  0.00  0.00    +0.000 A 
ATOM     26  C   UNL     1      -0.402  10.728  21.365  0.00  0.00    +0.000 A 
ATOM     27  C   UNL     1      -1.233  11.767  22.000  0.00  0.00    +0.000 A 
ATOM     28  C   UNL     1      -1.958  11.558  23.299  0.00  0.00    +0.000 C 
ATOM     29  C   UNL     1      -1.350  12.953  21.381  0.00  0.00    +0.000 A 
ATOM     30  C   UNL     1      -0.699  13.281  20.107  0.00  0.00    +0.000 A 
ATOM     31  O   UNL     1      -0.843  14.383  19.590  0.00  0.00    +0.000 OA
ATOM     32  O   UNL     1       0.072  12.286  19.533  0.00  0.00    +0.000 OA
ATOM     33  C   UNL     1       0.219  11.026  20.148  0.00  0.00    +0.000 A 
ATOM     34  C   UNL     1       1.022  10.109  19.453  0.00  0.00    +0.000 A 
ENDBRANCH  22  23
ENDBRANCH  21  22
ENDBRANCH   5  21
TORSDOF 6
ENDMDL
MODEL 4
REMARK VINA RESULT:      -8.5      4.047     11.080
REMARK  Name = 
REMARK  9 active torsions:
REMARK  status: ('A' for Active; 'I' for Inactive)
REMARK    1  A    between atoms: C_1  and  C_2
REMARK    2  A    between atoms: C_5  and  C_7
REMARK    3  A    between atoms: C_7  and  O_8
REMARK    4  A    between atoms: O_8  and  C_9
REMARK    5  A    between atoms: C_13  and  C_14
REMARK    6  A    between atoms: C_21  and  C_22
REMARK    7  A    between atoms: C_23  and  N_24
REMARK    8  A    between atoms: N_25  and  C_26
REMARK    9  A    between atoms: C_30  and  N_31
REMARK                            x       y       z     vdW  Elec       q    Type
REMARK                         _______ _______ _______ _____ _____    ______ ____
ROOT
ATOM      1  C   UNL     1      -2.177  14.227  23.154  0.00  0.00    +0.000 C 
ATOM      2  C   UNL     1      -1.408  13.205  22.398  0.00  0.00    +0.000 A 
ATOM      3  N   UNL     1      -1.045  12.048  22.964  0.00  0.00    +0.000 NA
ATOM      4  N   UNL     1      -0.369  11.340  21.991  0.00  0.00    +0.000 N 
ATOM      5  C   UNL     1       0.079  10.029  22.332  0.00  0.00    +0.000 C 
ATOM      6  O   UNL     1       0.284   9.730  23.503  0.00  0.00    +0.000 OA
ATOM      7  C   UNL     1      -0.288  12.094  20.818  0.00  0.00    +0.000 A 
ATOM      8  C   UNL     1       0.427  11.771  19.562  0.00  0.00    +0.000 C 
ATOM      9  C   UNL     1      -0.930  13.283  21.085  0.00  0.00    +0.000 A 
ENDROOT
BRANCH   9  10
ATOM     10  N   UNL     1      -0.961  14.346  20.177  0.00  0.00    +0.000 NA
ATOM     11  N   UNL     1      -0.422  15.395  20.578  0.00  0.00    +0.000 NA
BRANCH  11  12
ATOM     12  C   UNL     1      -0.649  16.454  19.670  0.00  0.00    +0.000 A 
ATOM     13  C   UNL     1      -1.877  17.127  19.710  0.00  0.00    +0.000 A 
ATOM     14  C   UNL     1      -2.174  18.141  18.791  0.00  0.00    +0.000 A 
ATOM     15  C   UNL     1      -1.245  18.494  17.813  0.00  0.00    +0.000 A 
ATOM     16  C   UNL     1      -0.015  17.828  17.766  0.00  0.00    +0.000 A 
ATOM     17  C   UNL     1       0.283  16.811  18.683  0.00  0.00    +0.000 A 
BRANCH  16  18
ATOM     18  N   UNL     1       0.972  18.187  16.740  0.00  0.00    +0.000 N 
ATOM     19  O   UNL     1       0.546  18.566  15.640  0.00  0.00    +0.000 OA
ATOM     20  O   UNL     1       2.171  18.091  17.035  0.00  0.00    +0.000 OA
ENDBRANCH  16  18
ENDBRANCH  11  12
ENDBRANCH   9  10
BRANCH   5  21
ATOM     21  C   UNL     1       0.115   9.023  21.189  0.00  0.00    +0.000 C 
BRANCH  21  22
ATOM     22  O   UNL     1       1.344   8.932  20.474  0.00  0.00    +0.000 OA
BRANCH  22  23
ATOM     23  C   UNL     1       1.778   7.668  20.146  0.00  0.00    +0.000 A 
ATOM     24  C   UNL     1       2.215   7.492  18.830  0.00  0.00    +0.000 A 
ATOM     25  C   UNL     1       2.670   6.238  18.370  0.00  0.00    +0.000 A 
ATOM     26  C   UNL     1       2.698   5.125  19.217  0.00  0.00    +0.000 A 
ATOM     27  C   UNL     1       3.142   3.774  18.829  0.00  0.00    +0.000 A 
ATOM     28  C   UNL     1       3.620   3.433  17.447  0.00  0.00    +0.000 C 
ATOM     29  C   UNL     1       3.110   2.804  19.757  0.00  0.00    +0.000 A 
ATOM     30  C   UNL     1       2.659   3.006  21.140  0.00  0.00    +0.000 A 
ATOM     31  O   UNL     1       2.653   2.080  21.943  0.00  0.00    +0.000 OA
ATOM     32  O   UNL     1       2.245   4.282  21.474  0.00  0.00    +0.000 OA
ATOM     33  C   UNL     1       2.261   5.330  20.530  0.00  0.00    +0.000 A 
ATOM     34  C   UNL     1       1.808   6.570  21.002  0.00  0.00    +0.000 A 
ENDBRANCH  22  23
ENDBRANCH  21  22
ENDBRANCH   5  21
TORSDOF 6
ENDMDL
MODEL 5
REMARK VINA RESULT:      -8.5      3.304     11.429
REMARK  Name = 
REMARK  9 active torsions:
REMARK  status: ('A' for Active; 'I' for Inactive)
REMARK    1  A    between atoms: C_1  and  C_2
REMARK    2  A    between atoms: C_5  and  C_7
REMARK    3  A    between atoms: C_7  and  O_8
REMARK    4  A    between atoms: O_8  and  C_9
REMARK    5  A    between atoms: C_13  and  C_14
REMARK    6  A    between atoms: C_21  and  C_22
REMARK    7  A    between atoms: C_23  and  N_24
REMARK    8  A    between atoms: N_25  and  C_26
REMARK    9  A    between atoms: C_30  and  N_31
REMARK                            x       y       z     vdW  Elec       q    Type
REMARK                         _______ _______ _______ _____ _____    ______ ____
ROOT
ATOM      1  C   UNL     1      -0.187  13.841  21.600  0.00  0.00    +0.000 C 
ATOM      2  C   UNL     1      -0.132  12.833  20.509  0.00  0.00    +0.000 A 
ATOM      3  N   UNL     1       1.009  12.572  19.860  0.00  0.00    +0.000 NA
ATOM      4  N   UNL     1       0.709  11.592  18.936  0.00  0.00    +0.000 N 
ATOM      5  C   UNL     1       1.785  11.091  18.143  0.00  0.00    +0.000 C 
ATOM      6  O   UNL     1       2.779  11.781  17.944  0.00  0.00    +0.000 OA
ATOM      7  C   UNL     1      -0.649  11.271  18.999  0.00  0.00    +0.000 A 
ATOM      8  C   UNL     1      -1.420  10.351  18.133  0.00  0.00    +0.000 C 
ATOM      9  C   UNL     1      -1.183  12.074  19.983  0.00  0.00    +0.000 A 
ENDROOT
BRANCH   9  10
ATOM     10  N   UNL     1      -2.552  12.116  20.264  0.00  0.00    +0.000 NA
ATOM     11  N   UNL     1      -3.013  13.256  20.464  0.00  0.00    +0.000 NA
BRANCH  11  12
ATOM     12  C   UNL     1      -4.353  13.185  20.903  0.00  0.00    +0.000 A 
ATOM     13  C   UNL     1      -5.379  13.476  19.994  0.00  0.00    +0.000 A 
ATOM     14  C   UNL     1      -6.720  13.480  20.395  0.00  0.00    +0.000 A 
ATOM     15  C   UNL     1      -7.056  13.196  21.719  0.00  0.00    +0.000 A 
ATOM     16  C   UNL     1      -6.039  12.903  22.635  0.00  0.00    +0.000 A 
ATOM     17  C   UNL     1      -4.696  12.901  22.235  0.00  0.00    +0.000 A 
BRANCH  16  18
ATOM     18  N   UNL     1      -6.377  12.605  24.032  0.00  0.00    +0.000 N 
ATOM     19  O   UNL     1      -5.503  12.081  24.736  0.00  0.00    +0.000 OA
ATOM     20  O   UNL     1      -7.515  12.897  24.424  0.00  0.00    +0.000 OA
ENDBRANCH  16  18
ENDBRANCH  11  12
ENDBRANCH   9  10
BRANCH   5  21
ATOM     21  C   UNL     1       1.679   9.630  17.728  0.00  0.00    +0.000 C 
BRANCH  21  22
ATOM     22  O   UNL     1       2.104   8.673  18.694  0.00  0.00    +0.000 OA
BRANCH  22  23
ATOM     23  C   UNL     1       2.764   7.563  18.218  0.00  0.00    +0.000 A 
ATOM     24  C   UNL     1       2.199   6.327  18.546  0.00  0.00    +0.000 A 
ATOM     25  C   UNL     1       2.792   5.116  18.127  0.00  0.00    +0.000 A 
ATOM     26  C   UNL     1       3.967   5.112  17.369  0.00  0.00    +0.000 A 
ATOM     27  C   UNL     1       4.668   3.904  16.897  0.00  0.00    +0.000 A 
ATOM     28  C   UNL     1       4.189   2.511  17.188  0.00  0.00    +0.000 C 
ATOM     29  C   UNL     1       5.790   4.062  16.177  0.00  0.00    +0.000 A 
ATOM     30  C   UNL     1       6.366   5.367  15.830  0.00  0.00    +0.000 A 
ATOM     31  O   UNL     1       7.394   5.447  15.169  0.00  0.00    +0.000 OA
ATOM     32  O   UNL     1       5.689   6.482  16.290  0.00  0.00    +0.000 OA
ATOM     33  C   UNL     1       4.508   6.362  17.050  0.00  0.00    +0.000 A 
ATOM     34  C   UNL     1       3.929   7.573  17.457  0.00  0.00    +0.000 A 
ENDBRANCH  22  23
ENDBRANCH  21  22
ENDBRANCH   5  21
TORSDOF 6
ENDMDL
MODEL 6
REMARK VINA RESULT:      -8.4      2.070      2.679
REMARK  Name = 
REMARK  9 active torsions:
REMARK  status: ('A' for Active; 'I' for Inactive)
REMARK    1  A    between atoms: C_1  and  C_2
REMARK    2  A    between atoms: C_5  and  C_7
REMARK    3  A    between atoms: C_7  and  O_8
REMARK    4  A    between atoms: O_8  and  C_9
REMARK    5  A    between atoms: C_13  and  C_14
REMARK    6  A    between atoms: C_21  and  C_22
REMARK    7  A    between atoms: C_23  and  N_24
REMARK    8  A    between atoms: N_25  and  C_26
REMARK    9  A    between atoms: C_30  and  N_31
REMARK                            x       y       z     vdW  Elec       q    Type
REMARK                         _______ _______ _______ _____ _____    ______ ____
ROOT
ATOM      1  C   UNL     1       2.007   9.105  17.774  0.00  0.00    +0.000 C 
ATOM      2  C   UNL     1       1.544   9.557  19.111  0.00  0.00    +0.000 A 
ATOM      3  N   UNL     1       1.281  10.846  19.356  0.00  0.00    +0.000 NA
ATOM      4  N   UNL     1       0.866  10.910  20.671  0.00  0.00    +0.000 N 
ATOM      5  C   UNL     1       0.467  12.186  21.168  0.00  0.00    +0.000 C 
ATOM      6  O   UNL     1       0.897  13.212  20.654  0.00  0.00    +0.000 OA
ATOM      7  C   UNL     1       0.909   9.639  21.250  0.00  0.00    +0.000 A 
ATOM      8  C   UNL     1       0.647   9.258  22.656  0.00  0.00    +0.000 C 
ATOM      9  C   UNL     1       1.358   8.788  20.265  0.00  0.00    +0.000 A 
ENDROOT
BRANCH   9  10
ATOM     10  N   UNL     1       1.635   7.438  20.500  0.00  0.00    +0.000 NA
ATOM     11  N   UNL     1       1.991   6.791  19.497  0.00  0.00    +0.000 NA
BRANCH  11  12
ATOM     12  C   UNL     1       2.085   5.414  19.795  0.00  0.00    +0.000 A 
ATOM     13  C   UNL     1       1.953   4.999  21.126  0.00  0.00    +0.000 A 
ATOM     14  C   UNL     1       2.100   3.654  21.482  0.00  0.00    +0.000 A 
ATOM     15  C   UNL     1       2.386   2.699  20.506  0.00  0.00    +0.000 A 
ATOM     16  C   UNL     1       2.519   3.102  19.173  0.00  0.00    +0.000 A 
ATOM     17  C   UNL     1       2.375   4.450  18.816  0.00  0.00    +0.000 A 
BRANCH  16  18
ATOM     18  N   UNL     1       2.823   2.109  18.135  0.00  0.00    +0.000 N 
ATOM     19  O   UNL     1       3.527   1.141  18.454  0.00  0.00    +0.000 OA
ATOM     20  O   UNL     1       2.356   2.297  17.003  0.00  0.00    +0.000 OA
ENDBRANCH  16  18
ENDBRANCH  11  12
ENDBRANCH   9  10
BRANCH   5  21
ATOM     21  C   UNL     1      -0.624  12.172  22.230  0.00  0.00    +0.000 C 
BRANCH  21  22
ATOM     22  O   UNL     1      -1.676  13.117  22.060  0.00  0.00    +0.000 OA
BRANCH  22  23
ATOM     23  C   UNL     1      -2.630  12.820  21.113  0.00  0.00    +0.000 A 
ATOM     24  C   UNL     1      -3.960  12.987  21.509  0.00  0.00    +0.000 A 
ATOM     25  C   UNL     1      -5.027  12.701  20.632  0.00  0.00    +0.000 A 
ATOM     26  C   UNL     1      -4.790  12.238  19.333  0.00  0.00    +0.000 A 
ATOM     27  C   UNL     1      -5.834  11.900  18.349  0.00  0.00    +0.000 A 
ATOM     28  C   UNL     1      -7.303  12.013  18.640  0.00  0.00    +0.000 C 
ATOM     29  C   UNL     1      -5.448  11.466  17.138  0.00  0.00    +0.000 A 
ATOM     30  C   UNL     1      -4.047  11.306  16.732  0.00  0.00    +0.000 A 
ATOM     31  O   UNL     1      -3.757  10.905  15.611  0.00  0.00    +0.000 OA
ATOM     32  O   UNL     1      -3.090  11.627  17.677  0.00  0.00    +0.000 OA
ATOM     33  C   UNL     1      -3.451  12.085  18.961  0.00  0.00    +0.000 A 
ATOM     34  C   UNL     1      -2.379  12.368  19.821  0.00  0.00    +0.000 A 
ENDBRANCH  22  23
ENDBRANCH  21  22
ENDBRANCH   5  21
TORSDOF 6
ENDMDL
MODEL 7
REMARK VINA RESULT:      -8.3      1.923      2.490
REMARK  Name = 
REMARK  9 active torsions:
REMARK  status: ('A' for Active; 'I' for Inactive)
REMARK    1  A    between atoms: C_1  and  C_2
REMARK    2  A    between atoms: C_5  and  C_7
REMARK    3  A    between atoms: C_7  and  O_8
REMARK    4  A    between atoms: O_8  and  C_9
REMARK    5  A    between atoms: C_13  and  C_14
REMARK    6  A    between atoms: C_21  and  C_22
REMARK    7  A    between atoms: C_23  and  N_24
REMARK    8  A    between atoms: N_25  and  C_26
REMARK    9  A    between atoms: C_30  and  N_31
REMARK                            x       y       z     vdW  Elec       q    Type
REMARK                         _______ _______ _______ _____ _____    ______ ____
ROOT
ATOM      1  C   UNL     1       1.594  10.059  18.212  0.00  0.00    +0.000 C 
ATOM      2  C   UNL     1       1.030  10.286  19.567  0.00  0.00    +0.000 A 
ATOM      3  N   UNL     1       0.733  11.518  20.000  0.00  0.00    +0.000 NA
ATOM      4  N   UNL     1       0.224  11.364  21.273  0.00  0.00    +0.000 N 
ATOM      5  C   UNL     1      -0.227  12.542  21.942  0.00  0.00    +0.000 C 
ATOM      6  O   UNL     1       0.227  13.639  21.635  0.00  0.00    +0.000 OA
ATOM      7  C   UNL     1       0.241  10.016  21.639  0.00  0.00    +0.000 A 
ATOM      8  C   UNL     1      -0.118   9.409  22.940  0.00  0.00    +0.000 C 
ATOM      9  C   UNL     1       0.770   9.338  20.563  0.00  0.00    +0.000 A 
ENDROOT
BRANCH   9  10
ATOM     10  N   UNL     1       1.047   7.968  20.595  0.00  0.00    +0.000 NA
ATOM     11  N   UNL     1       2.036   7.615  19.925  0.00  0.00    +0.000 NA
BRANCH  11  12
ATOM     12  C   UNL     1       2.136   6.207  19.881  0.00  0.00    +0.000 A 
ATOM     13  C   UNL     1       1.842   5.472  21.036  0.00  0.00    +0.000 A 
ATOM     14  C   UNL     1       1.986   4.079  21.062  0.00  0.00    +0.000 A 
ATOM     15  C   UNL     1       2.431   3.400  19.928  0.00  0.00    +0.000 A 
ATOM     16  C   UNL     1       2.727   4.126  18.768  0.00  0.00    +0.000 A 
ATOM     17  C   UNL     1       2.586   5.520  18.742  0.00  0.00    +0.000 A 
BRANCH  16  18
ATOM     18  N   UNL     1       3.200   3.425  17.568  0.00  0.00    +0.000 N 
ATOM     19  O   UNL     1       4.418   3.425  17.344  0.00  0.00    +0.000 OA
ATOM     20  O   UNL     1       2.353   2.874  16.852  0.00  0.00    +0.000 OA
ENDBRANCH  16  18
ENDBRANCH  11  12
ENDBRANCH   9  10
BRANCH   5  21
ATOM     21  C   UNL     1      -1.392  12.353  22.904  0.00  0.00    +0.000 C 
BRANCH  21  22
ATOM     22  O   UNL     1      -2.461  13.286  22.783  0.00  0.00    +0.000 OA
BRANCH  22  23
ATOM     23  C   UNL     1      -3.322  13.108  21.724  0.00  0.00    +0.000 A 
ATOM     24  C   UNL     1      -4.625  13.580  21.907  0.00  0.00    +0.000 A 
ATOM     25  C   UNL     1      -5.603  13.442  20.899  0.00  0.00    +0.000 A 
ATOM     26  C   UNL     1      -5.301  12.827  19.680  0.00  0.00    +0.000 A 
ATOM     27  C   UNL     1      -6.254  12.624  18.573  0.00  0.00    +0.000 A 
ATOM     28  C   UNL     1      -7.689  13.062  18.635  0.00  0.00    +0.000 C 
ATOM     29  C   UNL     1      -5.814  12.012  17.461  0.00  0.00    +0.000 A 
ATOM     30  C   UNL     1      -4.439  11.532  17.278  0.00  0.00    +0.000 A 
ATOM     31  O   UNL     1      -4.097  10.981  16.239  0.00  0.00    +0.000 OA
ATOM     32  O   UNL     1      -3.569  11.732  18.334  0.00  0.00    +0.000 OA
ATOM     33  C   UNL     1      -3.990  12.368  19.521  0.00  0.00    +0.000 A 
ATOM     34  C   UNL     1      -3.006  12.500  20.512  0.00  0.00    +0.000 A 
ENDBRANCH  22  23
ENDBRANCH  21  22
ENDBRANCH   5  21
TORSDOF 6
ENDMDL
MODEL 8
REMARK VINA RESULT:      -8.2      4.728      7.541
REMARK  Name = 
REMARK  9 active torsions:
REMARK  status: ('A' for Active; 'I' for Inactive)
REMARK    1  A    between atoms: C_1  and  C_2
REMARK    2  A    between atoms: C_5  and  C_7
REMARK    3  A    between atoms: C_7  and  O_8
REMARK    4  A    between atoms: O_8  and  C_9
REMARK    5  A    between atoms: C_13  and  C_14
REMARK    6  A    between atoms: C_21  and  C_22
REMARK    7  A    between atoms: C_23  and  N_24
REMARK    8  A    between atoms: N_25  and  C_26
REMARK    9  A    between atoms: C_30  and  N_31
REMARK                            x       y       z     vdW  Elec       q    Type
REMARK                         _______ _______ _______ _____ _____    ______ ____
ROOT
ATOM      1  C   UNL     1       3.929   1.307  18.591  0.00  0.00    +0.000 C 
ATOM      2  C   UNL     1       3.457   2.715  18.632  0.00  0.00    +0.000 A 
ATOM      3  N   UNL     1       2.667   3.156  19.619  0.00  0.00    +0.000 NA
ATOM      4  N   UNL     1       2.436   4.491  19.357  0.00  0.00    +0.000 N 
ATOM      5  C   UNL     1       1.655   5.215  20.307  0.00  0.00    +0.000 C 
ATOM      6  O   UNL     1       0.859   4.627  21.030  0.00  0.00    +0.000 OA
ATOM      7  C   UNL     1       3.069   4.866  18.171  0.00  0.00    +0.000 A 
ATOM      8  C   UNL     1       3.011   6.165  17.464  0.00  0.00    +0.000 C 
ATOM      9  C   UNL     1       3.699   3.733  17.703  0.00  0.00    +0.000 A 
ENDROOT
BRANCH   9  10
ATOM     10  N   UNL     1       4.355   3.688  16.469  0.00  0.00    +0.000 NA
ATOM     11  N   UNL     1       5.543   4.063  16.490  0.00  0.00    +0.000 NA
BRANCH  11  12
ATOM     12  C   UNL     1       6.067   4.142  15.181  0.00  0.00    +0.000 A 
ATOM     13  C   UNL     1       7.130   5.018  14.930  0.00  0.00    +0.000 A 
ATOM     14  C   UNL     1       7.644   5.179  13.637  0.00  0.00    +0.000 A 
ATOM     15  C   UNL     1       7.097   4.464  12.572  0.00  0.00    +0.000 A 
ATOM     16  C   UNL     1       6.035   3.585  12.813  0.00  0.00    +0.000 A 
ATOM     17  C   UNL     1       5.518   3.426  14.105  0.00  0.00    +0.000 A 
BRANCH  16  18
ATOM     18  N   UNL     1       5.446   2.828  11.701  0.00  0.00    +0.000 N 
ATOM     19  O   UNL     1       4.358   3.216  11.253  0.00  0.00    +0.000 OA
ATOM     20  O   UNL     1       6.073   1.848  11.276  0.00  0.00    +0.000 OA
ENDBRANCH  16  18
ENDBRANCH  11  12
ENDBRANCH   9  10
BRANCH   5  21
ATOM     21  C   UNL     1       2.002   6.690  20.464  0.00  0.00    +0.000 C 
BRANCH  21  22
ATOM     22  O   UNL     1       0.947   7.537  20.908  0.00  0.00    +0.000 OA
BRANCH  22  23
ATOM     23  C   UNL     1       1.035   8.868  20.567  0.00  0.00    +0.000 A 
ATOM     24  C   UNL     1       1.425   9.139  19.252  0.00  0.00    +0.000 A 
ATOM     25  C   UNL     1       1.565  10.465  18.788  0.00  0.00    +0.000 A 
ATOM     26  C   UNL     1       1.318  11.554  19.629  0.00  0.00    +0.000 A 
ATOM     27  C   UNL     1       1.448  12.971  19.244  0.00  0.00    +0.000 A 
ATOM     28  C   UNL     1       1.876  13.413  17.874  0.00  0.00    +0.000 C 
ATOM     29  C   UNL     1       1.177  13.907  20.167  0.00  0.00    +0.000 A 
ATOM     30  C   UNL     1       0.756  13.608  21.541  0.00  0.00    +0.000 A 
ATOM     31  O   UNL     1       0.522  14.507  22.340  0.00  0.00    +0.000 OA
ATOM     32  O   UNL     1       0.646  12.271  21.876  0.00  0.00    +0.000 OA
ATOM     33  C   UNL     1       0.924  11.254  20.938  0.00  0.00    +0.000 A 
ATOM     34  C   UNL     1       0.778   9.943  21.413  0.00  0.00    +0.000 A 
ENDBRANCH  22  23
ENDBRANCH  21  22
ENDBRANCH   5  21
TORSDOF 6
ENDMDL
MODEL 9
REMARK VINA RESULT:      -8.2      3.502     11.291
REMARK  Name = 
REMARK  9 active torsions:
REMARK  status: ('A' for Active; 'I' for Inactive)
REMARK    1  A    between atoms: C_1  and  C_2
REMARK    2  A    between atoms: C_5  and  C_7
REMARK    3  A    between atoms: C_7  and  O_8
REMARK    4  A    between atoms: O_8  and  C_9
REMARK    5  A    between atoms: C_13  and  C_14
REMARK    6  A    between atoms: C_21  and  C_22
REMARK    7  A    between atoms: C_23  and  N_24
REMARK    8  A    between atoms: N_25  and  C_26
REMARK    9  A    between atoms: C_30  and  N_31
REMARK                            x       y       z     vdW  Elec       q    Type
REMARK                         _______ _______ _______ _____ _____    ______ ____
ROOT
ATOM      1  C   UNL     1      -3.054  12.523  23.511  0.00  0.00    +0.000 C 
ATOM      2  C   UNL     1      -2.335  12.158  22.263  0.00  0.00    +0.000 A 
ATOM      3  N   UNL     1      -1.151  11.537  22.298  0.00  0.00    +0.000 NA
ATOM      4  N   UNL     1      -0.782  11.339  20.983  0.00  0.00    +0.000 N 
ATOM      5  C   UNL     1       0.437  10.634  20.747  0.00  0.00    +0.000 C 
ATOM      6  O   UNL     1       1.320  10.625  21.597  0.00  0.00    +0.000 OA
ATOM      7  C   UNL     1      -1.744  11.879  20.127  0.00  0.00    +0.000 A 
ATOM      8  C   UNL     1      -1.713  11.979  18.651  0.00  0.00    +0.000 C 
ATOM      9  C   UNL     1      -2.718  12.415  20.941  0.00  0.00    +0.000 A 
ENDROOT
BRANCH   9  10
ATOM     10  N   UNL     1      -3.801  13.145  20.444  0.00  0.00    +0.000 NA
ATOM     11  N   UNL     1      -4.860  12.499  20.325  0.00  0.00    +0.000 NA
BRANCH  11  12
ATOM     12  C   UNL     1      -5.844  13.266  19.663  0.00  0.00    +0.000 A 
ATOM     13  C   UNL     1      -6.825  12.607  18.911  0.00  0.00    +0.000 A 
ATOM     14  C   UNL     1      -7.784  13.324  18.186  0.00  0.00    +0.000 A 
ATOM     15  C   UNL     1      -7.774  14.719  18.202  0.00  0.00    +0.000 A 
ATOM     16  C   UNL     1      -6.799  15.387  18.951  0.00  0.00    +0.000 A 
ATOM     17  C   UNL     1      -5.837  14.670  19.674  0.00  0.00    +0.000 A 
BRANCH  16  18
ATOM     18  N   UNL     1      -6.774  16.855  18.973  0.00  0.00    +0.000 N 
ATOM     19  O   UNL     1      -7.198  17.454  17.975  0.00  0.00    +0.000 OA
ATOM     20  O   UNL     1      -6.331  17.408  19.990  0.00  0.00    +0.000 OA
ENDBRANCH  16  18
ENDBRANCH  11  12
ENDBRANCH   9  10
BRANCH   5  21
ATOM     21  C   UNL     1       0.479   9.789  19.481  0.00  0.00    +0.000 C 
BRANCH  21  22
ATOM     22  O   UNL     1       1.775   9.439  19.005  0.00  0.00    +0.000 OA
BRANCH  22  23
ATOM     23  C   UNL     1       2.110   8.105  19.044  0.00  0.00    +0.000 A 
ATOM     24  C   UNL     1       2.735   7.597  17.901  0.00  0.00    +0.000 A 
ATOM     25  C   UNL     1       3.114   6.240  17.815  0.00  0.00    +0.000 A 
ATOM     26  C   UNL     1       2.877   5.356  18.873  0.00  0.00    +0.000 A 
ATOM     27  C   UNL     1       3.222   3.922  18.875  0.00  0.00    +0.000 A 
ATOM     28  C   UNL     1       3.878   3.235  17.712  0.00  0.00    +0.000 C 
ATOM     29  C   UNL     1       2.929   3.200  19.968  0.00  0.00    +0.000 A 
ATOM     30  C   UNL     1       2.283   3.750  21.166  0.00  0.00    +0.000 A 
ATOM     31  O   UNL     1       2.041   3.040  22.135  0.00  0.00    +0.000 OA
ATOM     32  O   UNL     1       1.967   5.097  21.135  0.00  0.00    +0.000 OA
ATOM     33  C   UNL     1       2.256   5.892  20.006  0.00  0.00    +0.000 A 
ATOM     34  C   UNL     1       1.876   7.238  20.107  0.00  0.00    +0.000 A 
ENDBRANCH  22  23
ENDBRANCH  21  22
ENDBRANCH   5  21
TORSDOF 6
ENDMDL
