MODEL 1
REMARK VINA RESULT:      -8.9      0.000      0.000
REMARK  Name = 
REMARK  4 active torsions:
REMARK  status: ('A' for Active; 'I' for Inactive)
REMARK    1  A    between atoms: C_1  and  C_2
REMARK    2  A    between atoms: C_4  and  C_5
REMARK    3  A    between atoms: C_5  and  C_6
REMARK    4  A    between atoms: C_9  and  C_10
REMARK                            x       y       z     vdW  Elec       q    Type
REMARK                         _______ _______ _______ _____ _____    ______ ____
ROOT
ATOM      1  C   UNL     1       5.944   5.698  16.265  0.00  0.00    +0.000 A 
ATOM      2  N   UNL     1       5.316   6.803  15.824  0.00  0.00    +0.000 NA
ATOM      3  O   UNL     1       4.273   6.954  16.739  0.00  0.00    +0.000 OA
ATOM      4  C   UNL     1       4.374   5.926  17.644  0.00  0.00    +0.000 A 
ATOM      5  N   UNL     1       5.400   5.137  17.377  0.00  0.00    +0.000 NA
ENDROOT
BRANCH   4   6
ATOM      6  C   UNL     1       3.544   5.947  18.870  0.00  0.00    +0.000 C 
ATOM      7  C   UNL     1       2.794   7.280  19.020  0.00  0.00    +0.000 C 
ATOM      8  C   UNL     1       1.839   7.374  20.219  0.00  0.00    +0.000 C 
ATOM      9  C   UNL     1       1.273   6.073  20.773  0.00  0.00    +0.000 C 
ATOM     10  C   UNL     1       2.059   4.817  20.451  0.00  0.00    +0.000 A 
ATOM     11  C   UNL     1       1.544   3.640  20.974  0.00  0.00    +0.000 A 
ATOM     12  C   UNL     1       0.739   2.966  20.080  0.00  0.00    +0.000 A 
ATOM     13  C   UNL     1       1.114   2.962  18.738  0.00  0.00    +0.000 A 
ATOM     14  C   UNL     1       2.163   3.790  18.302  0.00  0.00    +0.000 A 
ATOM     15  C   UNL     1       2.635   4.778  19.168  0.00  0.00    +0.000 A 
ENDBRANCH   4   6
BRANCH   1  16
ATOM     16  C   UNL     1       7.203   5.185  15.643  0.00  0.00    +0.000 C 
BRANCH  16  20
ATOM     17  C   UNL     1       5.604   2.673  11.700  0.00  0.00    +0.000 C 
ATOM     18  C   UNL     1       6.268   3.575  12.653  0.00  0.00    +0.000 A 
ATOM     19  N   UNL     1       6.135   3.670  13.958  0.00  0.00    +0.000 NA
ATOM     20  C   UNL     1       6.984   4.702  14.254  0.00  0.00    +0.000 A 
ATOM     21  N   UNL     1       7.649   5.211  13.204  0.00  0.00    +0.000 NA
ATOM     22  O   UNL     1       7.164   4.460  12.131  0.00  0.00    +0.000 OA
ENDBRANCH  16  20
ENDBRANCH   1  16
TORSDOF 3
ENDMDL
MODEL 2
REMARK VINA RESULT:      -8.4      1.551      1.895
REMARK  Name = 
REMARK  4 active torsions:
REMARK  status: ('A' for Active; 'I' for Inactive)
REMARK    1  A    between atoms: C_1  and  C_2
REMARK    2  A    between atoms: C_4  and  C_5
REMARK    3  A    between atoms: C_5  and  C_6
REMARK    4  A    between atoms: C_9  and  C_10
REMARK                            x       y       z     vdW  Elec       q    Type
REMARK                         _______ _______ _______ _____ _____    ______ ____
ROOT
ATOM      1  C   UNL     1       6.673   5.532  17.644  0.00  0.00    +0.000 A 
ATOM      2  N   UNL     1       7.238   4.674  18.513  0.00  0.00    +0.000 NA
ATOM      3  O   UNL     1       6.237   4.496  19.470  0.00  0.00    +0.000 OA
ATOM      4  C   UNL     1       5.166   5.263  19.085  0.00  0.00    +0.000 A 
ATOM      5  N   UNL     1       5.405   5.910  17.958  0.00  0.00    +0.000 NA
ENDROOT
BRANCH   4   6
ATOM      6  C   UNL     1       3.867   5.105  19.779  0.00  0.00    +0.000 C 
ATOM      7  C   UNL     1       3.076   6.422  19.801  0.00  0.00    +0.000 C 
ATOM      8  C   UNL     1       1.676   6.346  20.427  0.00  0.00    +0.000 C 
ATOM      9  C   UNL     1       0.975   4.994  20.424  0.00  0.00    +0.000 C 
ATOM     10  C   UNL     1       1.873   3.780  20.282  0.00  0.00    +0.000 A 
ATOM     11  C   UNL     1       1.226   2.553  20.296  0.00  0.00    +0.000 A 
ATOM     12  C   UNL     1       0.948   2.082  19.031  0.00  0.00    +0.000 A 
ATOM     13  C   UNL     1       1.894   2.297  18.030  0.00  0.00    +0.000 A 
ATOM     14  C   UNL     1       2.990   3.142  18.275  0.00  0.00    +0.000 A 
ATOM     15  C   UNL     1       2.972   3.942  19.418  0.00  0.00    +0.000 A 
ENDBRANCH   4   6
BRANCH   1  16
ATOM     16  C   UNL     1       7.345   5.956  16.378  0.00  0.00    +0.000 C 
BRANCH  16  20
ATOM     17  C   UNL     1       7.042   3.921  11.886  0.00  0.00    +0.000 C 
ATOM     18  C   UNL     1       6.922   4.289  13.304  0.00  0.00    +0.000 A 
ATOM     19  N   UNL     1       7.478   5.276  13.971  0.00  0.00    +0.000 NA
ATOM     20  C   UNL     1       7.005   5.065  15.238  0.00  0.00    +0.000 A 
ATOM     21  N   UNL     1       6.165   4.025  15.365  0.00  0.00    +0.000 NA
ATOM     22  O   UNL     1       6.114   3.502  14.071  0.00  0.00    +0.000 OA
ENDBRANCH  16  20
ENDBRANCH   1  16
TORSDOF 3
ENDMDL
MODEL 3
REMARK VINA RESULT:      -7.7      1.599      2.052
REMARK  Name = 
REMARK  4 active torsions:
REMARK  status: ('A' for Active; 'I' for Inactive)
REMARK    1  A    between atoms: C_1  and  C_2
REMARK    2  A    between atoms: C_4  and  C_5
REMARK    3  A    between atoms: C_5  and  C_6
REMARK    4  A    between atoms: C_9  and  C_10
REMARK                            x       y       z     vdW  Elec       q    Type
REMARK                         _______ _______ _______ _____ _____    ______ ____
ROOT
ATOM      1  C   UNL     1       6.865   5.004  15.190  0.00  0.00    +0.000 A 
ATOM      2  N   UNL     1       7.623   4.354  16.093  0.00  0.00    +0.000 NA
ATOM      3  O   UNL     1       6.902   4.514  17.276  0.00  0.00    +0.000 OA
ATOM      4  C   UNL     1       5.779   5.242  16.973  0.00  0.00    +0.000 A 
ATOM      5  N   UNL     1       5.728   5.555  15.691  0.00  0.00    +0.000 NA
ENDROOT
BRANCH   4   6
ATOM      6  C   UNL     1       4.701   5.377  17.981  0.00  0.00    +0.000 C 
ATOM      7  C   UNL     1       3.881   6.657  17.760  0.00  0.00    +0.000 C 
ATOM      8  C   UNL     1       2.685   6.851  18.703  0.00  0.00    +0.000 C 
ATOM      9  C   UNL     1       2.067   5.605  19.324  0.00  0.00    +0.000 C 
ATOM     10  C   UNL     1       2.956   4.378  19.374  0.00  0.00    +0.000 A 
ATOM     11  C   UNL     1       2.389   3.253  19.955  0.00  0.00    +0.000 A 
ATOM     12  C   UNL     1       1.828   2.400  19.030  0.00  0.00    +0.000 A 
ATOM     13  C   UNL     1       2.486   2.230  17.812  0.00  0.00    +0.000 A 
ATOM     14  C   UNL     1       3.569   3.063  17.481  0.00  0.00    +0.000 A 
ATOM     15  C   UNL     1       3.799   4.198  18.261  0.00  0.00    +0.000 A 
ENDBRANCH   4   6
BRANCH   1  16
ATOM     16  C   UNL     1       7.194   5.030  13.732  0.00  0.00    +0.000 C 
BRANCH  16  20
ATOM     17  C   UNL     1       6.150   1.111  10.911  0.00  0.00    +0.000 C 
ATOM     18  C   UNL     1       6.135   2.311  11.759  0.00  0.00    +0.000 A 
ATOM     19  N   UNL     1       7.134   3.000  12.266  0.00  0.00    +0.000 NA
ATOM     20  C   UNL     1       6.478   3.968  12.978  0.00  0.00    +0.000 A 
ATOM     21  N   UNL     1       5.138   3.922  12.900  0.00  0.00    +0.000 NA
ATOM     22  O   UNL     1       4.908   2.809  12.088  0.00  0.00    +0.000 OA
ENDBRANCH  16  20
ENDBRANCH   1  16
TORSDOF 3
ENDMDL
MODEL 4
REMARK VINA RESULT:      -7.7      1.653      2.310
REMARK  Name = 
REMARK  4 active torsions:
REMARK  status: ('A' for Active; 'I' for Inactive)
REMARK    1  A    between atoms: C_1  and  C_2
REMARK    2  A    between atoms: C_4  and  C_5
REMARK    3  A    between atoms: C_5  and  C_6
REMARK    4  A    between atoms: C_9  and  C_10
REMARK                            x       y       z     vdW  Elec       q    Type
REMARK                         _______ _______ _______ _____ _____    ______ ____
ROOT
ATOM      1  C   UNL     1       6.939   4.898  14.750  0.00  0.00    +0.000 A 
ATOM      2  N   UNL     1       7.498   4.151  15.721  0.00  0.00    +0.000 NA
ATOM      3  O   UNL     1       6.784   4.534  16.857  0.00  0.00    +0.000 OA
ATOM      4  C   UNL     1       5.863   5.472  16.462  0.00  0.00    +0.000 A 
ATOM      5  N   UNL     1       5.933   5.713  15.166  0.00  0.00    +0.000 NA
ENDROOT
BRANCH   4   6
ATOM      6  C   UNL     1       4.803   5.899  17.406  0.00  0.00    +0.000 C 
ATOM      7  C   UNL     1       4.201   7.252  17.001  0.00  0.00    +0.000 C 
ATOM      8  C   UNL     1       3.035   7.747  17.869  0.00  0.00    +0.000 C 
ATOM      9  C   UNL     1       2.217   6.700  18.615  0.00  0.00    +0.000 C 
ATOM     10  C   UNL     1       2.900   5.366  18.847  0.00  0.00    +0.000 A 
ATOM     11  C   UNL     1       2.152   4.426  19.540  0.00  0.00    +0.000 A 
ATOM     12  C   UNL     1       1.479   3.560  18.706  0.00  0.00    +0.000 A 
ATOM     13  C   UNL     1       2.121   3.138  17.543  0.00  0.00    +0.000 A 
ATOM     14  C   UNL     1       3.328   3.744  17.152  0.00  0.00    +0.000 A 
ATOM     15  C   UNL     1       3.722   4.919  17.795  0.00  0.00    +0.000 A 
ENDBRANCH   4   6
BRANCH   1  16
ATOM     16  C   UNL     1       7.321   4.766  13.311  0.00  0.00    +0.000 C 
BRANCH  16  20
ATOM     17  C   UNL     1       3.329   2.931  11.051  0.00  0.00    +0.000 C 
ATOM     18  C   UNL     1       4.648   3.186  11.649  0.00  0.00    +0.000 A 
ATOM     19  N   UNL     1       5.095   4.244  12.289  0.00  0.00    +0.000 NA
ATOM     20  C   UNL     1       6.388   3.885  12.562  0.00  0.00    +0.000 A 
ATOM     21  N   UNL     1       6.735   2.654  12.153  0.00  0.00    +0.000 NA
ATOM     22  O   UNL     1       5.571   2.189  11.535  0.00  0.00    +0.000 OA
ENDBRANCH  16  20
ENDBRANCH   1  16
TORSDOF 3
ENDMDL
MODEL 5
REMARK VINA RESULT:      -7.7      1.587      2.276
REMARK  Name = 
REMARK  4 active torsions:
REMARK  status: ('A' for Active; 'I' for Inactive)
REMARK    1  A    between atoms: C_1  and  C_2
REMARK    2  A    between atoms: C_4  and  C_5
REMARK    3  A    between atoms: C_5  and  C_6
REMARK    4  A    between atoms: C_9  and  C_10
REMARK                            x       y       z     vdW  Elec       q    Type
REMARK                         _______ _______ _______ _____ _____    ______ ____
ROOT
ATOM      1  C   UNL     1       6.447   4.837  14.669  0.00  0.00    +0.000 A 
ATOM      2  N   UNL     1       6.760   3.836  15.512  0.00  0.00    +0.000 NA
ATOM      3  O   UNL     1       6.145   4.229  16.701  0.00  0.00    +0.000 OA
ATOM      4  C   UNL     1       5.520   5.427  16.460  0.00  0.00    +0.000 A 
ATOM      5  N   UNL     1       5.687   5.825  15.212  0.00  0.00    +0.000 NA
ENDROOT
BRANCH   4   6
ATOM      6  C   UNL     1       4.589   5.983  17.470  0.00  0.00    +0.000 C 
ATOM      7  C   UNL     1       4.028   7.344  17.030  0.00  0.00    +0.000 C 
ATOM      8  C   UNL     1       2.988   7.970  17.971  0.00  0.00    +0.000 C 
ATOM      9  C   UNL     1       2.192   7.030  18.866  0.00  0.00    +0.000 C 
ATOM     10  C   UNL     1       2.816   5.672  19.125  0.00  0.00    +0.000 A 
ATOM     11  C   UNL     1       2.090   4.830  19.954  0.00  0.00    +0.000 A 
ATOM     12  C   UNL     1       1.284   3.956  19.255  0.00  0.00    +0.000 A 
ATOM     13  C   UNL     1       1.779   3.418  18.068  0.00  0.00    +0.000 A 
ATOM     14  C   UNL     1       2.972   3.918  17.518  0.00  0.00    +0.000 A 
ATOM     15  C   UNL     1       3.498   5.104  18.033  0.00  0.00    +0.000 A 
ENDBRANCH   4   6
BRANCH   1  16
ATOM     16  C   UNL     1       6.818   4.816  13.221  0.00  0.00    +0.000 C 
BRANCH  16  20
ATOM     17  C   UNL     1       6.068   0.549  10.846  0.00  0.00    +0.000 C 
ATOM     18  C   UNL     1       5.974   1.868  11.490  0.00  0.00    +0.000 A 
ATOM     19  N   UNL     1       6.901   2.586  12.085  0.00  0.00    +0.000 NA
ATOM     20  C   UNL     1       6.189   3.680  12.498  0.00  0.00    +0.000 A 
ATOM     21  N   UNL     1       4.891   3.678  12.154  0.00  0.00    +0.000 NA
ATOM     22  O   UNL     1       4.746   2.461  11.484  0.00  0.00    +0.000 OA
ENDBRANCH  16  20
ENDBRANCH   1  16
TORSDOF 3
ENDMDL
MODEL 6
REMARK VINA RESULT:      -7.7      4.111      7.165
REMARK  Name = 
REMARK  4 active torsions:
REMARK  status: ('A' for Active; 'I' for Inactive)
REMARK    1  A    between atoms: C_1  and  C_2
REMARK    2  A    between atoms: C_4  and  C_5
REMARK    3  A    between atoms: C_5  and  C_6
REMARK    4  A    between atoms: C_9  and  C_10
REMARK                            x       y       z     vdW  Elec       q    Type
REMARK                         _______ _______ _______ _____ _____    ______ ____
ROOT
ATOM      1  C   UNL     1       1.604   9.236  18.889  0.00  0.00    +0.000 A 
ATOM      2  N   UNL     1       2.004   9.561  17.646  0.00  0.00    +0.000 NA
ATOM      3  O   UNL     1       2.600   8.383  17.194  0.00  0.00    +0.000 OA
ATOM      4  C   UNL     1       2.500   7.462  18.206  0.00  0.00    +0.000 A 
ATOM      5  N   UNL     1       1.886   7.960  19.264  0.00  0.00    +0.000 NA
ENDROOT
BRANCH   4   6
ATOM      6  C   UNL     1       2.839   6.044  17.942  0.00  0.00    +0.000 C 
ATOM      7  C   UNL     1       4.359   5.836  17.849  0.00  0.00    +0.000 C 
ATOM      8  C   UNL     1       4.820   4.384  17.658  0.00  0.00    +0.000 C 
ATOM      9  C   UNL     1       3.891   3.279  18.144  0.00  0.00    +0.000 C 
ATOM     10  C   UNL     1       2.431   3.659  18.298  0.00  0.00    +0.000 A 
ATOM     11  C   UNL     1       1.591   2.641  18.726  0.00  0.00    +0.000 A 
ATOM     12  C   UNL     1       1.394   2.652  20.090  0.00  0.00    +0.000 A 
ATOM     13  C   UNL     1       1.281   3.887  20.726  0.00  0.00    +0.000 A 
ATOM     14  C   UNL     1       1.565   5.067  20.016  0.00  0.00    +0.000 A 
ATOM     15  C   UNL     1       2.194   4.962  18.775  0.00  0.00    +0.000 A 
ENDBRANCH   4   6
BRANCH   1  16
ATOM     16  C   UNL     1       0.819  10.171  19.752  0.00  0.00    +0.000 C 
BRANCH  16  20
ATOM     17  C   UNL     1      -3.208  11.250  17.101  0.00  0.00    +0.000 C 
ATOM     18  C   UNL     1      -1.945  11.248  17.853  0.00  0.00    +0.000 A 
ATOM     19  N   UNL     1      -1.312  10.255  18.438  0.00  0.00    +0.000 NA
ATOM     20  C   UNL     1      -0.231  10.892  18.986  0.00  0.00    +0.000 A 
ATOM     21  N   UNL     1      -0.158  12.209  18.733  0.00  0.00    +0.000 NA
ATOM     22  O   UNL     1      -1.309  12.448  17.979  0.00  0.00    +0.000 OA
ENDBRANCH  16  20
ENDBRANCH   1  16
TORSDOF 3
ENDMDL
MODEL 7
REMARK VINA RESULT:      -7.6      1.288      1.982
REMARK  Name = 
REMARK  4 active torsions:
REMARK  status: ('A' for Active; 'I' for Inactive)
REMARK    1  A    between atoms: C_1  and  C_2
REMARK    2  A    between atoms: C_4  and  C_5
REMARK    3  A    between atoms: C_5  and  C_6
REMARK    4  A    between atoms: C_9  and  C_10
REMARK                            x       y       z     vdW  Elec       q    Type
REMARK                         _______ _______ _______ _____ _____    ______ ____
ROOT
ATOM      1  C   UNL     1       5.755   5.556  16.465  0.00  0.00    +0.000 A 
ATOM      2  N   UNL     1       5.340   6.812  16.714  0.00  0.00    +0.000 NA
ATOM      3  O   UNL     1       4.125   6.613  17.371  0.00  0.00    +0.000 OA
ATOM      4  C   UNL     1       3.926   5.258  17.457  0.00  0.00    +0.000 A 
ATOM      5  N   UNL     1       4.920   4.581  16.909  0.00  0.00    +0.000 NA
ENDROOT
BRANCH   4   6
ATOM      6  C   UNL     1       2.833   4.731  18.307  0.00  0.00    +0.000 C 
ATOM      7  C   UNL     1       1.696   4.141  17.460  0.00  0.00    +0.000 C 
ATOM      8  C   UNL     1       0.548   3.493  18.247  0.00  0.00    +0.000 C 
ATOM      9  C   UNL     1       0.858   2.969  19.643  0.00  0.00    +0.000 C 
ATOM     10  C   UNL     1       2.079   3.562  20.318  0.00  0.00    +0.000 A 
ATOM     11  C   UNL     1       2.344   3.089  21.595  0.00  0.00    +0.000 A 
ATOM     12  C   UNL     1       3.253   2.053  21.603  0.00  0.00    +0.000 A 
ATOM     13  C   UNL     1       4.319   2.111  20.707  0.00  0.00    +0.000 A 
ATOM     14  C   UNL     1       4.335   3.095  19.703  0.00  0.00    +0.000 A 
ATOM     15  C   UNL     1       3.169   3.826  19.468  0.00  0.00    +0.000 A 
ENDBRANCH   4   6
BRANCH   1  16
ATOM     16  C   UNL     1       7.081   5.255  15.843  0.00  0.00    +0.000 C 
BRANCH  16  20
ATOM     17  C   UNL     1       5.743   2.779  11.782  0.00  0.00    +0.000 C 
ATOM     18  C   UNL     1       6.338   3.677  12.783  0.00  0.00    +0.000 A 
ATOM     19  N   UNL     1       6.133   3.749  14.080  0.00  0.00    +0.000 NA
ATOM     20  C   UNL     1       6.946   4.791  14.438  0.00  0.00    +0.000 A 
ATOM     21  N   UNL     1       7.656   5.329  13.433  0.00  0.00    +0.000 NA
ATOM     22  O   UNL     1       7.244   4.586  12.324  0.00  0.00    +0.000 OA
ENDBRANCH  16  20
ENDBRANCH   1  16
TORSDOF 3
ENDMDL
MODEL 8
REMARK VINA RESULT:      -7.6      1.503      1.730
REMARK  Name = 
REMARK  4 active torsions:
REMARK  status: ('A' for Active; 'I' for Inactive)
REMARK    1  A    between atoms: C_1  and  C_2
REMARK    2  A    between atoms: C_4  and  C_5
REMARK    3  A    between atoms: C_5  and  C_6
REMARK    4  A    between atoms: C_9  and  C_10
REMARK                            x       y       z     vdW  Elec       q    Type
REMARK                         _______ _______ _______ _____ _____    ______ ____
ROOT
ATOM      1  C   UNL     1       6.890   5.093  16.628  0.00  0.00    +0.000 A 
ATOM      2  N   UNL     1       7.521   4.330  17.540  0.00  0.00    +0.000 NA
ATOM      3  O   UNL     1       6.697   4.441  18.660  0.00  0.00    +0.000 OA
ATOM      4  C   UNL     1       5.650   5.259  18.316  0.00  0.00    +0.000 A 
ATOM      5  N   UNL     1       5.742   5.673  17.065  0.00  0.00    +0.000 NA
ENDROOT
BRANCH   4   6
ATOM      6  C   UNL     1       4.488   5.382  19.228  0.00  0.00    +0.000 C 
ATOM      7  C   UNL     1       3.619   6.598  18.871  0.00  0.00    +0.000 C 
ATOM      8  C   UNL     1       2.342   6.770  19.706  0.00  0.00    +0.000 C 
ATOM      9  C   UNL     1       1.746   5.523  20.346  0.00  0.00    +0.000 C 
ATOM     10  C   UNL     1       2.695   4.355  20.535  0.00  0.00    +0.000 A 
ATOM     11  C   UNL     1       2.145   3.231  21.134  0.00  0.00    +0.000 A 
ATOM     12  C   UNL     1       1.709   2.298  20.217  0.00  0.00    +0.000 A 
ATOM     13  C   UNL     1       2.472   2.105  19.067  0.00  0.00    +0.000 A 
ATOM     14  C   UNL     1       3.530   2.982  18.774  0.00  0.00    +0.000 A 
ATOM     15  C   UNL     1       3.633   4.168  19.503  0.00  0.00    +0.000 A 
ENDBRANCH   4   6
BRANCH   1  16
ATOM     16  C   UNL     1       7.360   5.212  15.213  0.00  0.00    +0.000 C 
BRANCH  16  20
ATOM     17  C   UNL     1       5.679   2.469  11.464  0.00  0.00    +0.000 C 
ATOM     18  C   UNL     1       5.861   3.326  12.645  0.00  0.00    +0.000 A 
ATOM     19  N   UNL     1       6.964   3.775  13.201  0.00  0.00    +0.000 NA
ATOM     20  C   UNL     1       6.477   4.482  14.268  0.00  0.00    +0.000 A 
ATOM     21  N   UNL     1       5.138   4.513  14.365  0.00  0.00    +0.000 NA
ATOM     22  O   UNL     1       4.726   3.734  13.281  0.00  0.00    +0.000 OA
ENDBRANCH  16  20
ENDBRANCH   1  16
TORSDOF 3
ENDMDL
MODEL 9
REMARK VINA RESULT:      -7.5      4.179      7.604
REMARK  Name = 
REMARK  4 active torsions:
REMARK  status: ('A' for Active; 'I' for Inactive)
REMARK    1  A    between atoms: C_1  and  C_2
REMARK    2  A    between atoms: C_4  and  C_5
REMARK    3  A    between atoms: C_5  and  C_6
REMARK    4  A    between atoms: C_9  and  C_10
REMARK                            x       y       z     vdW  Elec       q    Type
REMARK                         _______ _______ _______ _____ _____    ______ ____
ROOT
ATOM      1  C   UNL     1       1.515   9.271  18.913  0.00  0.00    +0.000 A 
ATOM      2  N   UNL     1       1.880   9.522  17.643  0.00  0.00    +0.000 NA
ATOM      3  O   UNL     1       2.574   8.366  17.284  0.00  0.00    +0.000 OA
ATOM      4  C   UNL     1       2.559   7.529  18.371  0.00  0.00    +0.000 A 
ATOM      5  N   UNL     1       1.908   8.060  19.391  0.00  0.00    +0.000 NA
ENDROOT
BRANCH   4   6
ATOM      6  C   UNL     1       3.018   6.128  18.223  0.00  0.00    +0.000 C 
ATOM      7  C   UNL     1       1.847   5.179  17.929  0.00  0.00    +0.000 C 
ATOM      8  C   UNL     1       2.226   3.713  17.675  0.00  0.00    +0.000 C 
ATOM      9  C   UNL     1       3.632   3.427  17.165  0.00  0.00    +0.000 C 
ATOM     10  C   UNL     1       4.666   4.505  17.427  0.00  0.00    +0.000 A 
ATOM     11  C   UNL     1       5.947   4.228  16.972  0.00  0.00    +0.000 A 
ATOM     12  C   UNL     1       6.196   4.758  15.724  0.00  0.00    +0.000 A 
ATOM     13  C   UNL     1       5.668   6.014  15.430  0.00  0.00    +0.000 A 
ATOM     14  C   UNL     1       4.750   6.610  16.311  0.00  0.00    +0.000 A 
ATOM     15  C   UNL     1       4.196   5.828  17.326  0.00  0.00    +0.000 A 
ENDBRANCH   4   6
BRANCH   1  16
ATOM     16  C   UNL     1       0.655  10.204  19.704  0.00  0.00    +0.000 C 
BRANCH  16  20
ATOM     17  C   UNL     1      -3.244  11.088  16.802  0.00  0.00    +0.000 C 
ATOM     18  C   UNL     1      -2.026  11.144  17.623  0.00  0.00    +0.000 A 
ATOM     19  N   UNL     1      -1.398  10.188  18.271  0.00  0.00    +0.000 NA
ATOM     20  C   UNL     1      -0.369  10.872  18.860  0.00  0.00    +0.000 A 
ATOM     21  N   UNL     1      -0.321  12.183  18.575  0.00  0.00    +0.000 NA
ATOM     22  O   UNL     1      -1.434  12.367  17.751  0.00  0.00    +0.000 OA
ENDBRANCH  16  20
ENDBRANCH   1  16
TORSDOF 3
ENDMDL
