MODEL 1
REMARK VINA RESULT:      -7.9      0.000      0.000
REMARK  Name = 
REMARK  4 active torsions:
REMARK  status: ('A' for Active; 'I' for Inactive)
REMARK    1  A    between atoms: C_2  and  C_3
REMARK    2  A    between atoms: C_2  and  N_12
REMARK    3  A    between atoms: C_3  and  C_5
REMARK    4  A    between atoms: CA_19  and  CB_20
REMARK                            x       y       z     vdW  Elec       q    Type
REMARK                         _______ _______ _______ _____ _____    ______ ____
ROOT
ATOM      1  C   UNK A   0       3.388   6.243  17.991  0.00  0.00    +0.000 C 
ATOM      2  C   UNK A   0       3.723   4.980  18.314  0.00  0.00    +0.000 C 
ENDROOT
BRANCH   2   3
ATOM      3  N   ALA A   1       2.787   4.101  18.882  0.00  0.00    +0.000 N 
ATOM      4  C   GLY A   2       1.999   3.300  18.065  0.00  0.00    +0.000 C 
ATOM      5  O   GLY A   2       2.081   3.172  16.849  0.00  0.00    +0.000 OA
ATOM      6  CA  GLY A   2       0.959   2.462  18.736  0.00  0.00    +0.000 C 
ATOM      7  N   GLY A   2       0.804   2.322  20.007  0.00  0.00    +0.000 NA
ATOM      8  C   ALA A   1       1.635   2.974  20.880  0.00  0.00    +0.000 C 
ATOM      9  O   ALA A   1       1.550   2.768  22.090  0.00  0.00    +0.000 OA
ATOM     10  CA  ALA A   1       2.617   4.037  20.349  0.00  0.00    +0.000 C 
ATOM     11  CB  ALA A   1       2.147   5.389  20.907  0.00  0.00    +0.000 C 
ENDBRANCH   2   3
BRANCH   2  12
ATOM     12  C   UNK A   0       5.165   4.556  18.119  0.00  0.00    +0.000 C 
ATOM     13  O   UNK A   0       5.868   4.189  19.056  0.00  0.00    +0.000 OA
BRANCH  12  14
ATOM     14  C   UNK A   0       5.751   4.576  16.745  0.00  0.00    +0.000 A 
ATOM     15  C   UNK A   0       7.052   5.072  16.582  0.00  0.00    +0.000 A 
ATOM     16  C   UNK A   0       7.613   5.170  15.305  0.00  0.00    +0.000 A 
ATOM     17  C   UNK A   0       6.878   4.767  14.192  0.00  0.00    +0.000 A 
ATOM     18 CL   UNK A   0       7.546   4.931  12.616  0.00  0.00    +0.000 Cl
ATOM     19  C   UNK A   0       5.601   4.232  14.347  0.00  0.00    +0.000 A 
ATOM     20  C   UNK A   0       5.045   4.116  15.623  0.00  0.00    +0.000 A 
ENDBRANCH  12  14
ENDBRANCH   2  12
TORSDOF 3
ENDMDL
MODEL 2
REMARK VINA RESULT:      -7.8      0.095      1.085
REMARK  Name = 
REMARK  4 active torsions:
REMARK  status: ('A' for Active; 'I' for Inactive)
REMARK    1  A    between atoms: C_2  and  C_3
REMARK    2  A    between atoms: C_2  and  N_12
REMARK    3  A    between atoms: C_3  and  C_5
REMARK    4  A    between atoms: CA_19  and  CB_20
REMARK                            x       y       z     vdW  Elec       q    Type
REMARK                         _______ _______ _______ _____ _____    ______ ____
ROOT
ATOM      1  C   UNK A   0       3.419   6.234  18.051  0.00  0.00    +0.000 C 
ATOM      2  C   UNK A   0       3.746   4.959  18.335  0.00  0.00    +0.000 C 
ENDROOT
BRANCH   2   3
ATOM      3  N   ALA A   1       2.814   4.077  18.902  0.00  0.00    +0.000 N 
ATOM      4  C   GLY A   2       2.012   3.292  18.083  0.00  0.00    +0.000 C 
ATOM      5  O   GLY A   2       2.078   3.182  16.864  0.00  0.00    +0.000 OA
ATOM      6  CA  GLY A   2       0.976   2.450  18.755  0.00  0.00    +0.000 C 
ATOM      7  N   GLY A   2       0.836   2.291  20.026  0.00  0.00    +0.000 NA
ATOM      8  C   ALA A   1       1.681   2.926  20.897  0.00  0.00    +0.000 C 
ATOM      9  O   ALA A   1       1.610   2.702  22.105  0.00  0.00    +0.000 OA
ATOM     10  CA  ALA A   1       2.662   3.992  20.370  0.00  0.00    +0.000 C 
ATOM     11  CB  ALA A   1       2.205   5.338  20.954  0.00  0.00    +0.000 C 
ENDBRANCH   2   3
BRANCH   2  12
ATOM     12  C   UNK A   0       5.179   4.525  18.098  0.00  0.00    +0.000 C 
ATOM     13  O   UNK A   0       5.877   4.066  18.997  0.00  0.00    +0.000 OA
BRANCH  12  14
ATOM     14  C   UNK A   0       5.761   4.650  16.728  0.00  0.00    +0.000 A 
ATOM     15  C   UNK A   0       5.029   4.148  15.643  0.00  0.00    +0.000 A 
ATOM     16  C   UNK A   0       5.566   4.186  14.353  0.00  0.00    +0.000 A 
ATOM     17  C   UNK A   0       6.832   4.730  14.144  0.00  0.00    +0.000 A 
ATOM     18 CL   UNK A   0       7.516   4.735  12.567  0.00  0.00    +0.000 Cl
ATOM     19  C   UNK A   0       7.550   5.271  15.209  0.00  0.00    +0.000 A 
ATOM     20  C   UNK A   0       7.008   5.251  16.496  0.00  0.00    +0.000 A 
ENDBRANCH  12  14
ENDBRANCH   2  12
TORSDOF 3
ENDMDL
MODEL 3
REMARK VINA RESULT:      -7.7      3.253      6.293
REMARK  Name = 
REMARK  4 active torsions:
REMARK  status: ('A' for Active; 'I' for Inactive)
REMARK    1  A    between atoms: C_2  and  C_3
REMARK    2  A    between atoms: C_2  and  N_12
REMARK    3  A    between atoms: C_3  and  C_5
REMARK    4  A    between atoms: CA_19  and  CB_20
REMARK                            x       y       z     vdW  Elec       q    Type
REMARK                         _______ _______ _______ _____ _____    ______ ____
ROOT
ATOM      1  C   UNK A   0       3.840   1.932  18.084  0.00  0.00    +0.000 C 
ATOM      2  C   UNK A   0       3.882   3.247  17.796  0.00  0.00    +0.000 C 
ENDROOT
BRANCH   2   3
ATOM      3  N   ALA A   1       5.103   3.918  17.635  0.00  0.00    +0.000 N 
ATOM      4  C   GLY A   2       5.740   4.478  18.736  0.00  0.00    +0.000 C 
ATOM      5  O   GLY A   2       5.416   4.375  19.913  0.00  0.00    +0.000 OA
ATOM      6  CA  GLY A   2       6.986   5.262  18.473  0.00  0.00    +0.000 C 
ATOM      7  N   GLY A   2       7.590   5.366  17.340  0.00  0.00    +0.000 NA
ATOM      8  C   ALA A   1       7.097   4.726  16.233  0.00  0.00    +0.000 C 
ATOM      9  O   ALA A   1       7.722   4.746  15.175  0.00  0.00    +0.000 OA
ATOM     10  CA  ALA A   1       5.709   4.056  16.294  0.00  0.00    +0.000 C 
ATOM     11  CB  ALA A   1       4.793   4.856  15.356  0.00  0.00    +0.000 C 
ENDBRANCH   2   3
BRANCH   2  12
ATOM     12  C   UNK A   0       2.568   4.000  17.726  0.00  0.00    +0.000 C 
ATOM     13  O   UNK A   0       1.671   3.674  16.955  0.00  0.00    +0.000 OA
BRANCH  12  14
ATOM     14  C   UNK A   0       2.351   5.172  18.627  0.00  0.00    +0.000 A 
ATOM     15  C   UNK A   0       1.894   4.936  19.931  0.00  0.00    +0.000 A 
ATOM     16  C   UNK A   0       1.615   6.008  20.785  0.00  0.00    +0.000 A 
ATOM     17  C   UNK A   0       1.800   7.315  20.339  0.00  0.00    +0.000 A 
ATOM     18 CL   UNK A   0       1.412   8.636  21.369  0.00  0.00    +0.000 Cl
ATOM     19  C   UNK A   0       2.294   7.560  19.060  0.00  0.00    +0.000 A 
ATOM     20  C   UNK A   0       2.591   6.490  18.211  0.00  0.00    +0.000 A 
ENDBRANCH  12  14
ENDBRANCH   2  12
TORSDOF 3
ENDMDL
MODEL 4
REMARK VINA RESULT:      -7.5      3.233      6.256
REMARK  Name = 
REMARK  4 active torsions:
REMARK  status: ('A' for Active; 'I' for Inactive)
REMARK    1  A    between atoms: C_2  and  C_3
REMARK    2  A    between atoms: C_2  and  N_12
REMARK    3  A    between atoms: C_3  and  C_5
REMARK    4  A    between atoms: CA_19  and  CB_20
REMARK                            x       y       z     vdW  Elec       q    Type
REMARK                         _______ _______ _______ _____ _____    ______ ____
ROOT
ATOM      1  C   UNK A   0       3.843   1.905  18.125  0.00  0.00    +0.000 C 
ATOM      2  C   UNK A   0       3.886   3.214  17.812  0.00  0.00    +0.000 C 
ENDROOT
BRANCH   2   3
ATOM      3  N   ALA A   1       5.108   3.894  17.691  0.00  0.00    +0.000 N 
ATOM      4  C   GLY A   2       5.689   4.485  18.805  0.00  0.00    +0.000 C 
ATOM      5  O   GLY A   2       5.314   4.404  19.970  0.00  0.00    +0.000 OA
ATOM      6  CA  GLY A   2       6.938   5.275  18.581  0.00  0.00    +0.000 C 
ATOM      7  N   GLY A   2       7.592   5.360  17.474  0.00  0.00    +0.000 NA
ATOM      8  C   ALA A   1       7.155   4.691  16.361  0.00  0.00    +0.000 C 
ATOM      9  O   ALA A   1       7.826   4.693  15.331  0.00  0.00    +0.000 OA
ATOM     10  CA  ALA A   1       5.772   4.008  16.375  0.00  0.00    +0.000 C 
ATOM     11  CB  ALA A   1       4.891   4.778  15.379  0.00  0.00    +0.000 C 
ENDBRANCH   2   3
BRANCH   2  12
ATOM     12  C   UNK A   0       2.570   3.953  17.670  0.00  0.00    +0.000 C 
ATOM     13  O   UNK A   0       1.747   3.656  16.810  0.00  0.00    +0.000 OA
BRANCH  12  14
ATOM     14  C   UNK A   0       2.259   5.073  18.609  0.00  0.00    +0.000 A 
ATOM     15  C   UNK A   0       2.492   6.387  18.180  0.00  0.00    +0.000 A 
ATOM     16  C   UNK A   0       2.276   7.461  19.050  0.00  0.00    +0.000 A 
ATOM     17  C   UNK A   0       1.822   7.223  20.345  0.00  0.00    +0.000 A 
ATOM     18 CL   UNK A   0       1.602   8.536  21.433  0.00  0.00    +0.000 Cl
ATOM     19  C   UNK A   0       1.547   5.924  20.768  0.00  0.00    +0.000 A 
ATOM     20  C   UNK A   0       1.744   4.851  19.894  0.00  0.00    +0.000 A 
ENDBRANCH  12  14
ENDBRANCH   2  12
TORSDOF 3
ENDMDL
MODEL 5
REMARK VINA RESULT:      -7.4      0.989      1.059
REMARK  Name = 
REMARK  4 active torsions:
REMARK  status: ('A' for Active; 'I' for Inactive)
REMARK    1  A    between atoms: C_2  and  C_3
REMARK    2  A    between atoms: C_2  and  N_12
REMARK    3  A    between atoms: C_3  and  C_5
REMARK    4  A    between atoms: CA_19  and  CB_20
REMARK                            x       y       z     vdW  Elec       q    Type
REMARK                         _______ _______ _______ _____ _____    ______ ____
ROOT
ATOM      1  C   UNK A   0       2.567   6.765  18.116  0.00  0.00    +0.000 C 
ATOM      2  C   UNK A   0       3.174   5.596  18.397  0.00  0.00    +0.000 C 
ENDROOT
BRANCH   2   3
ATOM      3  N   ALA A   1       2.462   4.520  18.947  0.00  0.00    +0.000 N 
ATOM      4  C   GLY A   2       1.836   3.600  18.115  0.00  0.00    +0.000 C 
ATOM      5  O   GLY A   2       1.907   3.536  16.893  0.00  0.00    +0.000 OA
ATOM      6  CA  GLY A   2       1.016   2.537  18.773  0.00  0.00    +0.000 C 
ATOM      7  N   GLY A   2       0.932   2.322  20.040  0.00  0.00    +0.000 NA
ATOM      8  C   ALA A   1       1.633   3.103  20.921  0.00  0.00    +0.000 C 
ATOM      9  O   ALA A   1       1.629   2.840  22.123  0.00  0.00    +0.000 OA
ATOM     10  CA  ALA A   1       2.353   4.368  20.414  0.00  0.00    +0.000 C 
ATOM     11  CB  ALA A   1       1.625   5.569  21.037  0.00  0.00    +0.000 C 
ENDBRANCH   2   3
BRANCH   2  12
ATOM     12  C   UNK A   0       4.670   5.502  18.172  0.00  0.00    +0.000 C 
ATOM     13  O   UNK A   0       5.478   5.770  19.056  0.00  0.00    +0.000 OA
BRANCH  12  14
ATOM     14  C   UNK A   0       5.181   5.063  16.839  0.00  0.00    +0.000 A 
ATOM     15  C   UNK A   0       5.313   6.022  15.826  0.00  0.00    +0.000 A 
ATOM     16  C   UNK A   0       5.724   5.642  14.545  0.00  0.00    +0.000 A 
ATOM     17  C   UNK A   0       6.011   4.305  14.277  0.00  0.00    +0.000 A 
ATOM     18 CL   UNK A   0       6.470   3.826  12.691  0.00  0.00    +0.000 Cl
ATOM     19  C   UNK A   0       5.924   3.350  15.288  0.00  0.00    +0.000 A 
ATOM     20  C   UNK A   0       5.531   3.730  16.573  0.00  0.00    +0.000 A 
ENDBRANCH  12  14
ENDBRANCH   2  12
TORSDOF 3
ENDMDL
MODEL 6
REMARK VINA RESULT:      -7.3      3.573      6.326
REMARK  Name = 
REMARK  4 active torsions:
REMARK  status: ('A' for Active; 'I' for Inactive)
REMARK    1  A    between atoms: C_2  and  C_3
REMARK    2  A    between atoms: C_2  and  N_12
REMARK    3  A    between atoms: C_3  and  C_5
REMARK    4  A    between atoms: CA_19  and  CB_20
REMARK                            x       y       z     vdW  Elec       q    Type
REMARK                         _______ _______ _______ _____ _____    ______ ____
ROOT
ATOM      1  C   UNK A   0       2.604   4.128  17.311  0.00  0.00    +0.000 C 
ATOM      2  C   UNK A   0       3.555   4.848  17.936  0.00  0.00    +0.000 C 
ENDROOT
BRANCH   2   3
ATOM      3  N   ALA A   1       4.883   4.850  17.485  0.00  0.00    +0.000 N 
ATOM      4  C   GLY A   2       5.903   4.414  18.320  0.00  0.00    +0.000 C 
ATOM      5  O   GLY A   2       5.788   3.902  19.429  0.00  0.00    +0.000 OA
ATOM      6  CA  GLY A   2       7.302   4.537  17.806  0.00  0.00    +0.000 C 
ATOM      7  N   GLY A   2       7.642   4.896  16.616  0.00  0.00    +0.000 NA
ATOM      8  C   ALA A   1       6.683   5.210  15.689  0.00  0.00    +0.000 C 
ATOM      9  O   ALA A   1       7.000   5.461  14.528  0.00  0.00    +0.000 OA
ATOM     10  CA  ALA A   1       5.210   5.336  16.128  0.00  0.00    +0.000 C 
ATOM     11  CB  ALA A   1       4.829   6.816  15.967  0.00  0.00    +0.000 C 
ENDBRANCH   2   3
BRANCH   2  12
ATOM     12  C   UNK A   0       3.163   5.598  19.195  0.00  0.00    +0.000 C 
ATOM     13  O   UNK A   0       3.337   5.125  20.314  0.00  0.00    +0.000 OA
BRANCH  12  14
ATOM     14  C   UNK A   0       2.553   6.956  19.074  0.00  0.00    +0.000 A 
ATOM     15  C   UNK A   0       1.937   7.514  20.202  0.00  0.00    +0.000 A 
ATOM     16  C   UNK A   0       1.297   8.753  20.115  0.00  0.00    +0.000 A 
ATOM     17  C   UNK A   0       1.277   9.440  18.902  0.00  0.00    +0.000 A 
ATOM     18 CL   UNK A   0       0.449  10.941  18.778  0.00  0.00    +0.000 Cl
ATOM     19  C   UNK A   0       1.923   8.914  17.785  0.00  0.00    +0.000 A 
ATOM     20  C   UNK A   0       2.579   7.684  17.875  0.00  0.00    +0.000 A 
ENDBRANCH  12  14
ENDBRANCH   2  12
TORSDOF 3
ENDMDL
MODEL 7
REMARK VINA RESULT:      -7.3      3.519      6.278
REMARK  Name = 
REMARK  4 active torsions:
REMARK  status: ('A' for Active; 'I' for Inactive)
REMARK    1  A    between atoms: C_2  and  C_3
REMARK    2  A    between atoms: C_2  and  N_12
REMARK    3  A    between atoms: C_3  and  C_5
REMARK    4  A    between atoms: CA_19  and  CB_20
REMARK                            x       y       z     vdW  Elec       q    Type
REMARK                         _______ _______ _______ _____ _____    ______ ____
ROOT
ATOM      1  C   UNK A   0       4.794   3.379  19.295  0.00  0.00    +0.000 C 
ATOM      2  C   UNK A   0       4.479   4.256  18.324  0.00  0.00    +0.000 C 
ENDROOT
BRANCH   2   3
ATOM      3  N   ALA A   1       5.468   4.828  17.509  0.00  0.00    +0.000 N 
ATOM      4  C   GLY A   2       5.758   4.271  16.270  0.00  0.00    +0.000 C 
ATOM      5  O   GLY A   2       5.166   3.354  15.711  0.00  0.00    +0.000 OA
ATOM      6  CA  GLY A   2       6.889   4.875  15.502  0.00  0.00    +0.000 C 
ATOM      7  N   GLY A   2       7.541   5.938  15.825  0.00  0.00    +0.000 NA
ATOM      8  C   ALA A   1       7.220   6.624  16.967  0.00  0.00    +0.000 C 
ATOM      9  O   ALA A   1       7.777   7.690  17.228  0.00  0.00    +0.000 OA
ATOM     10  CA  ALA A   1       6.223   6.012  17.971  0.00  0.00    +0.000 C 
ATOM     11  CB  ALA A   1       7.021   5.693  19.244  0.00  0.00    +0.000 C 
ENDBRANCH   2   3
BRANCH   2  12
ATOM     12  C   UNK A   0       3.027   4.669  18.185  0.00  0.00    +0.000 C 
ATOM     13  O   UNK A   0       2.202   3.962  17.613  0.00  0.00    +0.000 OA
BRANCH  12  14
ATOM     14  C   UNK A   0       2.580   5.971  18.766  0.00  0.00    +0.000 A 
ATOM     15  C   UNK A   0       2.088   5.982  20.078  0.00  0.00    +0.000 A 
ATOM     16  C   UNK A   0       1.598   7.166  20.637  0.00  0.00    +0.000 A 
ATOM     17  C   UNK A   0       1.606   8.341  19.888  0.00  0.00    +0.000 A 
ATOM     18 CL   UNK A   0       0.961   9.789  20.554  0.00  0.00    +0.000 Cl
ATOM     19  C   UNK A   0       2.132   8.350  18.598  0.00  0.00    +0.000 A 
ATOM     20  C   UNK A   0       2.639   7.172  18.044  0.00  0.00    +0.000 A 
ENDBRANCH  12  14
ENDBRANCH   2  12
TORSDOF 3
ENDMDL
MODEL 8
REMARK VINA RESULT:      -7.3      3.524      6.245
REMARK  Name = 
REMARK  4 active torsions:
REMARK  status: ('A' for Active; 'I' for Inactive)
REMARK    1  A    between atoms: C_2  and  C_3
REMARK    2  A    between atoms: C_2  and  N_12
REMARK    3  A    between atoms: C_3  and  C_5
REMARK    4  A    between atoms: CA_19  and  CB_20
REMARK                            x       y       z     vdW  Elec       q    Type
REMARK                         _______ _______ _______ _____ _____    ______ ____
ROOT
ATOM      1  C   UNK A   0       4.571   2.766  18.623  0.00  0.00    +0.000 C 
ATOM      2  C   UNK A   0       4.316   3.843  17.856  0.00  0.00    +0.000 C 
ENDROOT
BRANCH   2   3
ATOM      3  N   ALA A   1       5.349   4.537  17.208  0.00  0.00    +0.000 N 
ATOM      4  C   GLY A   2       5.895   4.036  16.033  0.00  0.00    +0.000 C 
ATOM      5  O   GLY A   2       5.510   3.066  15.390  0.00  0.00    +0.000 OA
ATOM      6  CA  GLY A   2       7.057   4.778  15.454  0.00  0.00    +0.000 C 
ATOM      7  N   GLY A   2       7.522   5.903  15.874  0.00  0.00    +0.000 NA
ATOM      8  C   ALA A   1       6.946   6.530  16.947  0.00  0.00    +0.000 C 
ATOM      9  O   ALA A   1       7.327   7.648  17.291  0.00  0.00    +0.000 OA
ATOM     10  CA  ALA A   1       5.879   5.792  17.781  0.00  0.00    +0.000 C 
ATOM     11  CB  ALA A   1       6.496   5.547  19.166  0.00  0.00    +0.000 C 
ENDBRANCH   2   3
BRANCH   2  12
ATOM     12  C   UNK A   0       2.884   4.333  17.774  0.00  0.00    +0.000 C 
ATOM     13  O   UNK A   0       2.079   3.861  16.976  0.00  0.00    +0.000 OA
BRANCH  12  14
ATOM     14  C   UNK A   0       2.431   5.418  18.696  0.00  0.00    +0.000 A 
ATOM     15  C   UNK A   0       2.485   6.744  18.243  0.00  0.00    +0.000 A 
ATOM     16  C   UNK A   0       2.133   7.794  19.097  0.00  0.00    +0.000 A 
ATOM     17  C   UNK A   0       1.722   7.521  20.400  0.00  0.00    +0.000 A 
ATOM     18 CL   UNK A   0       1.335   8.812  21.467  0.00  0.00    +0.000 Cl
ATOM     19  C   UNK A   0       1.624   6.204  20.846  0.00  0.00    +0.000 A 
ATOM     20  C   UNK A   0       1.957   5.152  19.989  0.00  0.00    +0.000 A 
ENDBRANCH  12  14
ENDBRANCH   2  12
TORSDOF 3
ENDMDL
MODEL 9
REMARK VINA RESULT:      -7.2      1.113      2.055
REMARK  Name = 
REMARK  4 active torsions:
REMARK  status: ('A' for Active; 'I' for Inactive)
REMARK    1  A    between atoms: C_2  and  C_3
REMARK    2  A    between atoms: C_2  and  N_12
REMARK    3  A    between atoms: C_3  and  C_5
REMARK    4  A    between atoms: CA_19  and  CB_20
REMARK                            x       y       z     vdW  Elec       q    Type
REMARK                         _______ _______ _______ _____ _____    ______ ____
ROOT
ATOM      1  C   UNK A   0       3.510   6.436  17.677  0.00  0.00    +0.000 C 
ATOM      2  C   UNK A   0       3.729   5.188  18.133  0.00  0.00    +0.000 C 
ENDROOT
BRANCH   2   3
ATOM      3  N   ALA A   1       2.728   4.472  18.805  0.00  0.00    +0.000 N 
ATOM      4  C   GLY A   2       2.417   4.780  20.124  0.00  0.00    +0.000 C 
ATOM      5  O   GLY A   2       2.851   5.713  20.790  0.00  0.00    +0.000 OA
ATOM      6  CA  GLY A   2       1.409   3.911  20.805  0.00  0.00    +0.000 C 
ATOM      7  N   GLY A   2       0.714   2.979  20.249  0.00  0.00    +0.000 NA
ATOM      8  C   ALA A   1       0.865   2.708  18.915  0.00  0.00    +0.000 C 
ATOM      9  O   ALA A   1       0.137   1.885  18.362  0.00  0.00    +0.000 OA
ATOM     10  CA  ALA A   1       2.013   3.370  18.126  0.00  0.00    +0.000 C 
ATOM     11  CB  ALA A   1       2.982   2.246  17.732  0.00  0.00    +0.000 C 
ENDBRANCH   2   3
BRANCH   2  12
ATOM     12  C   UNK A   0       5.119   4.606  17.967  0.00  0.00    +0.000 C 
ATOM     13  O   UNK A   0       5.737   4.118  18.909  0.00  0.00    +0.000 OA
BRANCH  12  14
ATOM     14  C   UNK A   0       5.758   4.617  16.616  0.00  0.00    +0.000 A 
ATOM     15  C   UNK A   0       7.031   5.190  16.484  0.00  0.00    +0.000 A 
ATOM     16  C   UNK A   0       7.635   5.281  15.227  0.00  0.00    +0.000 A 
ATOM     17  C   UNK A   0       6.973   4.794  14.102  0.00  0.00    +0.000 A 
ATOM     18 CL   UNK A   0       7.692   4.947  12.548  0.00  0.00    +0.000 Cl
ATOM     19  C   UNK A   0       5.726   4.185  14.228  0.00  0.00    +0.000 A 
ATOM     20  C   UNK A   0       5.128   4.076  15.486  0.00  0.00    +0.000 A 
ENDBRANCH  12  14
ENDBRANCH   2  12
TORSDOF 3
ENDMDL
