MODEL 1
REMARK VINA RESULT:      -7.4      0.000      0.000
REMARK  Name = 
REMARK  5 active torsions:
REMARK  status: ('A' for Active; 'I' for Inactive)
REMARK    1  A    between atoms: C_1  and  O_2
REMARK    2  A    between atoms: O_2  and  N_3
REMARK    3  A    between atoms: N_3  and  C_4
REMARK    4  A    between atoms: C_5  and  C_7
REMARK    5  A    between atoms: C_12  and  C_13
REMARK                            x       y       z     vdW  Elec       q    Type
REMARK                         _______ _______ _______ _____ _____    ______ ____
ROOT
ATOM      1  C   UNL     1       3.419   4.767  17.376  0.00  0.00    +0.000 A 
ATOM      2  C   UNL     1       4.383   3.967  16.727  0.00  0.00    +0.000 A 
ATOM      3  C   UNL     1       5.540   4.521  16.186  0.00  0.00    +0.000 A 
ATOM      4  C   UNL     1       5.770   5.881  16.318  0.00  0.00    +0.000 A 
ATOM      5  C   UNL     1       4.849   6.679  17.004  0.00  0.00    +0.000 A 
ATOM      6  C   UNL     1       3.662   6.153  17.571  0.00  0.00    +0.000 A 
ENDROOT
BRANCH   6   7
ATOM      7  C   UNL     1       2.792   7.073  18.356  0.00  0.00    +0.000 A 
ATOM      8  C   UNL     1       2.439   6.836  19.693  0.00  0.00    +0.000 A 
ATOM      9  C   UNL     1       1.697   7.768  20.430  0.00  0.00    +0.000 A 
ATOM     10  C   UNL     1       1.246   8.943  19.832  0.00  0.00    +0.000 A 
ATOM     11  C   UNL     1       1.528   9.177  18.493  0.00  0.00    +0.000 A 
ATOM     12  C   UNL     1       2.290   8.258  17.768  0.00  0.00    +0.000 A 
ENDBRANCH   6   7
BRANCH   1  15
ATOM     13  N   UNL     1       2.351   3.187  18.987  0.00  0.00    +0.000 N 
ATOM     14  C   UNL     1       1.158   2.735  19.675  0.00  0.00    +0.000 C 
ATOM     15  C   UNL     1       2.204   4.073  17.909  0.00  0.00    +0.000 C 
ATOM     16  O   UNL     1       1.129   4.238  17.335  0.00  0.00    +0.000 OA
BRANCH  13  18
ATOM     17  C   UNL     1       4.193   2.372  20.129  0.00  0.00    +0.000 C 
ATOM     18  O   UNL     1       3.349   3.503  19.944  0.00  0.00    +0.000 OA
ENDBRANCH  13  18
ENDBRANCH   1  15
TORSDOF 3
ENDMDL
MODEL 2
REMARK VINA RESULT:      -7.3      0.101      1.136
REMARK  Name = 
REMARK  5 active torsions:
REMARK  status: ('A' for Active; 'I' for Inactive)
REMARK    1  A    between atoms: C_1  and  O_2
REMARK    2  A    between atoms: O_2  and  N_3
REMARK    3  A    between atoms: N_3  and  C_4
REMARK    4  A    between atoms: C_5  and  C_7
REMARK    5  A    between atoms: C_12  and  C_13
REMARK                            x       y       z     vdW  Elec       q    Type
REMARK                         _______ _______ _______ _____ _____    ______ ____
ROOT
ATOM      1  C   UNL     1       3.431   4.784  17.359  0.00  0.00    +0.000 A 
ATOM      2  C   UNL     1       4.358   3.935  16.719  0.00  0.00    +0.000 A 
ATOM      3  C   UNL     1       5.523   4.435  16.145  0.00  0.00    +0.000 A 
ATOM      4  C   UNL     1       5.799   5.789  16.234  0.00  0.00    +0.000 A 
ATOM      5  C   UNL     1       4.917   6.637  16.910  0.00  0.00    +0.000 A 
ATOM      6  C   UNL     1       3.722   6.166  17.511  0.00  0.00    +0.000 A 
ENDROOT
BRANCH   6   7
ATOM      7  C   UNL     1       2.895   7.136  18.281  0.00  0.00    +0.000 A 
ATOM      8  C   UNL     1       2.403   8.329  17.730  0.00  0.00    +0.000 A 
ATOM      9  C   UNL     1       1.552   9.173  18.454  0.00  0.00    +0.000 A 
ATOM     10  C   UNL     1       1.208   8.869  19.770  0.00  0.00    +0.000 A 
ATOM     11  C   UNL     1       1.727   7.727  20.363  0.00  0.00    +0.000 A 
ATOM     12  C   UNL     1       2.556   6.874  19.630  0.00  0.00    +0.000 A 
ENDBRANCH   6   7
BRANCH   1  15
ATOM     13  N   UNL     1       2.342   3.263  19.011  0.00  0.00    +0.000 N 
ATOM     14  C   UNL     1       1.149   2.868  19.735  0.00  0.00    +0.000 C 
ATOM     15  C   UNL     1       2.202   4.146  17.930  0.00  0.00    +0.000 C 
ATOM     16  O   UNL     1       1.120   4.352  17.383  0.00  0.00    +0.000 OA
BRANCH  13  18
ATOM     17  C   UNL     1       4.143   2.364  20.154  0.00  0.00    +0.000 C 
ATOM     18  O   UNL     1       3.376   3.545  19.939  0.00  0.00    +0.000 OA
ENDBRANCH  13  18
ENDBRANCH   1  15
TORSDOF 3
ENDMDL
MODEL 3
REMARK VINA RESULT:      -7.1      2.022      3.837
REMARK  Name = 
REMARK  5 active torsions:
REMARK  status: ('A' for Active; 'I' for Inactive)
REMARK    1  A    between atoms: C_1  and  O_2
REMARK    2  A    between atoms: O_2  and  N_3
REMARK    3  A    between atoms: N_3  and  C_4
REMARK    4  A    between atoms: C_5  and  C_7
REMARK    5  A    between atoms: C_12  and  C_13
REMARK                            x       y       z     vdW  Elec       q    Type
REMARK                         _______ _______ _______ _____ _____    ______ ____
ROOT
ATOM      1  C   UNL     1       3.965   4.237  18.439  0.00  0.00    +0.000 A 
ATOM      2  C   UNL     1       4.119   2.887  18.061  0.00  0.00    +0.000 A 
ATOM      3  C   UNL     1       3.024   2.036  17.946  0.00  0.00    +0.000 A 
ATOM      4  C   UNL     1       1.750   2.531  18.172  0.00  0.00    +0.000 A 
ATOM      5  C   UNL     1       1.575   3.880  18.497  0.00  0.00    +0.000 A 
ATOM      6  C   UNL     1       2.664   4.779  18.620  0.00  0.00    +0.000 A 
ENDROOT
BRANCH   6   7
ATOM      7  C   UNL     1       2.363   6.214  18.883  0.00  0.00    +0.000 A 
ATOM      8  C   UNL     1       2.411   7.201  17.887  0.00  0.00    +0.000 A 
ATOM      9  C   UNL     1       2.031   8.523  18.148  0.00  0.00    +0.000 A 
ATOM     10  C   UNL     1       1.638   8.905  19.429  0.00  0.00    +0.000 A 
ATOM     11  C   UNL     1       1.637   7.965  20.449  0.00  0.00    +0.000 A 
ATOM     12  C   UNL     1       1.992   6.640  20.180  0.00  0.00    +0.000 A 
ENDBRANCH   6   7
BRANCH   1  15
ATOM     13  N   UNL     1       5.881   5.428  17.371  0.00  0.00    +0.000 N 
ATOM     14  C   UNL     1       6.912   6.444  17.454  0.00  0.00    +0.000 C 
ATOM     15  C   UNL     1       5.210   5.062  18.547  0.00  0.00    +0.000 C 
ATOM     16  O   UNL     1       5.650   5.324  19.665  0.00  0.00    +0.000 OA
BRANCH  13  18
ATOM     17  C   UNL     1       5.609   4.939  15.124  0.00  0.00    +0.000 C 
ATOM     18  O   UNL     1       5.080   5.670  16.226  0.00  0.00    +0.000 OA
ENDBRANCH  13  18
ENDBRANCH   1  15
TORSDOF 3
ENDMDL
MODEL 4
REMARK VINA RESULT:      -6.9      1.412      4.615
REMARK  Name = 
REMARK  5 active torsions:
REMARK  status: ('A' for Active; 'I' for Inactive)
REMARK    1  A    between atoms: C_1  and  O_2
REMARK    2  A    between atoms: O_2  and  N_3
REMARK    3  A    between atoms: N_3  and  C_4
REMARK    4  A    between atoms: C_5  and  C_7
REMARK    5  A    between atoms: C_12  and  C_13
REMARK                            x       y       z     vdW  Elec       q    Type
REMARK                         _______ _______ _______ _____ _____    ______ ____
ROOT
ATOM      1  C   UNL     1       3.770   5.192  18.789  0.00  0.00    +0.000 A 
ATOM      2  C   UNL     1       2.797   5.748  19.646  0.00  0.00    +0.000 A 
ATOM      3  C   UNL     1       2.312   7.037  19.453  0.00  0.00    +0.000 A 
ATOM      4  C   UNL     1       2.765   7.781  18.375  0.00  0.00    +0.000 A 
ATOM      5  C   UNL     1       3.690   7.226  17.486  0.00  0.00    +0.000 A 
ATOM      6  C   UNL     1       4.206   5.915  17.647  0.00  0.00    +0.000 A 
ENDROOT
BRANCH   6   7
ATOM      7  C   UNL     1       5.119   5.388  16.595  0.00  0.00    +0.000 A 
ATOM      8  C   UNL     1       4.686   4.554  15.554  0.00  0.00    +0.000 A 
ATOM      9  C   UNL     1       5.552   4.152  14.529  0.00  0.00    +0.000 A 
ATOM     10  C   UNL     1       6.891   4.536  14.546  0.00  0.00    +0.000 A 
ATOM     11  C   UNL     1       7.364   5.311  15.595  0.00  0.00    +0.000 A 
ATOM     12  C   UNL     1       6.492   5.732  16.603  0.00  0.00    +0.000 A 
ENDBRANCH   6   7
BRANCH   1  15
ATOM     13  N   UNL     1       3.314   2.748  19.005  0.00  0.00    +0.000 N 
ATOM     14  C   UNL     1       3.819   1.389  19.027  0.00  0.00    +0.000 C 
ATOM     15  C   UNL     1       4.235   3.802  19.095  0.00  0.00    +0.000 C 
ATOM     16  O   UNL     1       5.387   3.638  19.493  0.00  0.00    +0.000 OA
BRANCH  13  18
ATOM     17  C   UNL     1       1.042   2.577  18.589  0.00  0.00    +0.000 C 
ATOM     18  O   UNL     1       2.312   2.856  18.007  0.00  0.00    +0.000 OA
ENDBRANCH  13  18
ENDBRANCH   1  15
TORSDOF 3
ENDMDL
MODEL 5
REMARK VINA RESULT:      -6.9      1.415      4.589
REMARK  Name = 
REMARK  5 active torsions:
REMARK  status: ('A' for Active; 'I' for Inactive)
REMARK    1  A    between atoms: C_1  and  O_2
REMARK    2  A    between atoms: O_2  and  N_3
REMARK    3  A    between atoms: N_3  and  C_4
REMARK    4  A    between atoms: C_5  and  C_7
REMARK    5  A    between atoms: C_12  and  C_13
REMARK                            x       y       z     vdW  Elec       q    Type
REMARK                         _______ _______ _______ _____ _____    ______ ____
ROOT
ATOM      1  C   UNL     1       3.759   5.212  18.798  0.00  0.00    +0.000 A 
ATOM      2  C   UNL     1       2.767   5.729  19.659  0.00  0.00    +0.000 A 
ATOM      3  C   UNL     1       2.263   7.016  19.493  0.00  0.00    +0.000 A 
ATOM      4  C   UNL     1       2.716   7.794  18.440  0.00  0.00    +0.000 A 
ATOM      5  C   UNL     1       3.659   7.277  17.547  0.00  0.00    +0.000 A 
ATOM      6  C   UNL     1       4.194   5.971  17.680  0.00  0.00    +0.000 A 
ENDROOT
BRANCH   6   7
ATOM      7  C   UNL     1       5.128   5.486  16.626  0.00  0.00    +0.000 A 
ATOM      8  C   UNL     1       6.499   5.785  16.621  0.00  0.00    +0.000 A 
ATOM      9  C   UNL     1       7.365   5.236  15.668  0.00  0.00    +0.000 A 
ATOM     10  C   UNL     1       6.872   4.408  14.661  0.00  0.00    +0.000 A 
ATOM     11  C   UNL     1       5.512   4.141  14.603  0.00  0.00    +0.000 A 
ATOM     12  C   UNL     1       4.654   4.670  15.571  0.00  0.00    +0.000 A 
ENDBRANCH   6   7
BRANCH   1  15
ATOM     13  N   UNL     1       3.332   2.759  18.976  0.00  0.00    +0.000 N 
ATOM     14  C   UNL     1       3.853   1.405  18.967  0.00  0.00    +0.000 C 
ATOM     15  C   UNL     1       4.243   3.822  19.074  0.00  0.00    +0.000 C 
ATOM     16  O   UNL     1       5.401   3.664  19.456  0.00  0.00    +0.000 OA
BRANCH  13  18
ATOM     17  C   UNL     1       1.059   2.562  18.581  0.00  0.00    +0.000 C 
ATOM     18  O   UNL     1       2.318   2.873  17.992  0.00  0.00    +0.000 OA
ENDBRANCH  13  18
ENDBRANCH   1  15
TORSDOF 3
ENDMDL
MODEL 6
REMARK VINA RESULT:      -6.8      2.038      3.693
REMARK  Name = 
REMARK  5 active torsions:
REMARK  status: ('A' for Active; 'I' for Inactive)
REMARK    1  A    between atoms: C_1  and  O_2
REMARK    2  A    between atoms: O_2  and  N_3
REMARK    3  A    between atoms: N_3  and  C_4
REMARK    4  A    between atoms: C_5  and  C_7
REMARK    5  A    between atoms: C_12  and  C_13
REMARK                            x       y       z     vdW  Elec       q    Type
REMARK                         _______ _______ _______ _____ _____    ______ ____
ROOT
ATOM      1  C   UNL     1       3.987   4.305  18.403  0.00  0.00    +0.000 A 
ATOM      2  C   UNL     1       4.208   2.969  18.008  0.00  0.00    +0.000 A 
ATOM      3  C   UNL     1       3.155   2.069  17.875  0.00  0.00    +0.000 A 
ATOM      4  C   UNL     1       1.857   2.500  18.098  0.00  0.00    +0.000 A 
ATOM      5  C   UNL     1       1.617   3.834  18.439  0.00  0.00    +0.000 A 
ATOM      6  C   UNL     1       2.661   4.782  18.581  0.00  0.00    +0.000 A 
ENDROOT
BRANCH   6   7
ATOM      7  C   UNL     1       2.290   6.197  18.861  0.00  0.00    +0.000 A 
ATOM      8  C   UNL     1       1.950   6.660  20.141  0.00  0.00    +0.000 A 
ATOM      9  C   UNL     1       1.697   8.015  20.387  0.00  0.00    +0.000 A 
ATOM     10  C   UNL     1       1.730   8.939  19.344  0.00  0.00    +0.000 A 
ATOM     11  C   UNL     1       2.004   8.503  18.056  0.00  0.00    +0.000 A 
ATOM     12  C   UNL     1       2.281   7.154  17.818  0.00  0.00    +0.000 A 
ENDBRANCH   6   7
BRANCH   1  15
ATOM     13  N   UNL     1       5.842   5.612  17.364  0.00  0.00    +0.000 N 
ATOM     14  C   UNL     1       6.822   6.675  17.472  0.00  0.00    +0.000 C 
ATOM     15  C   UNL     1       5.190   5.186  18.531  0.00  0.00    +0.000 C 
ATOM     16  O   UNL     1       5.619   5.443  19.655  0.00  0.00    +0.000 OA
BRANCH  13  18
ATOM     17  C   UNL     1       5.593   5.165  15.106  0.00  0.00    +0.000 C 
ATOM     18  O   UNL     1       5.029   5.842  16.225  0.00  0.00    +0.000 OA
ENDBRANCH  13  18
ENDBRANCH   1  15
TORSDOF 3
ENDMDL
MODEL 7
REMARK VINA RESULT:      -6.7      2.160      3.575
REMARK  Name = 
REMARK  5 active torsions:
REMARK  status: ('A' for Active; 'I' for Inactive)
REMARK    1  A    between atoms: C_1  and  O_2
REMARK    2  A    between atoms: O_2  and  N_3
REMARK    3  A    between atoms: N_3  and  C_4
REMARK    4  A    between atoms: C_5  and  C_7
REMARK    5  A    between atoms: C_12  and  C_13
REMARK                            x       y       z     vdW  Elec       q    Type
REMARK                         _______ _______ _______ _____ _____    ______ ____
ROOT
ATOM      1  C   UNL     1       3.905   4.572  17.652  0.00  0.00    +0.000 A 
ATOM      2  C   UNL     1       4.063   3.210  17.321  0.00  0.00    +0.000 A 
ATOM      3  C   UNL     1       3.159   2.247  17.760  0.00  0.00    +0.000 A 
ATOM      4  C   UNL     1       2.059   2.636  18.507  0.00  0.00    +0.000 A 
ATOM      5  C   UNL     1       1.859   3.988  18.799  0.00  0.00    +0.000 A 
ATOM      6  C   UNL     1       2.755   4.999  18.368  0.00  0.00    +0.000 A 
ENDROOT
BRANCH   6   7
ATOM      7  C   UNL     1       2.403   6.417  18.658  0.00  0.00    +0.000 A 
ATOM      8  C   UNL     1       2.340   7.408  17.666  0.00  0.00    +0.000 A 
ATOM      9  C   UNL     1       1.916   8.710  17.958  0.00  0.00    +0.000 A 
ATOM     10  C   UNL     1       1.589   9.070  19.264  0.00  0.00    +0.000 A 
ATOM     11  C   UNL     1       1.699   8.128  20.277  0.00  0.00    +0.000 A 
ATOM     12  C   UNL     1       2.098   6.823  19.979  0.00  0.00    +0.000 A 
ENDBRANCH   6   7
BRANCH   1  15
ATOM     13  N   UNL     1       5.823   6.116  18.059  0.00  0.00    +0.000 N 
ATOM     14  C   UNL     1       6.989   6.809  17.544  0.00  0.00    +0.000 C 
ATOM     15  C   UNL     1       4.943   5.524  17.142  0.00  0.00    +0.000 C 
ATOM     16  O   UNL     1       4.939   5.818  15.947  0.00  0.00    +0.000 OA
BRANCH  13  18
ATOM     17  C   UNL     1       7.551   5.639  19.524  0.00  0.00    +0.000 C 
ATOM     18  O   UNL     1       6.203   5.335  19.179  0.00  0.00    +0.000 OA
ENDBRANCH  13  18
ENDBRANCH   1  15
TORSDOF 3
ENDMDL
MODEL 8
REMARK VINA RESULT:      -6.5      1.765      3.970
REMARK  Name = 
REMARK  5 active torsions:
REMARK  status: ('A' for Active; 'I' for Inactive)
REMARK    1  A    between atoms: C_1  and  O_2
REMARK    2  A    between atoms: O_2  and  N_3
REMARK    3  A    between atoms: N_3  and  C_4
REMARK    4  A    between atoms: C_5  and  C_7
REMARK    5  A    between atoms: C_12  and  C_13
REMARK                            x       y       z     vdW  Elec       q    Type
REMARK                         _______ _______ _______ _____ _____    ______ ____
ROOT
ATOM      1  C   UNL     1       3.649   4.249  19.756  0.00  0.00    +0.000 A 
ATOM      2  C   UNL     1       3.586   2.898  20.160  0.00  0.00    +0.000 A 
ATOM      3  C   UNL     1       2.428   2.361  20.715  0.00  0.00    +0.000 A 
ATOM      4  C   UNL     1       1.301   3.156  20.841  0.00  0.00    +0.000 A 
ATOM      5  C   UNL     1       1.331   4.481  20.397  0.00  0.00    +0.000 A 
ATOM      6  C   UNL     1       2.488   5.065  19.824  0.00  0.00    +0.000 A 
ENDROOT
BRANCH   6   7
ATOM      7  C   UNL     1       2.388   6.457  19.304  0.00  0.00    +0.000 A 
ATOM      8  C   UNL     1       2.792   6.821  18.010  0.00  0.00    +0.000 A 
ATOM      9  C   UNL     1       2.597   8.119  17.521  0.00  0.00    +0.000 A 
ATOM     10  C   UNL     1       2.035   9.102  18.333  0.00  0.00    +0.000 A 
ATOM     11  C   UNL     1       1.681   8.788  19.637  0.00  0.00    +0.000 A 
ATOM     12  C   UNL     1       1.853   7.486  20.115  0.00  0.00    +0.000 A 
ENDBRANCH   6   7
BRANCH   1  15
ATOM     13  N   UNL     1       5.390   4.190  17.968  0.00  0.00    +0.000 N 
ATOM     14  C   UNL     1       6.487   4.845  17.283  0.00  0.00    +0.000 C 
ATOM     15  C   UNL     1       4.947   4.730  19.185  0.00  0.00    +0.000 C 
ATOM     16  O   UNL     1       5.623   5.522  19.839  0.00  0.00    +0.000 OA
BRANCH  13  18
ATOM     17  C   UNL     1       4.824   4.238  15.723  0.00  0.00    +0.000 C 
ATOM     18  O   UNL     1       4.393   3.841  17.022  0.00  0.00    +0.000 OA
ENDBRANCH  13  18
ENDBRANCH   1  15
TORSDOF 3
ENDMDL
MODEL 9
REMARK VINA RESULT:      -6.5      2.115      3.868
REMARK  Name = 
REMARK  5 active torsions:
REMARK  status: ('A' for Active; 'I' for Inactive)
REMARK    1  A    between atoms: C_1  and  O_2
REMARK    2  A    between atoms: O_2  and  N_3
REMARK    3  A    between atoms: N_3  and  C_4
REMARK    4  A    between atoms: C_5  and  C_7
REMARK    5  A    between atoms: C_12  and  C_13
REMARK                            x       y       z     vdW  Elec       q    Type
REMARK                         _______ _______ _______ _____ _____    ______ ____
ROOT
ATOM      1  C   UNL     1       3.697   4.310  19.460  0.00  0.00    +0.000 A 
ATOM      2  C   UNL     1       3.807   2.988  19.939  0.00  0.00    +0.000 A 
ATOM      3  C   UNL     1       3.034   2.536  21.004  0.00  0.00    +0.000 A 
ATOM      4  C   UNL     1       2.109   3.388  21.585  0.00  0.00    +0.000 A 
ATOM      5  C   UNL     1       1.950   4.685  21.088  0.00  0.00    +0.000 A 
ATOM      6  C   UNL     1       2.716   5.182  20.003  0.00  0.00    +0.000 A 
ENDROOT
BRANCH   6   7
ATOM      7  C   UNL     1       2.408   6.548  19.495  0.00  0.00    +0.000 A 
ATOM      8  C   UNL     1       2.633   6.938  18.166  0.00  0.00    +0.000 A 
ATOM      9  C   UNL     1       2.245   8.200  17.697  0.00  0.00    +0.000 A 
ATOM     10  C   UNL     1       1.664   9.125  18.562  0.00  0.00    +0.000 A 
ATOM     11  C   UNL     1       1.483   8.791  19.896  0.00  0.00    +0.000 A 
ATOM     12  C   UNL     1       1.848   7.521  20.355  0.00  0.00    +0.000 A 
ENDBRANCH   6   7
BRANCH   1  15
ATOM     13  N   UNL     1       5.741   5.448  18.590  0.00  0.00    +0.000 N 
ATOM     14  C   UNL     1       6.735   5.583  17.542  0.00  0.00    +0.000 C 
ATOM     15  C   UNL     1       4.586   4.699  18.320  0.00  0.00    +0.000 C 
ATOM     16  O   UNL     1       4.235   4.419  17.174  0.00  0.00    +0.000 OA
BRANCH  13  18
ATOM     17  C   UNL     1       7.748   5.631  19.729  0.00  0.00    +0.000 C 
ATOM     18  O   UNL     1       6.396   5.194  19.821  0.00  0.00    +0.000 OA
ENDBRANCH  13  18
ENDBRANCH   1  15
TORSDOF 3
ENDMDL
