MODEL 1
REMARK VINA RESULT:      -8.2      0.000      0.000
REMARK  Name = 
REMARK  6 active torsions:
REMARK  status: ('A' for Active; 'I' for Inactive)
REMARK    1  A    between atoms: C_1  and  O_2
REMARK    2  A    between atoms: O_2  and  C_3
REMARK    3  A    between atoms: C_6  and  N_7
REMARK    4  A    between atoms: C_10  and  C_11
REMARK    5  A    between atoms: C_16  and  N_17
REMARK    6  A    between atoms: C_18  and  C_20
REMARK                            x       y       z     vdW  Elec       q    Type
REMARK                         _______ _______ _______ _____ _____    ______ ____
ROOT
ATOM      1  C   UNL     1       2.022   4.914  20.096  0.00  0.00    +0.000 A 
ATOM      2  C   UNL     1       0.901   4.090  20.328  0.00  0.00    +0.000 A 
ATOM      3  C   UNL     1       0.977   2.705  20.170  0.00  0.00    +0.000 A 
ATOM      4  C   UNL     1       2.173   2.119  19.774  0.00  0.00    +0.000 A 
ATOM      5  C   UNL     1       3.289   2.918  19.523  0.00  0.00    +0.000 A 
ATOM      6  C   UNL     1       3.226   4.312  19.675  0.00  0.00    +0.000 A 
ENDROOT
BRANCH   1  10
ATOM      7  N   UNL     1       1.134   8.256  20.659  0.00  0.00    +0.000 N 
ATOM      8  N   UNL     1       1.858   8.434  19.529  0.00  0.00    +0.000 NA
ATOM      9  N   UNL     1       2.318   7.234  19.215  0.00  0.00    +0.000 NA
ATOM     10  C   UNL     1       1.855   6.364  20.173  0.00  0.00    +0.000 A 
ATOM     11  N   UNL     1       1.165   6.989  21.139  0.00  0.00    +0.000 NA
BRANCH   7  15
ATOM     12  C   UNL     1      -1.123  11.350  22.417  0.00  0.00    +0.000 A 
ATOM     13  C   UNL     1      -0.688  10.270  23.194  0.00  0.00    +0.000 A 
ATOM     14  C   UNL     1       0.049   9.230  22.619  0.00  0.00    +0.000 A 
ATOM     15  C   UNL     1       0.345   9.270  21.253  0.00  0.00    +0.000 A 
ATOM     16  C   UNL     1      -0.112  10.337  20.467  0.00  0.00    +0.000 A 
ATOM     17  C   UNL     1      -0.846  11.371  21.051  0.00  0.00    +0.000 A 
BRANCH  12  19
ATOM     18  C   UNL     1      -1.162  13.556  23.268  0.00  0.00    +0.000 C 
ATOM     19  O   UNL     1      -1.824  12.308  23.095  0.00  0.00    +0.000 OA
ENDBRANCH  12  19
ENDBRANCH   7  15
ENDBRANCH   1  10
BRANCH   6  20
ATOM     20  N   UNL     1       4.376   5.095  19.423  0.00  0.00    +0.000 N 
ATOM     21  C   UNL     1       4.944   5.283  18.174  0.00  0.00    +0.000 C 
ATOM     22  O   UNL     1       4.462   4.829  17.138  0.00  0.00    +0.000 OA
ATOM     23  H   UNL     1       4.625   5.799  20.114  0.00  0.00    +0.000 HD
BRANCH  21  24
ATOM     24  C   UNL     1       6.132   6.133  18.157  0.00  0.00    +0.000 A 
ATOM     25  C   UNL     1       6.360   7.211  17.320  0.00  0.00    +0.000 A 
ATOM     26  C   UNL     1       7.648   7.787  17.507  0.00  0.00    +0.000 A 
ATOM     27  C   UNL     1       8.363   7.140  18.489  0.00  0.00    +0.000 A 
ATOM     28  S   UNL     1       7.473   5.858  19.189  0.00  0.00    +0.000 S 
ENDBRANCH  21  24
ENDBRANCH   6  20
TORSDOF 5
ENDMDL
MODEL 2
REMARK VINA RESULT:      -8.1      0.639      1.230
REMARK  Name = 
REMARK  6 active torsions:
REMARK  status: ('A' for Active; 'I' for Inactive)
REMARK    1  A    between atoms: C_1  and  O_2
REMARK    2  A    between atoms: O_2  and  C_3
REMARK    3  A    between atoms: C_6  and  N_7
REMARK    4  A    between atoms: C_10  and  C_11
REMARK    5  A    between atoms: C_16  and  N_17
REMARK    6  A    between atoms: C_18  and  C_20
REMARK                            x       y       z     vdW  Elec       q    Type
REMARK                         _______ _______ _______ _____ _____    ______ ____
ROOT
ATOM      1  C   UNL     1       2.029   4.943  20.160  0.00  0.00    +0.000 A 
ATOM      2  C   UNL     1       0.901   4.144  20.439  0.00  0.00    +0.000 A 
ATOM      3  C   UNL     1       0.954   2.754  20.328  0.00  0.00    +0.000 A 
ATOM      4  C   UNL     1       2.135   2.137  19.934  0.00  0.00    +0.000 A 
ATOM      5  C   UNL     1       3.258   2.910  19.636  0.00  0.00    +0.000 A 
ATOM      6  C   UNL     1       3.217   4.309  19.740  0.00  0.00    +0.000 A 
ENDROOT
BRANCH   1  10
ATOM      7  N   UNL     1       1.214   8.316  20.639  0.00  0.00    +0.000 N 
ATOM      8  N   UNL     1       1.874   8.440  19.463  0.00  0.00    +0.000 NA
ATOM      9  N   UNL     1       2.301   7.223  19.171  0.00  0.00    +0.000 NA
ATOM     10  C   UNL     1       1.884   6.397  20.188  0.00  0.00    +0.000 A 
ATOM     11  N   UNL     1       1.259   7.069  21.166  0.00  0.00    +0.000 NA
BRANCH   7  15
ATOM     12  C   UNL     1      -1.087  11.367  22.416  0.00  0.00    +0.000 A 
ATOM     13  C   UNL     1      -0.618  11.515  21.105  0.00  0.00    +0.000 A 
ATOM     14  C   UNL     1       0.159  10.516  20.509  0.00  0.00    +0.000 A 
ATOM     15  C   UNL     1       0.474   9.364  21.237  0.00  0.00    +0.000 A 
ATOM     16  C   UNL     1       0.029   9.225  22.559  0.00  0.00    +0.000 A 
ATOM     17  C   UNL     1      -0.748  10.228  23.144  0.00  0.00    +0.000 A 
BRANCH  12  19
ATOM     18  C   UNL     1      -1.132  13.591  23.219  0.00  0.00    +0.000 C 
ATOM     19  O   UNL     1      -1.845  12.405  22.882  0.00  0.00    +0.000 OA
ENDBRANCH  12  19
ENDBRANCH   7  15
ENDBRANCH   1  10
BRANCH   6  20
ATOM     20  N   UNL     1       4.373   5.066  19.441  0.00  0.00    +0.000 N 
ATOM     21  C   UNL     1       4.990   5.108  18.202  0.00  0.00    +0.000 C 
ATOM     22  O   UNL     1       4.551   4.530  17.210  0.00  0.00    +0.000 OA
ATOM     23  H   UNL     1       4.592   5.849  20.052  0.00  0.00    +0.000 HD
BRANCH  21  24
ATOM     24  C   UNL     1       6.175   5.959  18.130  0.00  0.00    +0.000 A 
ATOM     25  C   UNL     1       7.296   5.880  18.937  0.00  0.00    +0.000 A 
ATOM     26  C   UNL     1       8.247   6.901  18.657  0.00  0.00    +0.000 A 
ATOM     27  C   UNL     1       7.830   7.725  17.637  0.00  0.00    +0.000 A 
ATOM     28  S   UNL     1       6.310   7.253  17.012  0.00  0.00    +0.000 S 
ENDBRANCH  21  24
ENDBRANCH   6  20
TORSDOF 5
ENDMDL
MODEL 3
REMARK VINA RESULT:      -7.9      2.165      2.611
REMARK  Name = 
REMARK  6 active torsions:
REMARK  status: ('A' for Active; 'I' for Inactive)
REMARK    1  A    between atoms: C_1  and  O_2
REMARK    2  A    between atoms: O_2  and  C_3
REMARK    3  A    between atoms: C_6  and  N_7
REMARK    4  A    between atoms: C_10  and  C_11
REMARK    5  A    between atoms: C_16  and  N_17
REMARK    6  A    between atoms: C_18  and  C_20
REMARK                            x       y       z     vdW  Elec       q    Type
REMARK                         _______ _______ _______ _____ _____    ______ ____
ROOT
ATOM      1  C   UNL     1       2.328   4.833  19.796  0.00  0.00    +0.000 A 
ATOM      2  C   UNL     1       1.528   4.550  20.922  0.00  0.00    +0.000 A 
ATOM      3  C   UNL     1       1.381   3.245  21.395  0.00  0.00    +0.000 A 
ATOM      4  C   UNL     1       2.030   2.199  20.751  0.00  0.00    +0.000 A 
ATOM      5  C   UNL     1       2.814   2.455  19.626  0.00  0.00    +0.000 A 
ATOM      6  C   UNL     1       2.966   3.762  19.136  0.00  0.00    +0.000 A 
ENDROOT
BRANCH   1  10
ATOM      7  N   UNL     1       1.989   8.233  19.026  0.00  0.00    +0.000 N 
ATOM      8  N   UNL     1       2.480   7.812  17.837  0.00  0.00    +0.000 NA
ATOM      9  N   UNL     1       2.715   6.520  17.993  0.00  0.00    +0.000 NA
ATOM     10  C   UNL     1       2.359   6.201  19.282  0.00  0.00    +0.000 A 
ATOM     11  N   UNL     1       1.964   7.274  19.982  0.00  0.00    +0.000 NA
BRANCH   7  15
ATOM     12  C   UNL     1       0.551  12.136  19.708  0.00  0.00    +0.000 A 
ATOM     13  C   UNL     1       0.182  11.092  20.565  0.00  0.00    +0.000 A 
ATOM     14  C   UNL     1       0.640   9.790  20.341  0.00  0.00    +0.000 A 
ATOM     15  C   UNL     1       1.470   9.532  19.244  0.00  0.00    +0.000 A 
ATOM     16  C   UNL     1       1.819  10.570  18.369  0.00  0.00    +0.000 A 
ATOM     17  C   UNL     1       1.356  11.867  18.603  0.00  0.00    +0.000 A 
BRANCH  12  19
ATOM     18  C   UNL     1      -0.208  14.243  18.949  0.00  0.00    +0.000 C 
ATOM     19  O   UNL     1       0.048  13.363  20.039  0.00  0.00    +0.000 OA
ENDBRANCH  12  19
ENDBRANCH   7  15
ENDBRANCH   1  10
BRANCH   6  20
ATOM     20  N   UNL     1       3.775   3.992  17.999  0.00  0.00    +0.000 N 
ATOM     21  C   UNL     1       5.150   4.155  18.030  0.00  0.00    +0.000 C 
ATOM     22  O   UNL     1       5.819   4.057  19.057  0.00  0.00    +0.000 OA
ATOM     23  H   UNL     1       3.399   3.723  17.094  0.00  0.00    +0.000 HD
BRANCH  21  24
ATOM     24  C   UNL     1       5.775   4.383  16.729  0.00  0.00    +0.000 A 
ATOM     25  C   UNL     1       5.488   3.716  15.552  0.00  0.00    +0.000 A 
ATOM     26  C   UNL     1       6.324   4.123  14.473  0.00  0.00    +0.000 A 
ATOM     27  C   UNL     1       7.217   5.098  14.856  0.00  0.00    +0.000 A 
ATOM     28  S   UNL     1       7.032   5.527  16.501  0.00  0.00    +0.000 S 
ENDBRANCH  21  24
ENDBRANCH   6  20
TORSDOF 5
ENDMDL
MODEL 4
REMARK VINA RESULT:      -7.8      2.133      2.593
REMARK  Name = 
REMARK  6 active torsions:
REMARK  status: ('A' for Active; 'I' for Inactive)
REMARK    1  A    between atoms: C_1  and  O_2
REMARK    2  A    between atoms: O_2  and  C_3
REMARK    3  A    between atoms: C_6  and  N_7
REMARK    4  A    between atoms: C_10  and  C_11
REMARK    5  A    between atoms: C_16  and  N_17
REMARK    6  A    between atoms: C_18  and  C_20
REMARK                            x       y       z     vdW  Elec       q    Type
REMARK                         _______ _______ _______ _____ _____    ______ ____
ROOT
ATOM      1  C   UNL     1       2.764   4.870  20.125  0.00  0.00    +0.000 A 
ATOM      2  C   UNL     1       1.920   4.490  21.189  0.00  0.00    +0.000 A 
ATOM      3  C   UNL     1       1.983   3.209  21.741  0.00  0.00    +0.000 A 
ATOM      4  C   UNL     1       2.889   2.284  21.237  0.00  0.00    +0.000 A 
ATOM      5  C   UNL     1       3.722   2.634  20.174  0.00  0.00    +0.000 A 
ATOM      6  C   UNL     1       3.666   3.917  19.607  0.00  0.00    +0.000 A 
ENDROOT
BRANCH   1  10
ATOM      7  N   UNL     1       1.939   8.134  19.160  0.00  0.00    +0.000 N 
ATOM      8  N   UNL     1       2.374   7.681  17.961  0.00  0.00    +0.000 NA
ATOM      9  N   UNL     1       2.782   6.442  18.182  0.00  0.00    +0.000 NA
ATOM     10  C   UNL     1       2.580   6.186  19.518  0.00  0.00    +0.000 A 
ATOM     11  N   UNL     1       2.117   7.258  20.178  0.00  0.00    +0.000 NA
BRANCH   7  15
ATOM     12  C   UNL     1      -0.116  11.779  19.661  0.00  0.00    +0.000 A 
ATOM     13  C   UNL     1       0.759  11.610  18.581  0.00  0.00    +0.000 A 
ATOM     14  C   UNL     1       1.458  10.410  18.412  0.00  0.00    +0.000 A 
ATOM     15  C   UNL     1       1.283   9.376  19.337  0.00  0.00    +0.000 A 
ATOM     16  C   UNL     1       0.429   9.553  20.434  0.00  0.00    +0.000 A 
ATOM     17  C   UNL     1      -0.266  10.755  20.592  0.00  0.00    +0.000 A 
BRANCH  12  19
ATOM     18  C   UNL     1      -2.096  12.969  20.168  0.00  0.00    +0.000 C 
ATOM     19  O   UNL     1      -0.748  12.991  19.710  0.00  0.00    +0.000 OA
ENDBRANCH  12  19
ENDBRANCH   7  15
ENDBRANCH   1  10
BRANCH   6  20
ATOM     20  N   UNL     1       4.530   4.246  18.537  0.00  0.00    +0.000 N 
ATOM     21  C   UNL     1       4.363   3.820  17.230  0.00  0.00    +0.000 C 
ATOM     22  O   UNL     1       3.401   3.153  16.855  0.00  0.00    +0.000 OA
ATOM     23  H   UNL     1       5.118   5.069  18.644  0.00  0.00    +0.000 HD
BRANCH  21  24
ATOM     24  C   UNL     1       5.383   4.285  16.293  0.00  0.00    +0.000 A 
ATOM     25  C   UNL     1       5.227   4.465  14.930  0.00  0.00    +0.000 A 
ATOM     26  C   UNL     1       6.434   4.862  14.288  0.00  0.00    +0.000 A 
ATOM     27  C   UNL     1       7.474   4.984  15.180  0.00  0.00    +0.000 A 
ATOM     28  S   UNL     1       6.987   4.640  16.783  0.00  0.00    +0.000 S 
ENDBRANCH  21  24
ENDBRANCH   6  20
TORSDOF 5
ENDMDL
MODEL 5
REMARK VINA RESULT:      -7.7      4.424      7.686
REMARK  Name = 
REMARK  6 active torsions:
REMARK  status: ('A' for Active; 'I' for Inactive)
REMARK    1  A    between atoms: C_1  and  O_2
REMARK    2  A    between atoms: O_2  and  C_3
REMARK    3  A    between atoms: C_6  and  N_7
REMARK    4  A    between atoms: C_10  and  C_11
REMARK    5  A    between atoms: C_16  and  N_17
REMARK    6  A    between atoms: C_18  and  C_20
REMARK                            x       y       z     vdW  Elec       q    Type
REMARK                         _______ _______ _______ _____ _____    ______ ____
ROOT
ATOM      1  C   UNL     1       6.667   5.682  15.896  0.00  0.00    +0.000 A 
ATOM      2  C   UNL     1       7.537   5.340  14.840  0.00  0.00    +0.000 A 
ATOM      3  C   UNL     1       7.140   4.456  13.834  0.00  0.00    +0.000 A 
ATOM      4  C   UNL     1       5.868   3.898  13.867  0.00  0.00    +0.000 A 
ATOM      5  C   UNL     1       4.998   4.211  14.912  0.00  0.00    +0.000 A 
ATOM      6  C   UNL     1       5.386   5.094  15.932  0.00  0.00    +0.000 A 
ENDROOT
BRANCH   1  10
ATOM      7  N   UNL     1       7.964   8.137  18.032  0.00  0.00    +0.000 N 
ATOM      8  N   UNL     1       8.185   7.058  18.819  0.00  0.00    +0.000 NA
ATOM      9  N   UNL     1       7.685   6.030  18.152  0.00  0.00    +0.000 NA
ATOM     10  C   UNL     1       7.174   6.526  16.977  0.00  0.00    +0.000 A 
ATOM     11  N   UNL     1       7.269   7.862  16.903  0.00  0.00    +0.000 NA
BRANCH   7  15
ATOM     12  C   UNL     1       9.413  11.986  18.950  0.00  0.00    +0.000 A 
ATOM     13  C   UNL     1       8.646  11.782  17.797  0.00  0.00    +0.000 A 
ATOM     14  C   UNL     1       8.172  10.506  17.473  0.00  0.00    +0.000 A 
ATOM     15  C   UNL     1       8.476   9.427  18.310  0.00  0.00    +0.000 A 
ATOM     16  C   UNL     1       9.266   9.624  19.451  0.00  0.00    +0.000 A 
ATOM     17  C   UNL     1       9.733  10.903  19.765  0.00  0.00    +0.000 A 
BRANCH  12  19
ATOM     18  C   UNL     1      10.129  14.029  17.996  0.00  0.00    +0.000 C 
ATOM     19  O   UNL     1       9.808  13.278  19.163  0.00  0.00    +0.000 OA
ENDBRANCH  12  19
ENDBRANCH   7  15
ENDBRANCH   1  10
BRANCH   6  20
ATOM     20  N   UNL     1       4.479   5.400  16.973  0.00  0.00    +0.000 N 
ATOM     21  C   UNL     1       4.326   4.655  18.130  0.00  0.00    +0.000 C 
ATOM     22  O   UNL     1       5.015   3.672  18.396  0.00  0.00    +0.000 OA
ATOM     23  H   UNL     1       4.145   6.358  17.037  0.00  0.00    +0.000 HD
BRANCH  21  24
ATOM     24  C   UNL     1       3.326   5.163  19.065  0.00  0.00    +0.000 A 
ATOM     25  C   UNL     1       2.925   6.480  19.205  0.00  0.00    +0.000 A 
ATOM     26  C   UNL     1       1.981   6.658  20.257  0.00  0.00    +0.000 A 
ATOM     27  C   UNL     1       1.680   5.469  20.882  0.00  0.00    +0.000 A 
ATOM     28  S   UNL     1       2.519   4.150  20.189  0.00  0.00    +0.000 S 
ENDBRANCH  21  24
ENDBRANCH   6  20
TORSDOF 5
ENDMDL
MODEL 6
REMARK VINA RESULT:      -7.7      2.121      2.646
REMARK  Name = 
REMARK  6 active torsions:
REMARK  status: ('A' for Active; 'I' for Inactive)
REMARK    1  A    between atoms: C_1  and  O_2
REMARK    2  A    between atoms: O_2  and  C_3
REMARK    3  A    between atoms: C_6  and  N_7
REMARK    4  A    between atoms: C_10  and  C_11
REMARK    5  A    between atoms: C_16  and  N_17
REMARK    6  A    between atoms: C_18  and  C_20
REMARK                            x       y       z     vdW  Elec       q    Type
REMARK                         _______ _______ _______ _____ _____    ______ ____
ROOT
ATOM      1  C   UNL     1       2.600   4.810  20.075  0.00  0.00    +0.000 A 
ATOM      2  C   UNL     1       1.862   4.518  21.241  0.00  0.00    +0.000 A 
ATOM      3  C   UNL     1       1.880   3.243  21.807  0.00  0.00    +0.000 A 
ATOM      4  C   UNL     1       2.634   2.235  21.218  0.00  0.00    +0.000 A 
ATOM      5  C   UNL     1       3.359   2.499  20.055  0.00  0.00    +0.000 A 
ATOM      6  C   UNL     1       3.345   3.776  19.472  0.00  0.00    +0.000 A 
ENDROOT
BRANCH   1  10
ATOM      7  N   UNL     1       1.914   8.113  19.129  0.00  0.00    +0.000 N 
ATOM      8  N   UNL     1       2.249   7.626  17.911  0.00  0.00    +0.000 NA
ATOM      9  N   UNL     1       2.594   6.366  18.119  0.00  0.00    +0.000 NA
ATOM     10  C   UNL     1       2.458   6.132  19.467  0.00  0.00    +0.000 A 
ATOM     11  N   UNL     1       2.100   7.234  20.143  0.00  0.00    +0.000 NA
BRANCH   7  15
ATOM     12  C   UNL     1       0.113  11.879  19.708  0.00  0.00    +0.000 A 
ATOM     13  C   UNL     1       0.970  11.670  18.620  0.00  0.00    +0.000 A 
ATOM     14  C   UNL     1       1.585  10.430  18.426  0.00  0.00    +0.000 A 
ATOM     15  C   UNL     1       1.344   9.393  19.333  0.00  0.00    +0.000 A 
ATOM     16  C   UNL     1       0.508   9.606  20.437  0.00  0.00    +0.000 A 
ATOM     17  C   UNL     1      -0.103  10.849  20.622  0.00  0.00    +0.000 A 
BRANCH  12  19
ATOM     18  C   UNL     1      -1.826  13.180  20.085  0.00  0.00    +0.000 C 
ATOM     19  O   UNL     1      -0.435  13.129  19.783  0.00  0.00    +0.000 OA
ENDBRANCH  12  19
ENDBRANCH   7  15
ENDBRANCH   1  10
BRANCH   6  20
ATOM     20  N   UNL     1       4.097   4.016  18.299  0.00  0.00    +0.000 N 
ATOM     21  C   UNL     1       5.455   4.288  18.274  0.00  0.00    +0.000 C 
ATOM     22  O   UNL     1       6.161   4.289  19.281  0.00  0.00    +0.000 OA
ATOM     23  H   UNL     1       3.716   3.677  17.420  0.00  0.00    +0.000 HD
BRANCH  21  24
ATOM     24  C   UNL     1       6.018   4.503  16.944  0.00  0.00    +0.000 A 
ATOM     25  C   UNL     1       7.335   4.810  16.648  0.00  0.00    +0.000 A 
ATOM     26  C   UNL     1       7.548   5.028  15.258  0.00  0.00    +0.000 A 
ATOM     27  C   UNL     1       6.390   4.870  14.530  0.00  0.00    +0.000 A 
ATOM     28  S   UNL     1       5.063   4.444  15.521  0.00  0.00    +0.000 S 
ENDBRANCH  21  24
ENDBRANCH   6  20
TORSDOF 5
ENDMDL
MODEL 7
REMARK VINA RESULT:      -7.6      4.491      7.668
REMARK  Name = 
REMARK  6 active torsions:
REMARK  status: ('A' for Active; 'I' for Inactive)
REMARK    1  A    between atoms: C_1  and  O_2
REMARK    2  A    between atoms: O_2  and  C_3
REMARK    3  A    between atoms: C_6  and  N_7
REMARK    4  A    between atoms: C_10  and  C_11
REMARK    5  A    between atoms: C_16  and  N_17
REMARK    6  A    between atoms: C_18  and  C_20
REMARK                            x       y       z     vdW  Elec       q    Type
REMARK                         _______ _______ _______ _____ _____    ______ ____
ROOT
ATOM      1  C   UNL     1       6.637   5.685  15.953  0.00  0.00    +0.000 A 
ATOM      2  C   UNL     1       7.442   5.441  14.822  0.00  0.00    +0.000 A 
ATOM      3  C   UNL     1       7.032   4.561  13.819  0.00  0.00    +0.000 A 
ATOM      4  C   UNL     1       5.810   3.908  13.929  0.00  0.00    +0.000 A 
ATOM      5  C   UNL     1       5.006   4.124  15.049  0.00  0.00    +0.000 A 
ATOM      6  C   UNL     1       5.409   5.002  16.067  0.00  0.00    +0.000 A 
ENDROOT
BRANCH   1  10
ATOM      7  N   UNL     1       7.967   8.149  18.059  0.00  0.00    +0.000 N 
ATOM      8  N   UNL     1       8.228   7.070  18.832  0.00  0.00    +0.000 NA
ATOM      9  N   UNL     1       7.723   6.038  18.177  0.00  0.00    +0.000 NA
ATOM     10  C   UNL     1       7.166   6.532  17.021  0.00  0.00    +0.000 A 
ATOM     11  N   UNL     1       7.239   7.869  16.951  0.00  0.00    +0.000 NA
BRANCH   7  15
ATOM     12  C   UNL     1       9.525  12.002  18.757  0.00  0.00    +0.000 A 
ATOM     13  C   UNL     1       9.876  10.940  19.599  0.00  0.00    +0.000 A 
ATOM     14  C   UNL     1       9.354   9.660  19.386  0.00  0.00    +0.000 A 
ATOM     15  C   UNL     1       8.468   9.446  18.326  0.00  0.00    +0.000 A 
ATOM     16  C   UNL     1       8.093  10.513  17.498  0.00  0.00    +0.000 A 
ATOM     17  C   UNL     1       8.622  11.788  17.718  0.00  0.00    +0.000 A 
BRANCH  12  19
ATOM     18  C   UNL     1      10.048  13.592  20.428  0.00  0.00    +0.000 C 
ATOM     19  O   UNL     1      10.109  13.200  19.061  0.00  0.00    +0.000 OA
ENDBRANCH  12  19
ENDBRANCH   7  15
ENDBRANCH   1  10
BRANCH   6  20
ATOM     20  N   UNL     1       4.568   5.208  17.185  0.00  0.00    +0.000 N 
ATOM     21  C   UNL     1       4.028   4.198  17.962  0.00  0.00    +0.000 C 
ATOM     22  O   UNL     1       4.278   3.006  17.789  0.00  0.00    +0.000 OA
ATOM     23  H   UNL     1       4.601   6.119  17.636  0.00  0.00    +0.000 HD
BRANCH  21  24
ATOM     24  C   UNL     1       3.186   4.650  19.067  0.00  0.00    +0.000 A 
ATOM     25  C   UNL     1       2.634   3.858  20.058  0.00  0.00    +0.000 A 
ATOM     26  C   UNL     1       1.803   4.594  20.949  0.00  0.00    +0.000 A 
ATOM     27  C   UNL     1       1.753   5.929  20.619  0.00  0.00    +0.000 A 
ATOM     28  S   UNL     1       2.718   6.289  19.255  0.00  0.00    +0.000 S 
ENDBRANCH  21  24
ENDBRANCH   6  20
TORSDOF 5
ENDMDL
MODEL 8
REMARK VINA RESULT:      -7.6      4.114      7.661
REMARK  Name = 
REMARK  6 active torsions:
REMARK  status: ('A' for Active; 'I' for Inactive)
REMARK    1  A    between atoms: C_1  and  O_2
REMARK    2  A    between atoms: O_2  and  C_3
REMARK    3  A    between atoms: C_6  and  N_7
REMARK    4  A    between atoms: C_10  and  C_11
REMARK    5  A    between atoms: C_16  and  N_17
REMARK    6  A    between atoms: C_18  and  C_20
REMARK                            x       y       z     vdW  Elec       q    Type
REMARK                         _______ _______ _______ _____ _____    ______ ____
ROOT
ATOM      1  C   UNL     1       6.610   5.924  16.295  0.00  0.00    +0.000 A 
ATOM      2  C   UNL     1       7.446   5.124  15.489  0.00  0.00    +0.000 A 
ATOM      3  C   UNL     1       6.914   4.195  14.593  0.00  0.00    +0.000 A 
ATOM      4  C   UNL     1       5.536   4.048  14.488  0.00  0.00    +0.000 A 
ATOM      5  C   UNL     1       4.692   4.818  15.287  0.00  0.00    +0.000 A 
ATOM      6  C   UNL     1       5.214   5.753  16.196  0.00  0.00    +0.000 A 
ENDROOT
BRANCH   1  10
ATOM      7  N   UNL     1       8.105   8.448  18.210  0.00  0.00    +0.000 N 
ATOM      8  N   UNL     1       8.433   7.391  18.990  0.00  0.00    +0.000 NA
ATOM      9  N   UNL     1       7.877   6.341  18.409  0.00  0.00    +0.000 NA
ATOM     10  C   UNL     1       7.224   6.801  17.290  0.00  0.00    +0.000 A 
ATOM     11  N   UNL     1       7.287   8.136  17.176  0.00  0.00    +0.000 NA
BRANCH   7  15
ATOM     12  C   UNL     1       9.580  12.341  18.864  0.00  0.00    +0.000 A 
ATOM     13  C   UNL     1       8.744  12.081  17.771  0.00  0.00    +0.000 A 
ATOM     14  C   UNL     1       8.260  10.791  17.535  0.00  0.00    +0.000 A 
ATOM     15  C   UNL     1       8.623   9.752  18.398  0.00  0.00    +0.000 A 
ATOM     16  C   UNL     1       9.481  10.003  19.477  0.00  0.00    +0.000 A 
ATOM     17  C   UNL     1       9.958  11.296  19.704  0.00  0.00    +0.000 A 
BRANCH  12  19
ATOM     18  C   UNL     1       9.078  14.620  18.479  0.00  0.00    +0.000 C 
ATOM     19  O   UNL     1       9.977  13.643  18.993  0.00  0.00    +0.000 OA
ENDBRANCH  12  19
ENDBRANCH   7  15
ENDBRANCH   1  10
BRANCH   6  20
ATOM     20  N   UNL     1       4.332   6.526  16.986  0.00  0.00    +0.000 N 
ATOM     21  C   UNL     1       3.730   6.089  18.154  0.00  0.00    +0.000 C 
ATOM     22  O   UNL     1       3.953   4.989  18.657  0.00  0.00    +0.000 OA
ATOM     23  H   UNL     1       4.373   7.537  16.881  0.00  0.00    +0.000 HD
BRANCH  21  24
ATOM     24  C   UNL     1       2.856   7.063  18.801  0.00  0.00    +0.000 A 
ATOM     25  C   UNL     1       2.313   6.966  20.070  0.00  0.00    +0.000 A 
ATOM     26  C   UNL     1       1.443   8.050  20.379  0.00  0.00    +0.000 A 
ATOM     27  C   UNL     1       1.356   8.950  19.342  0.00  0.00    +0.000 A 
ATOM     28  S   UNL     1       2.333   8.495  18.014  0.00  0.00    +0.000 S 
ENDBRANCH  21  24
ENDBRANCH   6  20
TORSDOF 5
ENDMDL
MODEL 9
REMARK VINA RESULT:      -7.5      2.166      2.589
REMARK  Name = 
REMARK  6 active torsions:
REMARK  status: ('A' for Active; 'I' for Inactive)
REMARK    1  A    between atoms: C_1  and  O_2
REMARK    2  A    between atoms: O_2  and  C_3
REMARK    3  A    between atoms: C_6  and  N_7
REMARK    4  A    between atoms: C_10  and  C_11
REMARK    5  A    between atoms: C_16  and  N_17
REMARK    6  A    between atoms: C_18  and  C_20
REMARK                            x       y       z     vdW  Elec       q    Type
REMARK                         _______ _______ _______ _____ _____    ______ ____
ROOT
ATOM      1  C   UNL     1       2.655   5.061  19.919  0.00  0.00    +0.000 A 
ATOM      2  C   UNL     1       1.915   4.799  21.090  0.00  0.00    +0.000 A 
ATOM      3  C   UNL     1       1.900   3.527  21.667  0.00  0.00    +0.000 A 
ATOM      4  C   UNL     1       2.623   2.495  21.082  0.00  0.00    +0.000 A 
ATOM      5  C   UNL     1       3.349   2.729  19.914  0.00  0.00    +0.000 A 
ATOM      6  C   UNL     1       3.369   4.002  19.321  0.00  0.00    +0.000 A 
ENDROOT
BRANCH   1  10
ATOM      7  N   UNL     1       1.981   8.343  18.898  0.00  0.00    +0.000 N 
ATOM      8  N   UNL     1       2.494   7.879  17.735  0.00  0.00    +0.000 NA
ATOM      9  N   UNL     1       2.855   6.631  17.984  0.00  0.00    +0.000 NA
ATOM     10  C   UNL     1       2.547   6.381  19.301  0.00  0.00    +0.000 A 
ATOM     11  N   UNL     1       2.061   7.464  19.925  0.00  0.00    +0.000 NA
BRANCH   7  15
ATOM     12  C   UNL     1       0.168  12.121  19.350  0.00  0.00    +0.000 A 
ATOM     13  C   UNL     1      -0.399  10.994  19.957  0.00  0.00    +0.000 A 
ATOM     14  C   UNL     1       0.185   9.732  19.802  0.00  0.00    +0.000 A 
ATOM     15  C   UNL     1       1.342   9.600  19.027  0.00  0.00    +0.000 A 
ATOM     16  C   UNL     1       1.896  10.722  18.396  0.00  0.00    +0.000 A 
ATOM     17  C   UNL     1       1.305  11.978  18.558  0.00  0.00    +0.000 A 
BRANCH  12  19
ATOM     18  C   UNL     1      -1.432  13.279  20.651  0.00  0.00    +0.000 C 
ATOM     19  O   UNL     1      -0.488  13.297  19.585  0.00  0.00    +0.000 OA
ENDBRANCH  12  19
ENDBRANCH   7  15
ENDBRANCH   1  10
BRANCH   6  20
ATOM     20  N   UNL     1       4.122   4.211  18.143  0.00  0.00    +0.000 N 
ATOM     21  C   UNL     1       5.489   4.430  18.109  0.00  0.00    +0.000 C 
ATOM     22  O   UNL     1       6.201   4.405  19.110  0.00  0.00    +0.000 OA
ATOM     23  H   UNL     1       3.721   3.886  17.266  0.00  0.00    +0.000 HD
BRANCH  21  24
ATOM     24  C   UNL     1       6.051   4.622  16.775  0.00  0.00    +0.000 A 
ATOM     25  C   UNL     1       7.009   5.552  16.412  0.00  0.00    +0.000 A 
ATOM     26  C   UNL     1       7.293   5.532  15.017  0.00  0.00    +0.000 A 
ATOM     27  C   UNL     1       6.552   4.578  14.356  0.00  0.00    +0.000 A 
ATOM     28  S   UNL     1       5.537   3.706  15.420  0.00  0.00    +0.000 S 
ENDBRANCH  21  24
ENDBRANCH   6  20
TORSDOF 5
ENDMDL
