MODEL 1
REMARK VINA RESULT:      -7.1      0.000      0.000
REMARK  Name = 
REMARK  4 active torsions:
REMARK  status: ('A' for Active; 'I' for Inactive)
REMARK    1  A    between atoms: C_1  and  O_2
REMARK    2  A    between atoms: O_2  and  C_3
REMARK    3  A    between atoms: C_6  and  C_7
REMARK    4  A    between atoms: N_12  and  C_13
REMARK                            x       y       z     vdW  Elec       q    Type
REMARK                         _______ _______ _______ _____ _____    ______ ____
ROOT
ATOM      1  C   UNL     1       1.218   8.092  21.556  0.00  0.00    +0.000 C 
ATOM      2  C   UNL     1       0.514   9.215  21.405  0.00  0.00    +0.000 C 
ATOM      3  N   UNL     1       0.063   9.780  20.249  0.00  0.00    +0.000 N 
ATOM      4  C   UNL     1      -0.676  10.925  20.538  0.00  0.00    +0.000 C 
ATOM      5  S   UNL     1      -1.320  11.872  19.333  0.00  0.00    +0.000 S 
ATOM      6  N   UNL     1      -0.670  11.091  21.923  0.00  0.00    +0.000 N 
ATOM      7  C   UNL     1       0.062  10.083  22.535  0.00  0.00    +0.000 C 
ATOM      8  O   UNL     1       0.292   9.871  23.711  0.00  0.00    +0.000 OA
ATOM      9  H   UNL     1       0.240   9.431  19.317  0.00  0.00    +0.000 HD
ENDROOT
BRANCH   1  13
ATOM     10  C   UNL     1       2.603   5.660  18.340  0.00  0.00    +0.000 A 
ATOM     11  C   UNL     1       2.152   5.082  19.528  0.00  0.00    +0.000 A 
ATOM     12  C   UNL     1       1.691   5.882  20.573  0.00  0.00    +0.000 A 
ATOM     13  C   UNL     1       1.695   7.274  20.442  0.00  0.00    +0.000 A 
ATOM     14  C   UNL     1       2.166   7.856  19.263  0.00  0.00    +0.000 A 
ATOM     15  C   UNL     1       2.618   7.051  18.214  0.00  0.00    +0.000 A 
BRANCH  10  17
ATOM     16  C   UNL     1       2.417   3.490  17.420  0.00  0.00    +0.000 C 
ATOM     17  O   UNL     1       3.036   4.771  17.396  0.00  0.00    +0.000 OA
ENDBRANCH  10  17
ENDBRANCH   1  13
BRANCH   6  18
ATOM     18  C   UNL     1      -1.354  12.068  22.675  0.00  0.00    +0.000 A 
ATOM     19  C   UNL     1      -2.639  11.796  23.162  0.00  0.00    +0.000 A 
ATOM     20  C   UNL     1      -3.360  12.779  23.843  0.00  0.00    +0.000 A 
ATOM     21  C   UNL     1      -2.816  14.051  24.005  0.00  0.00    +0.000 A 
ATOM     22  C   UNL     1      -1.543  14.334  23.513  0.00  0.00    +0.000 A 
ATOM     23  C   UNL     1      -0.804  13.341  22.866  0.00  0.00    +0.000 A 
ENDBRANCH   6  18
TORSDOF 3
ENDMDL
MODEL 2
REMARK VINA RESULT:      -7.1      0.354      1.089
REMARK  Name = 
REMARK  4 active torsions:
REMARK  status: ('A' for Active; 'I' for Inactive)
REMARK    1  A    between atoms: C_1  and  O_2
REMARK    2  A    between atoms: O_2  and  C_3
REMARK    3  A    between atoms: C_6  and  C_7
REMARK    4  A    between atoms: N_12  and  C_13
REMARK                            x       y       z     vdW  Elec       q    Type
REMARK                         _______ _______ _______ _____ _____    ______ ____
ROOT
ATOM      1  C   UNL     1       1.209   8.137  21.497  0.00  0.00    +0.000 C 
ATOM      2  C   UNL     1       0.496   9.249  21.310  0.00  0.00    +0.000 C 
ATOM      3  N   UNL     1       0.040   9.774  20.137  0.00  0.00    +0.000 N 
ATOM      4  C   UNL     1      -0.708  10.921  20.390  0.00  0.00    +0.000 C 
ATOM      5  S   UNL     1      -1.359  11.824  19.155  0.00  0.00    +0.000 S 
ATOM      6  N   UNL     1      -0.703  11.132  21.768  0.00  0.00    +0.000 N 
ATOM      7  C   UNL     1       0.037  10.150  22.412  0.00  0.00    +0.000 C 
ATOM      8  O   UNL     1       0.269   9.977  23.594  0.00  0.00    +0.000 OA
ATOM      9  H   UNL     1       0.220   9.396  19.216  0.00  0.00    +0.000 HD
ENDROOT
BRANCH   1  13
ATOM     10  C   UNL     1       2.611   5.615  18.359  0.00  0.00    +0.000 A 
ATOM     11  C   UNL     1       2.118   5.070  19.546  0.00  0.00    +0.000 A 
ATOM     12  C   UNL     1       1.651   5.899  20.565  0.00  0.00    +0.000 A 
ATOM     13  C   UNL     1       1.692   7.288  20.410  0.00  0.00    +0.000 A 
ATOM     14  C   UNL     1       2.206   7.837  19.232  0.00  0.00    +0.000 A 
ATOM     15  C   UNL     1       2.662   7.002  18.209  0.00  0.00    +0.000 A 
BRANCH  10  17
ATOM     16  C   UNL     1       3.881   3.663  17.947  0.00  0.00    +0.000 C 
ATOM     17  O   UNL     1       3.045   4.699  17.442  0.00  0.00    +0.000 OA
ENDBRANCH  10  17
ENDBRANCH   1  13
BRANCH   6  18
ATOM     18  C   UNL     1      -1.395  12.126  22.489  0.00  0.00    +0.000 A 
ATOM     19  C   UNL     1      -0.774  13.355  22.748  0.00  0.00    +0.000 A 
ATOM     20  C   UNL     1      -1.416  14.322  23.524  0.00  0.00    +0.000 A 
ATOM     21  C   UNL     1      -2.663  14.050  24.081  0.00  0.00    +0.000 A 
ATOM     22  C   UNL     1      -3.283  12.824  23.839  0.00  0.00    +0.000 A 
ATOM     23  C   UNL     1      -2.660  11.871  23.029  0.00  0.00    +0.000 A 
ENDBRANCH   6  18
TORSDOF 3
ENDMDL
MODEL 3
REMARK VINA RESULT:      -7.0      3.064      3.834
REMARK  Name = 
REMARK  4 active torsions:
REMARK  status: ('A' for Active; 'I' for Inactive)
REMARK    1  A    between atoms: C_1  and  O_2
REMARK    2  A    between atoms: O_2  and  C_3
REMARK    3  A    between atoms: C_6  and  C_7
REMARK    4  A    between atoms: N_12  and  C_13
REMARK                            x       y       z     vdW  Elec       q    Type
REMARK                         _______ _______ _______ _____ _____    ______ ____
ROOT
ATOM      1  C   UNL     1       2.845   7.390  18.014  0.00  0.00    +0.000 C 
ATOM      2  C   UNL     1       2.124   8.189  18.804  0.00  0.00    +0.000 C 
ATOM      3  N   UNL     1       1.681   7.949  20.071  0.00  0.00    +0.000 N 
ATOM      4  C   UNL     1       1.006   9.067  20.557  0.00  0.00    +0.000 C 
ATOM      5  S   UNL     1       0.299   9.069  22.062  0.00  0.00    +0.000 S 
ATOM      6  N   UNL     1       1.012  10.032  19.550  0.00  0.00    +0.000 N 
ATOM      7  C   UNL     1       1.669   9.561  18.422  0.00  0.00    +0.000 C 
ATOM      8  O   UNL     1       1.893  10.096  17.352  0.00  0.00    +0.000 OA
ATOM      9  H   UNL     1       1.813   7.088  20.585  0.00  0.00    +0.000 HD
ENDROOT
BRANCH   1  13
ATOM     10  C   UNL     1       3.964   3.414  19.068  0.00  0.00    +0.000 A 
ATOM     11  C   UNL     1       2.696   3.684  18.551  0.00  0.00    +0.000 A 
ATOM     12  C   UNL     1       2.338   4.985  18.199  0.00  0.00    +0.000 A 
ATOM     13  C   UNL     1       3.246   6.033  18.379  0.00  0.00    +0.000 A 
ATOM     14  C   UNL     1       4.509   5.768  18.916  0.00  0.00    +0.000 A 
ATOM     15  C   UNL     1       4.867   4.461  19.257  0.00  0.00    +0.000 A 
BRANCH  10  17
ATOM     16  C   UNL     1       3.704   1.148  18.443  0.00  0.00    +0.000 C 
ATOM     17  O   UNL     1       4.190   2.102  19.381  0.00  0.00    +0.000 OA
ENDBRANCH  10  17
ENDBRANCH   1  13
BRANCH   6  18
ATOM     18  C   UNL     1       0.516  11.350  19.620  0.00  0.00    +0.000 A 
ATOM     19  C   UNL     1       1.323  12.369  20.144  0.00  0.00    +0.000 A 
ATOM     20  C   UNL     1       0.821  13.663  20.289  0.00  0.00    +0.000 A 
ATOM     21  C   UNL     1      -0.502  13.937  19.952  0.00  0.00    +0.000 A 
ATOM     22  C   UNL     1      -1.316  12.926  19.442  0.00  0.00    +0.000 A 
ATOM     23  C   UNL     1      -0.804  11.640  19.258  0.00  0.00    +0.000 A 
ENDBRANCH   6  18
TORSDOF 3
ENDMDL
MODEL 4
REMARK VINA RESULT:      -7.0      3.225      3.879
REMARK  Name = 
REMARK  4 active torsions:
REMARK  status: ('A' for Active; 'I' for Inactive)
REMARK    1  A    between atoms: C_1  and  O_2
REMARK    2  A    between atoms: O_2  and  C_3
REMARK    3  A    between atoms: C_6  and  C_7
REMARK    4  A    between atoms: N_12  and  C_13
REMARK                            x       y       z     vdW  Elec       q    Type
REMARK                         _______ _______ _______ _____ _____    ______ ____
ROOT
ATOM      1  C   UNL     1       2.722   7.372  17.939  0.00  0.00    +0.000 C 
ATOM      2  C   UNL     1       2.049   8.202  18.739  0.00  0.00    +0.000 C 
ATOM      3  N   UNL     1       1.537   7.952  19.978  0.00  0.00    +0.000 N 
ATOM      4  C   UNL     1       0.951   9.107  20.491  0.00  0.00    +0.000 C 
ATOM      5  S   UNL     1       0.189   9.113  21.968  0.00  0.00    +0.000 S 
ATOM      6  N   UNL     1       1.085  10.109  19.530  0.00  0.00    +0.000 N 
ATOM      7  C   UNL     1       1.739   9.625  18.404  0.00  0.00    +0.000 C 
ATOM      8  O   UNL     1       2.053  10.182  17.368  0.00  0.00    +0.000 OA
ATOM      9  H   UNL     1       1.568   7.061  20.457  0.00  0.00    +0.000 HD
ENDROOT
BRANCH   1  13
ATOM     10  C   UNL     1       3.529   3.293  18.879  0.00  0.00    +0.000 A 
ATOM     11  C   UNL     1       4.446   4.294  19.202  0.00  0.00    +0.000 A 
ATOM     12  C   UNL     1       4.173   5.628  18.901  0.00  0.00    +0.000 A 
ATOM     13  C   UNL     1       2.981   5.969  18.255  0.00  0.00    +0.000 A 
ATOM     14  C   UNL     1       2.070   4.966  17.911  0.00  0.00    +0.000 A 
ATOM     15  C   UNL     1       2.343   3.632  18.224  0.00  0.00    +0.000 A 
BRANCH  10  17
ATOM     16  C   UNL     1       4.654   1.907  20.429  0.00  0.00    +0.000 C 
ATOM     17  O   UNL     1       3.916   2.026  19.218  0.00  0.00    +0.000 OA
ENDBRANCH  10  17
ENDBRANCH   1  13
BRANCH   6  18
ATOM     18  C   UNL     1       0.712  11.464  19.642  0.00  0.00    +0.000 A 
ATOM     19  C   UNL     1      -0.516  11.893  19.121  0.00  0.00    +0.000 A 
ATOM     20  C   UNL     1      -0.866  13.243  19.157  0.00  0.00    +0.000 A 
ATOM     21  C   UNL     1       0.026  14.178  19.675  0.00  0.00    +0.000 A 
ATOM     22  C   UNL     1       1.256  13.762  20.184  0.00  0.00    +0.000 A 
ATOM     23  C   UNL     1       1.591  12.407  20.186  0.00  0.00    +0.000 A 
ENDBRANCH   6  18
TORSDOF 3
ENDMDL
MODEL 5
REMARK VINA RESULT:      -6.9      0.337      1.494
REMARK  Name = 
REMARK  4 active torsions:
REMARK  status: ('A' for Active; 'I' for Inactive)
REMARK    1  A    between atoms: C_1  and  O_2
REMARK    2  A    between atoms: O_2  and  C_3
REMARK    3  A    between atoms: C_6  and  C_7
REMARK    4  A    between atoms: N_12  and  C_13
REMARK                            x       y       z     vdW  Elec       q    Type
REMARK                         _______ _______ _______ _____ _____    ______ ____
ROOT
ATOM      1  C   UNL     1       1.221   8.085  21.575  0.00  0.00    +0.000 C 
ATOM      2  C   UNL     1       0.509   9.193  21.360  0.00  0.00    +0.000 C 
ATOM      3  N   UNL     1       0.043   9.682  20.176  0.00  0.00    +0.000 N 
ATOM      4  C   UNL     1      -0.698  10.840  20.400  0.00  0.00    +0.000 C 
ATOM      5  S   UNL     1      -1.359  11.706  19.144  0.00  0.00    +0.000 S 
ATOM      6  N   UNL     1      -0.678  11.093  21.771  0.00  0.00    +0.000 N 
ATOM      7  C   UNL     1       0.065  10.129  22.438  0.00  0.00    +0.000 C 
ATOM      8  O   UNL     1       0.309   9.993  23.623  0.00  0.00    +0.000 OA
ATOM      9  H   UNL     1       0.213   9.274  19.266  0.00  0.00    +0.000 HD
ENDROOT
BRANCH   1  13
ATOM     10  C   UNL     1       2.596   5.548  18.437  0.00  0.00    +0.000 A 
ATOM     11  C   UNL     1       2.647   6.936  18.305  0.00  0.00    +0.000 A 
ATOM     12  C   UNL     1       2.205   7.762  19.339  0.00  0.00    +0.000 A 
ATOM     13  C   UNL     1       1.690   7.200  20.510  0.00  0.00    +0.000 A 
ATOM     14  C   UNL     1       1.617   5.809  20.636  0.00  0.00    +0.000 A 
ATOM     15  C   UNL     1       2.071   4.986  19.602  0.00  0.00    +0.000 A 
BRANCH  10  17
ATOM     16  C   UNL     1       3.798   3.674  17.642  0.00  0.00    +0.000 C 
ATOM     17  O   UNL     1       3.051   4.850  17.352  0.00  0.00    +0.000 OA
ENDBRANCH  10  17
ENDBRANCH   1  13
BRANCH   6  18
ATOM     18  C   UNL     1      -1.359  12.113  22.467  0.00  0.00    +0.000 A 
ATOM     19  C   UNL     1      -0.713  13.329  22.726  0.00  0.00    +0.000 A 
ATOM     20  C   UNL     1      -1.346  14.320  23.479  0.00  0.00    +0.000 A 
ATOM     21  C   UNL     1      -2.610  14.084  24.012  0.00  0.00    +0.000 A 
ATOM     22  C   UNL     1      -3.256  12.872  23.771  0.00  0.00    +0.000 A 
ATOM     23  C   UNL     1      -2.641  11.896  22.984  0.00  0.00    +0.000 A 
ENDBRANCH   6  18
TORSDOF 3
ENDMDL
MODEL 6
REMARK VINA RESULT:      -6.9      3.125      3.809
REMARK  Name = 
REMARK  4 active torsions:
REMARK  status: ('A' for Active; 'I' for Inactive)
REMARK    1  A    between atoms: C_1  and  O_2
REMARK    2  A    between atoms: O_2  and  C_3
REMARK    3  A    between atoms: C_6  and  C_7
REMARK    4  A    between atoms: N_12  and  C_13
REMARK                            x       y       z     vdW  Elec       q    Type
REMARK                         _______ _______ _______ _____ _____    ______ ____
ROOT
ATOM      1  C   UNL     1       2.698   7.327  18.011  0.00  0.00    +0.000 C 
ATOM      2  C   UNL     1       2.043   8.151  18.831  0.00  0.00    +0.000 C 
ATOM      3  N   UNL     1       1.649   7.927  20.116  0.00  0.00    +0.000 N 
ATOM      4  C   UNL     1       1.036   9.068  20.631  0.00  0.00    +0.000 C 
ATOM      5  S   UNL     1       0.397   9.095  22.165  0.00  0.00    +0.000 S 
ATOM      6  N   UNL     1       1.031  10.032  19.624  0.00  0.00    +0.000 N 
ATOM      7  C   UNL     1       1.620   9.538  18.468  0.00  0.00    +0.000 C 
ATOM      8  O   UNL     1       1.815  10.066  17.388  0.00  0.00    +0.000 OA
ATOM      9  H   UNL     1       1.772   7.062  20.626  0.00  0.00    +0.000 HD
ENDROOT
BRANCH   1  13
ATOM     10  C   UNL     1       3.722   3.312  19.012  0.00  0.00    +0.000 A 
ATOM     11  C   UNL     1       2.495   3.607  18.417  0.00  0.00    +0.000 A 
ATOM     12  C   UNL     1       2.169   4.921  18.083  0.00  0.00    +0.000 A 
ATOM     13  C   UNL     1       3.067   5.956  18.359  0.00  0.00    +0.000 A 
ATOM     14  C   UNL     1       4.288   5.666  18.974  0.00  0.00    +0.000 A 
ATOM     15  C   UNL     1       4.615   4.347  19.298  0.00  0.00    +0.000 A 
BRANCH  10  17
ATOM     16  C   UNL     1       4.691   1.716  20.462  0.00  0.00    +0.000 C 
ATOM     17  O   UNL     1       3.920   1.989  19.298  0.00  0.00    +0.000 OA
ENDBRANCH  10  17
ENDBRANCH   1  13
BRANCH   6  18
ATOM     18  C   UNL     1       0.587  11.367  19.713  0.00  0.00    +0.000 A 
ATOM     19  C   UNL     1      -0.732  11.686  19.363  0.00  0.00    +0.000 A 
ATOM     20  C   UNL     1      -1.165  13.013  19.374  0.00  0.00    +0.000 A 
ATOM     21  C   UNL     1      -0.272  14.032  19.695  0.00  0.00    +0.000 A 
ATOM     22  C   UNL     1       1.046  13.726  20.032  0.00  0.00    +0.000 A 
ATOM     23  C   UNL     1       1.470  12.395  20.061  0.00  0.00    +0.000 A 
ENDBRANCH   6  18
TORSDOF 3
ENDMDL
MODEL 7
REMARK VINA RESULT:      -6.9      0.150      1.039
REMARK  Name = 
REMARK  4 active torsions:
REMARK  status: ('A' for Active; 'I' for Inactive)
REMARK    1  A    between atoms: C_1  and  O_2
REMARK    2  A    between atoms: O_2  and  C_3
REMARK    3  A    between atoms: C_6  and  C_7
REMARK    4  A    between atoms: N_12  and  C_13
REMARK                            x       y       z     vdW  Elec       q    Type
REMARK                         _______ _______ _______ _____ _____    ______ ____
ROOT
ATOM      1  C   UNL     1       1.233   8.011  21.619  0.00  0.00    +0.000 C 
ATOM      2  C   UNL     1       0.531   9.129  21.427  0.00  0.00    +0.000 C 
ATOM      3  N   UNL     1       0.067   9.645  20.254  0.00  0.00    +0.000 N 
ATOM      4  C   UNL     1      -0.664  10.805  20.502  0.00  0.00    +0.000 C 
ATOM      5  S   UNL     1      -1.319  11.701  19.264  0.00  0.00    +0.000 S 
ATOM      6  N   UNL     1      -0.640  11.032  21.877  0.00  0.00    +0.000 N 
ATOM      7  C   UNL     1       0.096  10.048  22.524  0.00  0.00    +0.000 C 
ATOM      8  O   UNL     1       0.340   9.886  23.705  0.00  0.00    +0.000 OA
ATOM      9  H   UNL     1       0.232   9.255  19.335  0.00  0.00    +0.000 HD
ENDROOT
BRANCH   1  13
ATOM     10  C   UNL     1       2.581   5.525  18.429  0.00  0.00    +0.000 A 
ATOM     11  C   UNL     1       2.645   6.915  18.325  0.00  0.00    +0.000 A 
ATOM     12  C   UNL     1       2.212   7.724  19.376  0.00  0.00    +0.000 A 
ATOM     13  C   UNL     1       1.692   7.143  20.536  0.00  0.00    +0.000 A 
ATOM     14  C   UNL     1       1.607   5.751  20.634  0.00  0.00    +0.000 A 
ATOM     15  C   UNL     1       2.053   4.945  19.584  0.00  0.00    +0.000 A 
BRANCH  10  17
ATOM     16  C   UNL     1       2.687   3.464  17.275  0.00  0.00    +0.000 C 
ATOM     17  O   UNL     1       3.029   4.845  17.331  0.00  0.00    +0.000 OA
ENDBRANCH  10  17
ENDBRANCH   1  13
BRANCH   6  18
ATOM     18  C   UNL     1      -1.310  12.043  22.594  0.00  0.00    +0.000 A 
ATOM     19  C   UNL     1      -2.598  11.805  23.092  0.00  0.00    +0.000 A 
ATOM     20  C   UNL     1      -3.306  12.820  23.739  0.00  0.00    +0.000 A 
ATOM     21  C   UNL     1      -2.747  14.090  23.853  0.00  0.00    +0.000 A 
ATOM     22  C   UNL     1      -1.471  14.340  23.349  0.00  0.00    +0.000 A 
ATOM     23  C   UNL     1      -0.746  13.315  22.739  0.00  0.00    +0.000 A 
ENDBRANCH   6  18
TORSDOF 3
ENDMDL
MODEL 8
REMARK VINA RESULT:      -6.9      3.126      3.875
REMARK  Name = 
REMARK  4 active torsions:
REMARK  status: ('A' for Active; 'I' for Inactive)
REMARK    1  A    between atoms: C_1  and  O_2
REMARK    2  A    between atoms: O_2  and  C_3
REMARK    3  A    between atoms: C_6  and  C_7
REMARK    4  A    between atoms: N_12  and  C_13
REMARK                            x       y       z     vdW  Elec       q    Type
REMARK                         _______ _______ _______ _____ _____    ______ ____
ROOT
ATOM      1  C   UNL     1       2.680   7.411  17.976  0.00  0.00    +0.000 C 
ATOM      2  C   UNL     1       2.010   8.249  18.770  0.00  0.00    +0.000 C 
ATOM      3  N   UNL     1       1.478   8.003  20.000  0.00  0.00    +0.000 N 
ATOM      4  C   UNL     1       0.903   9.166  20.509  0.00  0.00    +0.000 C 
ATOM      5  S   UNL     1       0.122   9.179  21.977  0.00  0.00    +0.000 S 
ATOM      6  N   UNL     1       1.065  10.168  19.554  0.00  0.00    +0.000 N 
ATOM      7  C   UNL     1       1.726   9.678  18.436  0.00  0.00    +0.000 C 
ATOM      8  O   UNL     1       2.063  10.233  17.406  0.00  0.00    +0.000 OA
ATOM      9  H   UNL     1       1.488   7.110  20.476  0.00  0.00    +0.000 HD
ENDROOT
BRANCH   1  13
ATOM     10  C   UNL     1       3.411   3.317  18.912  0.00  0.00    +0.000 A 
ATOM     11  C   UNL     1       4.329   4.305  19.269  0.00  0.00    +0.000 A 
ATOM     12  C   UNL     1       4.081   5.644  18.969  0.00  0.00    +0.000 A 
ATOM     13  C   UNL     1       2.913   6.003  18.290  0.00  0.00    +0.000 A 
ATOM     14  C   UNL     1       2.002   5.013  17.912  0.00  0.00    +0.000 A 
ATOM     15  C   UNL     1       2.249   3.674  18.224  0.00  0.00    +0.000 A 
BRANCH  10  17
ATOM     16  C   UNL     1       4.654   1.927  20.366  0.00  0.00    +0.000 C 
ATOM     17  O   UNL     1       3.772   2.044  19.255  0.00  0.00    +0.000 OA
ENDBRANCH  10  17
ENDBRANCH   1  13
BRANCH   6  18
ATOM     18  C   UNL     1       0.713  11.528  19.666  0.00  0.00    +0.000 A 
ATOM     19  C   UNL     1       1.511  12.394  20.425  0.00  0.00    +0.000 A 
ATOM     20  C   UNL     1       1.135  13.725  20.608  0.00  0.00    +0.000 A 
ATOM     21  C   UNL     1      -0.062  14.189  20.069  0.00  0.00    +0.000 A 
ATOM     22  C   UNL     1      -0.870  13.331  19.323  0.00  0.00    +0.000 A 
ATOM     23  C   UNL     1      -0.476  12.010  19.105  0.00  0.00    +0.000 A 
ENDBRANCH   6  18
TORSDOF 3
ENDMDL
MODEL 9
REMARK VINA RESULT:      -6.8      1.202      1.806
REMARK  Name = 
REMARK  4 active torsions:
REMARK  status: ('A' for Active; 'I' for Inactive)
REMARK    1  A    between atoms: C_1  and  O_2
REMARK    2  A    between atoms: O_2  and  C_3
REMARK    3  A    between atoms: C_6  and  C_7
REMARK    4  A    between atoms: N_12  and  C_13
REMARK                            x       y       z     vdW  Elec       q    Type
REMARK                         _______ _______ _______ _____ _____    ______ ____
ROOT
ATOM      1  C   UNL     1       1.731   7.328  21.116  0.00  0.00    +0.000 C 
ATOM      2  C   UNL     1       1.087   8.471  20.872  0.00  0.00    +0.000 C 
ATOM      3  N   UNL     1       0.357   8.812  19.773  0.00  0.00    +0.000 N 
ATOM      4  C   UNL     1      -0.191  10.082  19.942  0.00  0.00    +0.000 C 
ATOM      5  S   UNL     1      -1.094  10.805  18.748  0.00  0.00    +0.000 S 
ATOM      6  N   UNL     1       0.228  10.558  21.184  0.00  0.00    +0.000 N 
ATOM      7  C   UNL     1       1.039   9.628  21.818  0.00  0.00    +0.000 C 
ATOM      8  O   UNL     1       1.587   9.662  22.905  0.00  0.00    +0.000 OA
ATOM      9  H   UNL     1       0.233   8.237  18.949  0.00  0.00    +0.000 HD
ENDROOT
BRANCH   1  13
ATOM     10  C   UNL     1       1.985   4.131  18.307  0.00  0.00    +0.000 A 
ATOM     11  C   UNL     1       2.563   5.371  18.030  0.00  0.00    +0.000 A 
ATOM     12  C   UNL     1       2.485   6.411  18.957  0.00  0.00    +0.000 A 
ATOM     13  C   UNL     1       1.810   6.220  20.166  0.00  0.00    +0.000 A 
ATOM     14  C   UNL     1       1.212   4.986  20.436  0.00  0.00    +0.000 A 
ATOM     15  C   UNL     1       1.301   3.944  19.510  0.00  0.00    +0.000 A 
BRANCH  10  17
ATOM     16  C   UNL     1       2.909   2.059  17.645  0.00  0.00    +0.000 C 
ATOM     17  O   UNL     1       2.123   3.198  17.317  0.00  0.00    +0.000 OA
ENDBRANCH  10  17
ENDBRANCH   1  13
BRANCH   6  18
ATOM     18  C   UNL     1      -0.144  11.764  21.812  0.00  0.00    +0.000 A 
ATOM     19  C   UNL     1      -1.197  11.771  22.736  0.00  0.00    +0.000 A 
ATOM     20  C   UNL     1      -1.627  12.968  23.310  0.00  0.00    +0.000 A 
ATOM     21  C   UNL     1      -1.035  14.171  22.933  0.00  0.00    +0.000 A 
ATOM     22  C   UNL     1       0.005  14.175  22.004  0.00  0.00    +0.000 A 
ATOM     23  C   UNL     1       0.464  12.974  21.459  0.00  0.00    +0.000 A 
ENDBRANCH   6  18
TORSDOF 3
ENDMDL
