MODEL 1
REMARK VINA RESULT:      -7.4      0.000      0.000
REMARK  Name = 
REMARK  8 active torsions:
REMARK  status: ('A' for Active; 'I' for Inactive)
REMARK    1  A    between atoms: C_1  and  O_2
REMARK    2  A    between atoms: O_2  and  C_3
REMARK    3  A    between atoms: C_8  and  N_9
REMARK    4  A    between atoms: N_12  and  S_13
REMARK    5  A    between atoms: S_13  and  C_16
REMARK    6  A    between atoms: C_16  and  C_17
REMARK    7  A    between atoms: C_24  and  C_25
REMARK    8  A    between atoms: C_24  and  C_26
REMARK                            x       y       z     vdW  Elec       q    Type
REMARK                         _______ _______ _______ _____ _____    ______ ____
ROOT
ATOM      1  N   UNL     1       6.232   4.951  15.415  0.00  0.00    +0.000 N 
ATOM      2  C   UNL     1       7.198   4.650  16.479  0.00  0.00    +0.000 C 
ATOM      3  C   UNL     1       7.276   5.842  17.451  0.00  0.00    +0.000 C 
ATOM      4  N   UNL     1       5.942   6.245  18.002  0.00  0.00    +0.000 NA
ATOM      5  C   UNL     1       4.984   6.508  16.866  0.00  0.00    +0.000 C 
ATOM      6  C   UNL     1       4.883   5.304  15.903  0.00  0.00    +0.000 C 
ENDROOT
BRANCH   1  12
ATOM      7  C   UNL     1       7.408   4.897  13.212  0.00  0.00    +0.000 A 
ATOM      8  C   UNL     1       7.397   4.443  11.880  0.00  0.00    +0.000 A 
ATOM      9  C   UNL     1       6.441   3.533  11.440  0.00  0.00    +0.000 A 
ATOM     10  C   UNL     1       5.482   3.064  12.327  0.00  0.00    +0.000 A 
ATOM     11  C   UNL     1       5.469   3.530  13.641  0.00  0.00    +0.000 A 
ATOM     12  C   UNL     1       6.410   4.464  14.122  0.00  0.00    +0.000 A 
BRANCH   7  14
ATOM     13  C   UNL     1       9.401   6.142  12.767  0.00  0.00    +0.000 C 
ATOM     14  O   UNL     1       8.366   5.773  13.670  0.00  0.00    +0.000 OA
ENDBRANCH   7  14
ENDBRANCH   1  12
BRANCH   4  15
ATOM     15  S   UNL     1       5.272   5.297  19.254  0.00  0.00    +0.000 S 
ATOM     16  O   UNL     1       6.396   4.667  19.897  0.00  0.00    +0.000 OA
ATOM     17  O   UNL     1       4.363   6.144  19.997  0.00  0.00    +0.000 OA
BRANCH  15  18
ATOM     18  C   UNL     1       4.322   4.084  18.333  0.00  0.00    +0.000 C 
BRANCH  18  19
ATOM     19  C   UNL     1       3.158   3.469  19.090  0.00  0.00    +0.000 C 
ATOM     20  C   UNL     1       3.236   3.442  20.635  0.00  0.00    +0.000 C 
ATOM     21  C   UNL     1       1.776   3.160  21.055  0.00  0.00    +0.000 C 
ATOM     22  C   UNL     1       1.016   3.100  19.704  0.00  0.00    +0.000 C 
ATOM     23  C   UNL     1       1.356   1.750  19.044  0.00  0.00    +0.000 C 
ATOM     24  C   UNL     1       2.808   2.021  18.725  0.00  0.00    +0.000 C 
ATOM     25  O   UNL     1       3.566   1.179  18.278  0.00  0.00    +0.000 OA
ATOM     26  C   UNL     1       1.765   4.144  18.836  0.00  0.00    +0.000 C 
ATOM     27  C   UNL     1       1.336   4.180  17.354  0.00  0.00    +0.000 C 
ATOM     28  C   UNL     1       1.605   5.586  19.367  0.00  0.00    +0.000 C 
ENDBRANCH  18  19
ENDBRANCH  15  18
ENDBRANCH   4  15
TORSDOF 5
ENDMDL
MODEL 2
REMARK VINA RESULT:      -7.3      7.206      9.897
REMARK  Name = 
REMARK  8 active torsions:
REMARK  status: ('A' for Active; 'I' for Inactive)
REMARK    1  A    between atoms: C_1  and  O_2
REMARK    2  A    between atoms: O_2  and  C_3
REMARK    3  A    between atoms: C_8  and  N_9
REMARK    4  A    between atoms: N_12  and  S_13
REMARK    5  A    between atoms: S_13  and  C_16
REMARK    6  A    between atoms: C_16  and  C_17
REMARK    7  A    between atoms: C_24  and  C_25
REMARK    8  A    between atoms: C_24  and  C_26
REMARK                            x       y       z     vdW  Elec       q    Type
REMARK                         _______ _______ _______ _____ _____    ______ ____
ROOT
ATOM      1  N   UNL     1       1.425   8.461  19.673  0.00  0.00    +0.000 N 
ATOM      2  C   UNL     1       1.099   9.726  19.003  0.00  0.00    +0.000 C 
ATOM      3  C   UNL     1      -0.345  10.132  19.351  0.00  0.00    +0.000 C 
ATOM      4  N   UNL     1      -0.604  10.196  20.825  0.00  0.00    +0.000 NA
ATOM      5  C   UNL     1      -0.220   8.883  21.463  0.00  0.00    +0.000 C 
ATOM      6  C   UNL     1       1.237   8.485  21.138  0.00  0.00    +0.000 C 
ENDROOT
BRANCH   1  12
ATOM      7  C   UNL     1       2.559   6.237  19.588  0.00  0.00    +0.000 A 
ATOM      8  C   UNL     1       3.562   5.446  18.998  0.00  0.00    +0.000 A 
ATOM      9  C   UNL     1       4.273   5.899  17.890  0.00  0.00    +0.000 A 
ATOM     10  C   UNL     1       3.990   7.149  17.359  0.00  0.00    +0.000 A 
ATOM     11  C   UNL     1       3.018   7.951  17.955  0.00  0.00    +0.000 A 
ATOM     12  C   UNL     1       2.286   7.536  19.087  0.00  0.00    +0.000 A 
BRANCH   7  14
ATOM     13  C   UNL     1       1.775   4.386  20.885  0.00  0.00    +0.000 C 
ATOM     14  O   UNL     1       1.826   5.791  20.664  0.00  0.00    +0.000 OA
ENDBRANCH   7  14
ENDBRANCH   1  12
BRANCH   4  15
ATOM     15  S   UNL     1      -0.038  11.561  21.680  0.00  0.00    +0.000 S 
ATOM     16  O   UNL     1      -0.230  11.244  23.072  0.00  0.00    +0.000 OA
ATOM     17  O   UNL     1       1.272  11.884  21.160  0.00  0.00    +0.000 OA
BRANCH  15  18
ATOM     18  C   UNL     1      -1.201  12.829  21.166  0.00  0.00    +0.000 C 
BRANCH  18  19
ATOM     19  C   UNL     1      -2.426  12.978  22.051  0.00  0.00    +0.000 C 
ATOM     20  C   UNL     1      -2.663  11.903  23.138  0.00  0.00    +0.000 C 
ATOM     21  C   UNL     1      -3.694  12.572  24.074  0.00  0.00    +0.000 C 
ATOM     22  C   UNL     1      -3.899  13.974  23.442  0.00  0.00    +0.000 C 
ATOM     23  C   UNL     1      -4.775  13.789  22.188  0.00  0.00    +0.000 C 
ATOM     24  C   UNL     1      -3.774  13.056  21.326  0.00  0.00    +0.000 C 
ATOM     25  O   UNL     1      -4.046  12.581  20.238  0.00  0.00    +0.000 OA
ATOM     26  C   UNL     1      -2.495  14.310  22.875  0.00  0.00    +0.000 C 
ATOM     27  C   UNL     1      -2.434  15.592  22.019  0.00  0.00    +0.000 C 
ATOM     28  C   UNL     1      -1.431  14.479  23.982  0.00  0.00    +0.000 C 
ENDBRANCH  18  19
ENDBRANCH  15  18
ENDBRANCH   4  15
TORSDOF 5
ENDMDL
MODEL 3
REMARK VINA RESULT:      -7.3      7.436     10.137
REMARK  Name = 
REMARK  8 active torsions:
REMARK  status: ('A' for Active; 'I' for Inactive)
REMARK    1  A    between atoms: C_1  and  O_2
REMARK    2  A    between atoms: O_2  and  C_3
REMARK    3  A    between atoms: C_8  and  N_9
REMARK    4  A    between atoms: N_12  and  S_13
REMARK    5  A    between atoms: S_13  and  C_16
REMARK    6  A    between atoms: C_16  and  C_17
REMARK    7  A    between atoms: C_24  and  C_25
REMARK    8  A    between atoms: C_24  and  C_26
REMARK                            x       y       z     vdW  Elec       q    Type
REMARK                         _______ _______ _______ _____ _____    ______ ____
ROOT
ATOM      1  N   UNL     1       1.345   8.418  19.765  0.00  0.00    +0.000 N 
ATOM      2  C   UNL     1       0.919   9.661  19.112  0.00  0.00    +0.000 C 
ATOM      3  C   UNL     1      -0.548   9.954  19.476  0.00  0.00    +0.000 C 
ATOM      4  N   UNL     1      -0.797   9.983  20.953  0.00  0.00    +0.000 NA
ATOM      5  C   UNL     1      -0.310   8.697  21.574  0.00  0.00    +0.000 C 
ATOM      6  C   UNL     1       1.170   8.414  21.233  0.00  0.00    +0.000 C 
ENDROOT
BRANCH   1  12
ATOM      7  C   UNL     1       2.649   6.290  19.652  0.00  0.00    +0.000 A 
ATOM      8  C   UNL     1       3.703   5.583  19.043  0.00  0.00    +0.000 A 
ATOM      9  C   UNL     1       4.361   6.097  17.930  0.00  0.00    +0.000 A 
ATOM     10  C   UNL     1       3.975   7.323  17.410  0.00  0.00    +0.000 A 
ATOM     11  C   UNL     1       2.950   8.043  18.024  0.00  0.00    +0.000 A 
ATOM     12  C   UNL     1       2.268   7.567  19.163  0.00  0.00    +0.000 A 
BRANCH   7  14
ATOM     13  C   UNL     1       2.122   4.396  21.014  0.00  0.00    +0.000 C 
ATOM     14  O   UNL     1       1.968   5.782  20.735  0.00  0.00    +0.000 OA
ENDBRANCH   7  14
ENDBRANCH   1  12
BRANCH   4  15
ATOM     15  S   UNL     1      -0.329  11.379  21.818  0.00  0.00    +0.000 S 
ATOM     16  O   UNL     1      -0.396  11.006  23.207  0.00  0.00    +0.000 OA
ATOM     17  O   UNL     1       0.904  11.857  21.230  0.00  0.00    +0.000 OA
BRANCH  15  18
ATOM     18  C   UNL     1      -1.651  12.525  21.416  0.00  0.00    +0.000 C 
BRANCH  18  19
ATOM     19  C   UNL     1      -2.032  13.485  22.530  0.00  0.00    +0.000 C 
ATOM     20  C   UNL     1      -0.912  13.954  23.489  0.00  0.00    +0.000 C 
ATOM     21  C   UNL     1      -1.538  15.186  24.182  0.00  0.00    +0.000 C 
ATOM     22  C   UNL     1      -2.930  15.311  23.509  0.00  0.00    +0.000 C 
ATOM     23  C   UNL     1      -3.826  14.205  24.098  0.00  0.00    +0.000 C 
ATOM     24  C   UNL     1      -3.139  13.010  23.478  0.00  0.00    +0.000 C 
ATOM     25  O   UNL     1      -3.426  11.857  23.744  0.00  0.00    +0.000 OA
ATOM     26  C   UNL     1      -2.658  14.842  22.056  0.00  0.00    +0.000 C 
ATOM     27  C   UNL     1      -3.920  14.689  21.180  0.00  0.00    +0.000 C 
ATOM     28  C   UNL     1      -1.714  15.794  21.290  0.00  0.00    +0.000 C 
ENDBRANCH  18  19
ENDBRANCH  15  18
ENDBRANCH   4  15
TORSDOF 5
ENDMDL
MODEL 4
REMARK VINA RESULT:      -7.2     10.193     13.220
REMARK  Name = 
REMARK  8 active torsions:
REMARK  status: ('A' for Active; 'I' for Inactive)
REMARK    1  A    between atoms: C_1  and  O_2
REMARK    2  A    between atoms: O_2  and  C_3
REMARK    3  A    between atoms: C_8  and  N_9
REMARK    4  A    between atoms: N_12  and  S_13
REMARK    5  A    between atoms: S_13  and  C_16
REMARK    6  A    between atoms: C_16  and  C_17
REMARK    7  A    between atoms: C_24  and  C_25
REMARK    8  A    between atoms: C_24  and  C_26
REMARK                            x       y       z     vdW  Elec       q    Type
REMARK                         _______ _______ _______ _____ _____    ______ ____
ROOT
ATOM      1  N   UNL     1       2.972  16.424  18.423  0.00  0.00    +0.000 N 
ATOM      2  C   UNL     1       3.898  17.033  19.385  0.00  0.00    +0.000 C 
ATOM      3  C   UNL     1       4.582  15.925  20.208  0.00  0.00    +0.000 C 
ATOM      4  N   UNL     1       5.255  14.889  19.361  0.00  0.00    +0.000 NA
ATOM      5  C   UNL     1       4.267  14.324  18.371  0.00  0.00    +0.000 C 
ATOM      6  C   UNL     1       3.598  15.430  17.525  0.00  0.00    +0.000 C 
ENDROOT
BRANCH   1  12
ATOM      7  C   UNL     1       0.517  16.838  18.628  0.00  0.00    +0.000 A 
ATOM      8  C   UNL     1      -0.629  17.433  18.070  0.00  0.00    +0.000 A 
ATOM      9  C   UNL     1      -0.533  18.287  16.975  0.00  0.00    +0.000 A 
ATOM     10  C   UNL     1       0.711  18.557  16.424  0.00  0.00    +0.000 A 
ATOM     11  C   UNL     1       1.849  17.950  16.953  0.00  0.00    +0.000 A 
ATOM     12  C   UNL     1       1.794  17.066  18.051  0.00  0.00    +0.000 A 
BRANCH   7  14
ATOM     13  C   UNL     1      -0.854  15.657  20.192  0.00  0.00    +0.000 C 
ATOM     14  O   UNL     1       0.443  16.016  19.729  0.00  0.00    +0.000 OA
ENDBRANCH   7  14
ENDBRANCH   1  12
BRANCH   4  15
ATOM     15  S   UNL     1       6.768  15.277  18.670  0.00  0.00    +0.000 S 
ATOM     16  O   UNL     1       6.704  14.787  17.316  0.00  0.00    +0.000 OA
ATOM     17  O   UNL     1       7.025  16.673  18.949  0.00  0.00    +0.000 OA
BRANCH  15  18
ATOM     18  C   UNL     1       7.890  14.268  19.643  0.00  0.00    +0.000 C 
BRANCH  18  19
ATOM     19  C   UNL     1       9.253  14.034  19.016  0.00  0.00    +0.000 C 
ATOM     20  C   UNL     1       9.818  15.135  18.089  0.00  0.00    +0.000 C 
ATOM     21  C   UNL     1      11.318  14.774  17.988  0.00  0.00    +0.000 C 
ATOM     22  C   UNL     1      11.452  13.530  18.905  0.00  0.00    +0.000 C 
ATOM     23  C   UNL     1      10.848  12.332  18.146  0.00  0.00    +0.000 C 
ATOM     24  C   UNL     1       9.398  12.755  18.182  0.00  0.00    +0.000 C 
ATOM     25  O   UNL     1       8.511  12.164  17.594  0.00  0.00    +0.000 OA
ATOM     26  C   UNL     1      10.427  13.816  20.033  0.00  0.00    +0.000 C 
ATOM     27  C   UNL     1      10.207  12.648  21.018  0.00  0.00    +0.000 C 
ATOM     28  C   UNL     1      10.815  15.039  20.893  0.00  0.00    +0.000 C 
ENDBRANCH  18  19
ENDBRANCH  15  18
ENDBRANCH   4  15
TORSDOF 5
ENDMDL
MODEL 5
REMARK VINA RESULT:      -7.2      8.395     11.072
REMARK  Name = 
REMARK  8 active torsions:
REMARK  status: ('A' for Active; 'I' for Inactive)
REMARK    1  A    between atoms: C_1  and  O_2
REMARK    2  A    between atoms: O_2  and  C_3
REMARK    3  A    between atoms: C_8  and  N_9
REMARK    4  A    between atoms: N_12  and  S_13
REMARK    5  A    between atoms: S_13  and  C_16
REMARK    6  A    between atoms: C_16  and  C_17
REMARK    7  A    between atoms: C_24  and  C_25
REMARK    8  A    between atoms: C_24  and  C_26
REMARK                            x       y       z     vdW  Elec       q    Type
REMARK                         _______ _______ _______ _____ _____    ______ ____
ROOT
ATOM      1  N   UNL     1       0.574  10.843  19.165  0.00  0.00    +0.000 N 
ATOM      2  C   UNL     1       1.369  12.043  19.452  0.00  0.00    +0.000 C 
ATOM      3  C   UNL     1       0.746  13.254  18.733  0.00  0.00    +0.000 C 
ATOM      4  N   UNL     1      -0.704  13.451  19.055  0.00  0.00    +0.000 NA
ATOM      5  C   UNL     1      -1.463  12.178  18.773  0.00  0.00    +0.000 C 
ATOM      6  C   UNL     1      -0.856  10.966  19.514  0.00  0.00    +0.000 C 
ENDROOT
BRANCH   1  12
ATOM      7  C   UNL     1       1.251   8.636  20.119  0.00  0.00    +0.000 A 
ATOM      8  C   UNL     1       2.012   7.463  19.955  0.00  0.00    +0.000 A 
ATOM      9  C   UNL     1       2.662   7.193  18.754  0.00  0.00    +0.000 A 
ATOM     10  C   UNL     1       2.561   8.091  17.702  0.00  0.00    +0.000 A 
ATOM     11  C   UNL     1       1.833   9.269  17.866  0.00  0.00    +0.000 A 
ATOM     12  C   UNL     1       1.172   9.589  19.071  0.00  0.00    +0.000 A 
BRANCH   7  14
ATOM     13  C   UNL     1       1.356   9.231  22.433  0.00  0.00    +0.000 C 
ATOM     14  O   UNL     1       0.577   8.903  21.289  0.00  0.00    +0.000 OA
ENDBRANCH   7  14
ENDBRANCH   1  12
BRANCH   4  15
ATOM     15  S   UNL     1      -1.103  14.166  20.554  0.00  0.00    +0.000 S 
ATOM     16  O   UNL     1      -0.158  13.625  21.496  0.00  0.00    +0.000 OA
ATOM     17  O   UNL     1      -1.210  15.592  20.336  0.00  0.00    +0.000 OA
BRANCH  15  18
ATOM     18  C   UNL     1      -2.740  13.495  20.861  0.00  0.00    +0.000 C 
BRANCH  18  19
ATOM     19  C   UNL     1      -3.240  13.644  22.286  0.00  0.00    +0.000 C 
ATOM     20  C   UNL     1      -2.685  14.820  23.125  0.00  0.00    +0.000 C 
ATOM     21  C   UNL     1      -3.682  14.912  24.303  0.00  0.00    +0.000 C 
ATOM     22  C   UNL     1      -4.722  13.806  23.983  0.00  0.00    +0.000 C 
ATOM     23  C   UNL     1      -4.066  12.451  24.309  0.00  0.00    +0.000 C 
ATOM     24  C   UNL     1      -3.041  12.429  23.199  0.00  0.00    +0.000 C 
ATOM     25  O   UNL     1      -2.177  11.576  23.099  0.00  0.00    +0.000 OA
ATOM     26  C   UNL     1      -4.790  13.829  22.434  0.00  0.00    +0.000 C 
ATOM     27  C   UNL     1      -5.629  12.695  21.808  0.00  0.00    +0.000 C 
ATOM     28  C   UNL     1      -5.371  15.150  21.883  0.00  0.00    +0.000 C 
ENDBRANCH  18  19
ENDBRANCH  15  18
ENDBRANCH   4  15
TORSDOF 5
ENDMDL
MODEL 6
REMARK VINA RESULT:      -7.0      1.517      2.249
REMARK  Name = 
REMARK  8 active torsions:
REMARK  status: ('A' for Active; 'I' for Inactive)
REMARK    1  A    between atoms: C_1  and  O_2
REMARK    2  A    between atoms: O_2  and  C_3
REMARK    3  A    between atoms: C_8  and  N_9
REMARK    4  A    between atoms: N_12  and  S_13
REMARK    5  A    between atoms: S_13  and  C_16
REMARK    6  A    between atoms: C_16  and  C_17
REMARK    7  A    between atoms: C_24  and  C_25
REMARK    8  A    between atoms: C_24  and  C_26
REMARK                            x       y       z     vdW  Elec       q    Type
REMARK                         _______ _______ _______ _____ _____    ______ ____
ROOT
ATOM      1  N   UNL     1       5.883   4.935  15.238  0.00  0.00    +0.000 N 
ATOM      2  C   UNL     1       5.717   4.042  16.391  0.00  0.00    +0.000 C 
ATOM      3  C   UNL     1       6.099   4.793  17.680  0.00  0.00    +0.000 C 
ATOM      4  N   UNL     1       5.357   6.082  17.857  0.00  0.00    +0.000 NA
ATOM      5  C   UNL     1       5.536   6.942  16.631  0.00  0.00    +0.000 C 
ATOM      6  C   UNL     1       5.128   6.201  15.338  0.00  0.00    +0.000 C 
ENDROOT
BRANCH   1  12
ATOM      7  C   UNL     1       7.407   4.874  13.259  0.00  0.00    +0.000 A 
ATOM      8  C   UNL     1       7.617   4.413  11.946  0.00  0.00    +0.000 A 
ATOM      9  C   UNL     1       6.748   3.498  11.360  0.00  0.00    +0.000 A 
ATOM     10  C   UNL     1       5.657   3.030  12.080  0.00  0.00    +0.000 A 
ATOM     11  C   UNL     1       5.426   3.503  13.371  0.00  0.00    +0.000 A 
ATOM     12  C   UNL     1       6.273   4.443  13.996  0.00  0.00    +0.000 A 
BRANCH   7  14
ATOM     13  C   UNL     1       9.486   6.053  13.183  0.00  0.00    +0.000 C 
ATOM     14  O   UNL     1       8.273   5.756  13.864  0.00  0.00    +0.000 OA
ENDBRANCH   7  14
ENDBRANCH   1  12
BRANCH   4  15
ATOM     15  S   UNL     1       3.742   6.008  18.408  0.00  0.00    +0.000 S 
ATOM     16  O   UNL     1       3.430   7.342  18.852  0.00  0.00    +0.000 OA
ATOM     17  O   UNL     1       2.963   5.362  17.374  0.00  0.00    +0.000 OA
BRANCH  15  18
ATOM     18  C   UNL     1       3.881   4.901  19.815  0.00  0.00    +0.000 C 
BRANCH  18  19
ATOM     19  C   UNL     1       2.752   3.896  19.957  0.00  0.00    +0.000 C 
ATOM     20  C   UNL     1       1.423   4.197  19.224  0.00  0.00    +0.000 C 
ATOM     21  C   UNL     1       0.699   2.831  19.235  0.00  0.00    +0.000 C 
ATOM     22  C   UNL     1       1.714   1.890  19.935  0.00  0.00    +0.000 C 
ATOM     23  C   UNL     1       1.676   2.211  21.442  0.00  0.00    +0.000 C 
ATOM     24  C   UNL     1       2.306   3.584  21.391  0.00  0.00    +0.000 C 
ATOM     25  O   UNL     1       2.396   4.318  22.358  0.00  0.00    +0.000 OA
ATOM     26  C   UNL     1       3.085   2.444  19.467  0.00  0.00    +0.000 C 
ATOM     27  C   UNL     1       4.309   1.805  20.154  0.00  0.00    +0.000 C 
ATOM     28  C   UNL     1       3.306   2.277  17.947  0.00  0.00    +0.000 C 
ENDBRANCH  18  19
ENDBRANCH  15  18
ENDBRANCH   4  15
TORSDOF 5
ENDMDL
MODEL 7
REMARK VINA RESULT:      -7.0      1.041      1.872
REMARK  Name = 
REMARK  8 active torsions:
REMARK  status: ('A' for Active; 'I' for Inactive)
REMARK    1  A    between atoms: C_1  and  O_2
REMARK    2  A    between atoms: O_2  and  C_3
REMARK    3  A    between atoms: C_8  and  N_9
REMARK    4  A    between atoms: N_12  and  S_13
REMARK    5  A    between atoms: S_13  and  C_16
REMARK    6  A    between atoms: C_16  and  C_17
REMARK    7  A    between atoms: C_24  and  C_25
REMARK    8  A    between atoms: C_24  and  C_26
REMARK                            x       y       z     vdW  Elec       q    Type
REMARK                         _______ _______ _______ _____ _____    ______ ____
ROOT
ATOM      1  N   UNL     1       6.256   4.780  15.155  0.00  0.00    +0.000 N 
ATOM      2  C   UNL     1       7.380   4.798  16.099  0.00  0.00    +0.000 C 
ATOM      3  C   UNL     1       7.209   5.976  17.076  0.00  0.00    +0.000 C 
ATOM      4  N   UNL     1       5.887   5.975  17.780  0.00  0.00    +0.000 NA
ATOM      5  C   UNL     1       4.773   5.921  16.763  0.00  0.00    +0.000 C 
ATOM      6  C   UNL     1       4.926   4.725  15.798  0.00  0.00    +0.000 C 
ENDROOT
BRANCH   1  12
ATOM      7  C   UNL     1       7.402   4.830  12.936  0.00  0.00    +0.000 A 
ATOM      8  C   UNL     1       7.380   4.426  11.588  0.00  0.00    +0.000 A 
ATOM      9  C   UNL     1       6.433   3.515  11.128  0.00  0.00    +0.000 A 
ATOM     10  C   UNL     1       5.496   2.996  12.009  0.00  0.00    +0.000 A 
ATOM     11  C   UNL     1       5.493   3.413  13.340  0.00  0.00    +0.000 A 
ATOM     12  C   UNL     1       6.424   4.345  13.843  0.00  0.00    +0.000 A 
BRANCH   7  14
ATOM     13  C   UNL     1       9.231   6.298  12.466  0.00  0.00    +0.000 C 
ATOM     14  O   UNL     1       8.349   5.706  13.414  0.00  0.00    +0.000 OA
ENDBRANCH   7  14
ENDBRANCH   1  12
BRANCH   4  15
ATOM     15  S   UNL     1       5.673   4.893  19.084  0.00  0.00    +0.000 S 
ATOM     16  O   UNL     1       5.954   3.587  18.544  0.00  0.00    +0.000 OA
ATOM     17  O   UNL     1       6.422   5.416  20.205  0.00  0.00    +0.000 OA
BRANCH  15  18
ATOM     18  C   UNL     1       3.918   5.061  19.421  0.00  0.00    +0.000 C 
BRANCH  18  19
ATOM     19  C   UNL     1       3.077   3.842  19.085  0.00  0.00    +0.000 C 
ATOM     20  C   UNL     1       3.717   2.750  18.196  0.00  0.00    +0.000 C 
ATOM     21  C   UNL     1       2.787   1.534  18.410  0.00  0.00    +0.000 C 
ATOM     22  C   UNL     1       1.744   2.053  19.434  0.00  0.00    +0.000 C 
ATOM     23  C   UNL     1       0.778   2.982  18.674  0.00  0.00    +0.000 C 
ATOM     24  C   UNL     1       1.734   4.119  18.400  0.00  0.00    +0.000 C 
ATOM     25  O   UNL     1       1.455   5.079  17.704  0.00  0.00    +0.000 OA
ATOM     26  C   UNL     1       2.574   3.017  20.320  0.00  0.00    +0.000 C 
ATOM     27  C   UNL     1       1.748   3.833  21.337  0.00  0.00    +0.000 C 
ATOM     28  C   UNL     1       3.663   2.286  21.136  0.00  0.00    +0.000 C 
ENDBRANCH  18  19
ENDBRANCH  15  18
ENDBRANCH   4  15
TORSDOF 5
ENDMDL
MODEL 8
REMARK VINA RESULT:      -6.9      6.765      9.366
REMARK  Name = 
REMARK  8 active torsions:
REMARK  status: ('A' for Active; 'I' for Inactive)
REMARK    1  A    between atoms: C_1  and  O_2
REMARK    2  A    between atoms: O_2  and  C_3
REMARK    3  A    between atoms: C_8  and  N_9
REMARK    4  A    between atoms: N_12  and  S_13
REMARK    5  A    between atoms: S_13  and  C_16
REMARK    6  A    between atoms: C_16  and  C_17
REMARK    7  A    between atoms: C_24  and  C_25
REMARK    8  A    between atoms: C_24  and  C_26
REMARK                            x       y       z     vdW  Elec       q    Type
REMARK                         _______ _______ _______ _____ _____    ______ ____
ROOT
ATOM      1  N   UNL     1       2.037   7.954  18.751  0.00  0.00    +0.000 N 
ATOM      2  C   UNL     1       1.777   9.118  17.896  0.00  0.00    +0.000 C 
ATOM      3  C   UNL     1       0.365   9.660  18.185  0.00  0.00    +0.000 C 
ATOM      4  N   UNL     1       0.132   9.965  19.633  0.00  0.00    +0.000 NA
ATOM      5  C   UNL     1       0.448   8.745  20.464  0.00  0.00    +0.000 C 
ATOM      6  C   UNL     1       1.873   8.215  20.196  0.00  0.00    +0.000 C 
ENDROOT
BRANCH   1  12
ATOM      7  C   UNL     1       2.702   5.546  18.717  0.00  0.00    +0.000 A 
ATOM      8  C   UNL     1       3.659   4.592  18.323  0.00  0.00    +0.000 A 
ATOM      9  C   UNL     1       4.723   4.943  17.497  0.00  0.00    +0.000 A 
ATOM     10  C   UNL     1       4.844   6.252  17.053  0.00  0.00    +0.000 A 
ATOM     11  C   UNL     1       3.916   7.209  17.461  0.00  0.00    +0.000 A 
ATOM     12  C   UNL     1       2.833   6.900  18.311  0.00  0.00    +0.000 A 
BRANCH   7  14
ATOM     13  C   UNL     1       1.906   4.623  20.775  0.00  0.00    +0.000 C 
ATOM     14  O   UNL     1       1.628   5.210  19.509  0.00  0.00    +0.000 OA
ENDBRANCH   7  14
ENDBRANCH   1  12
BRANCH   4  15
ATOM     15  S   UNL     1       0.790  11.409  20.264  0.00  0.00    +0.000 S 
ATOM     16  O   UNL     1       1.305  11.057  21.563  0.00  0.00    +0.000 OA
ATOM     17  O   UNL     1       1.650  11.972  19.246  0.00  0.00    +0.000 OA
BRANCH  15  18
ATOM     18  C   UNL     1      -0.671  12.439  20.433  0.00  0.00    +0.000 C 
BRANCH  18  19
ATOM     19  C   UNL     1      -0.555  13.559  21.451  0.00  0.00    +0.000 C 
ATOM     20  C   UNL     1       0.843  14.179  21.684  0.00  0.00    +0.000 C 
ATOM     21  C   UNL     1       0.523  15.501  22.419  0.00  0.00    +0.000 C 
ATOM     22  C   UNL     1      -1.026  15.511  22.486  0.00  0.00    +0.000 C 
ATOM     23  C   UNL     1      -1.446  14.505  23.575  0.00  0.00    +0.000 C 
ATOM     24  C   UNL     1      -1.041  13.232  22.868  0.00  0.00    +0.000 C 
ATOM     25  O   UNL     1      -1.075  12.133  23.392  0.00  0.00    +0.000 OA
ATOM     26  C   UNL     1      -1.437  14.822  21.159  0.00  0.00    +0.000 C 
ATOM     27  C   UNL     1      -2.946  14.527  21.024  0.00  0.00    +0.000 C 
ATOM     28  C   UNL     1      -1.046  15.648  19.913  0.00  0.00    +0.000 C 
ENDBRANCH  18  19
ENDBRANCH  15  18
ENDBRANCH   4  15
TORSDOF 5
ENDMDL
MODEL 9
REMARK VINA RESULT:      -6.9      0.927      1.262
REMARK  Name = 
REMARK  8 active torsions:
REMARK  status: ('A' for Active; 'I' for Inactive)
REMARK    1  A    between atoms: C_1  and  O_2
REMARK    2  A    between atoms: O_2  and  C_3
REMARK    3  A    between atoms: C_8  and  N_9
REMARK    4  A    between atoms: N_12  and  S_13
REMARK    5  A    between atoms: S_13  and  C_16
REMARK    6  A    between atoms: C_16  and  C_17
REMARK    7  A    between atoms: C_24  and  C_25
REMARK    8  A    between atoms: C_24  and  C_26
REMARK                            x       y       z     vdW  Elec       q    Type
REMARK                         _______ _______ _______ _____ _____    ______ ____
ROOT
ATOM      1  N   UNL     1       6.229   4.774  15.122  0.00  0.00    +0.000 N 
ATOM      2  C   UNL     1       7.326   5.052  16.056  0.00  0.00    +0.000 C 
ATOM      3  C   UNL     1       6.923   6.207  16.990  0.00  0.00    +0.000 C 
ATOM      4  N   UNL     1       5.627   5.967  17.703  0.00  0.00    +0.000 NA
ATOM      5  C   UNL     1       4.547   5.654  16.697  0.00  0.00    +0.000 C 
ATOM      6  C   UNL     1       4.937   4.478  15.775  0.00  0.00    +0.000 C 
ENDROOT
BRANCH   1  12
ATOM      7  C   UNL     1       7.416   4.911  12.928  0.00  0.00    +0.000 A 
ATOM      8  C   UNL     1       7.477   4.478  11.591  0.00  0.00    +0.000 A 
ATOM      9  C   UNL     1       6.658   3.450  11.132  0.00  0.00    +0.000 A 
ATOM     10  C   UNL     1       5.768   2.842  12.005  0.00  0.00    +0.000 A 
ATOM     11  C   UNL     1       5.681   3.284  13.324  0.00  0.00    +0.000 A 
ATOM     12  C   UNL     1       6.481   4.333  13.825  0.00  0.00    +0.000 A 
BRANCH   7  14
ATOM     13  C   UNL     1       9.601   5.882  12.991  0.00  0.00    +0.000 C 
ATOM     14  O   UNL     1       8.240   5.905  13.405  0.00  0.00    +0.000 OA
ENDBRANCH   7  14
ENDBRANCH   1  12
BRANCH   4  15
ATOM     15  S   UNL     1       5.634   4.914  19.047  0.00  0.00    +0.000 S 
ATOM     16  O   UNL     1       6.925   4.275  19.022  0.00  0.00    +0.000 OA
ATOM     17  O   UNL     1       5.199   5.678  20.196  0.00  0.00    +0.000 OA
BRANCH  15  18
ATOM     18  C   UNL     1       4.350   3.739  18.605  0.00  0.00    +0.000 C 
BRANCH  18  19
ATOM     19  C   UNL     1       3.104   3.791  19.470  0.00  0.00    +0.000 C 
ATOM     20  C   UNL     1       2.729   5.148  20.113  0.00  0.00    +0.000 C 
ATOM     21  C   UNL     1       1.258   4.940  20.538  0.00  0.00    +0.000 C 
ATOM     22  C   UNL     1       0.941   3.502  20.052  0.00  0.00    +0.000 C 
ATOM     23  C   UNL     1       1.628   2.525  21.025  0.00  0.00    +0.000 C 
ATOM     24  C   UNL     1       3.063   2.814  20.650  0.00  0.00    +0.000 C 
ATOM     25  O   UNL     1       4.019   2.348  21.244  0.00  0.00    +0.000 OA
ATOM     26  C   UNL     1       1.773   3.383  18.748  0.00  0.00    +0.000 C 
ATOM     27  C   UNL     1       1.795   1.973  18.123  0.00  0.00    +0.000 C 
ATOM     28  C   UNL     1       1.282   4.340  17.640  0.00  0.00    +0.000 C 
ENDBRANCH  18  19
ENDBRANCH  15  18
ENDBRANCH   4  15
TORSDOF 5
ENDMDL
