MODEL 1
REMARK VINA RESULT:      -8.0      0.000      0.000
REMARK  Name = 
REMARK  7 active torsions:
REMARK  status: ('A' for Active; 'I' for Inactive)
REMARK    1  A    between atoms: C_8  and  O_9
REMARK    2  A    between atoms: O_9  and  C_10
REMARK    3  A    between atoms: C_10  and  C_11
REMARK    4  A    between atoms: C_11  and  C_12
REMARK    5  A    between atoms: C_12  and  C_13
REMARK    6  A    between atoms: C_13  and  N_14
REMARK    7  A    between atoms: N_17  and  C_18
REMARK                            x       y       z     vdW  Elec       q    Type
REMARK                         _______ _______ _______ _____ _____    ______ ____
ROOT
ATOM      1  C   UNL     1       7.645   8.940  17.805  0.00  0.00    +0.000 C 
ENDROOT
BRANCH   1   2
ATOM      2  C   UNL     1       8.998   9.619  18.014  0.00  0.00    +0.000 C 
BRANCH   2   3
ATOM      3  O   UNL     1       9.013  10.216  19.315  0.00  0.00    +0.000 OA
BRANCH   3  11
ATOM      4  O   UNL     1      10.727  16.575  16.593  0.00  0.00    +0.000 OA
ATOM      5  C   UNL     1      10.739  15.811  17.553  0.00  0.00    +0.000 C 
ATOM      6  C   UNL     1      11.566  16.074  18.793  0.00  0.00    +0.000 C 
ATOM      7  C   UNL     1      10.893  15.524  20.039  0.00  0.00    +0.000 C 
ATOM      8  C   UNL     1      10.461  14.100  19.830  0.00  0.00    +0.000 A 
ATOM      9  C   UNL     1      10.379  13.196  20.891  0.00  0.00    +0.000 A 
ATOM     10  C   UNL     1       9.897  11.902  20.667  0.00  0.00    +0.000 A 
ATOM     11  C   UNL     1       9.471  11.505  19.395  0.00  0.00    +0.000 A 
ATOM     12  C   UNL     1       9.530  12.417  18.339  0.00  0.00    +0.000 A 
ATOM     13  C   UNL     1      10.036  13.698  18.559  0.00  0.00    +0.000 A 
ATOM     14  N   UNL     1      10.103  14.605  17.501  0.00  0.00    +0.000 N 
ATOM     15  H   UNL     1       9.672  14.382  16.607  0.00  0.00    +0.000 HD
ENDBRANCH   3  11
ENDBRANCH   2   3
ENDBRANCH   1   2
BRANCH   1  16
ATOM     16  C   UNL     1       7.700   7.407  17.924  0.00  0.00    +0.000 C 
BRANCH  16  17
ATOM     17  C   UNL     1       7.382   6.651  16.624  0.00  0.00    +0.000 C 
BRANCH  17  18
ATOM     18  N   UNL     1       6.440   5.565  16.851  0.00  0.00    +0.000 NA
ATOM     19  C   UNL     1       6.580   4.809  18.106  0.00  0.00    +0.000 C 
ATOM     20  C   UNL     1       5.441   4.838  19.172  0.00  0.00    +0.000 C 
ATOM     21  N   UNL     1       4.108   5.146  18.628  0.00  0.00    +0.000 N 
ATOM     22  C   UNL     1       4.123   6.220  17.630  0.00  0.00    +0.000 C 
ATOM     23  C   UNL     1       5.055   5.845  16.473  0.00  0.00    +0.000 C 
BRANCH  21  24
ATOM     24  C   UNL     1       3.033   4.265  18.713  0.00  0.00    +0.000 A 
ATOM     25  C   UNL     1       3.047   3.053  17.992  0.00  0.00    +0.000 A 
ATOM     26  C   UNL     1       2.031   2.091  18.104  0.00  0.00    +0.000 A 
ATOM     27  C   UNL     1       0.942   2.320  18.931  0.00  0.00    +0.000 A 
ATOM     28  C   UNL     1       0.865   3.517  19.630  0.00  0.00    +0.000 A 
ATOM     29  C   UNL     1       1.894   4.474  19.532  0.00  0.00    +0.000 A 
ATOM     30 BR   UNL     1       1.677   5.974  20.698  0.00  0.00    +0.000 Br
ENDBRANCH  21  24
ENDBRANCH  17  18
ENDBRANCH  16  17
ENDBRANCH   1  16
TORSDOF 7
ENDMDL
MODEL 2
REMARK VINA RESULT:      -7.8      1.497      1.780
REMARK  Name = 
REMARK  7 active torsions:
REMARK  status: ('A' for Active; 'I' for Inactive)
REMARK    1  A    between atoms: C_8  and  O_9
REMARK    2  A    between atoms: O_9  and  C_10
REMARK    3  A    between atoms: C_10  and  C_11
REMARK    4  A    between atoms: C_11  and  C_12
REMARK    5  A    between atoms: C_12  and  C_13
REMARK    6  A    between atoms: C_13  and  N_14
REMARK    7  A    between atoms: N_17  and  C_18
REMARK                            x       y       z     vdW  Elec       q    Type
REMARK                         _______ _______ _______ _____ _____    ______ ____
ROOT
ATOM      1  C   UNL     1       8.706   9.213  18.912  0.00  0.00    +0.000 C 
ENDROOT
BRANCH   1   2
ATOM      2  C   UNL     1       8.740  10.380  17.927  0.00  0.00    +0.000 C 
BRANCH   2   3
ATOM      3  O   UNL     1      10.102  10.773  17.729  0.00  0.00    +0.000 OA
BRANCH   3  11
ATOM      4  O   UNL     1       8.324  17.643  18.380  0.00  0.00    +0.000 OA
ATOM      5  C   UNL     1       9.137  16.805  18.004  0.00  0.00    +0.000 C 
ATOM      6  C   UNL     1      10.316  17.153  17.120  0.00  0.00    +0.000 C 
ATOM      7  C   UNL     1      11.513  16.263  17.413  0.00  0.00    +0.000 C 
ATOM      8  C   UNL     1      11.113  14.815  17.432  0.00  0.00    +0.000 A 
ATOM      9  C   UNL     1      12.010  13.802  17.089  0.00  0.00    +0.000 A 
ATOM     10  C   UNL     1      11.622  12.463  17.195  0.00  0.00    +0.000 A 
ATOM     11  C   UNL     1      10.351  12.119  17.666  0.00  0.00    +0.000 A 
ATOM     12  C   UNL     1       9.461  13.131  18.032  0.00  0.00    +0.000 A 
ATOM     13  C   UNL     1       9.841  14.468  17.899  0.00  0.00    +0.000 A 
ATOM     14  N   UNL     1       8.947  15.478  18.257  0.00  0.00    +0.000 N 
ATOM     15  H   UNL     1       8.076  15.248  18.728  0.00  0.00    +0.000 HD
ENDBRANCH   3  11
ENDBRANCH   2   3
ENDBRANCH   1   2
BRANCH   1  16
ATOM     16  C   UNL     1       8.424   7.854  18.249  0.00  0.00    +0.000 C 
BRANCH  16  17
ATOM     17  C   UNL     1       7.268   7.865  17.233  0.00  0.00    +0.000 C 
BRANCH  17  18
ATOM     18  N   UNL     1       6.539   6.606  17.235  0.00  0.00    +0.000 NA
ATOM     19  C   UNL     1       6.727   5.726  18.402  0.00  0.00    +0.000 C 
ATOM     20  C   UNL     1       5.526   5.404  19.344  0.00  0.00    +0.000 C 
ATOM     21  N   UNL     1       4.203   5.535  18.709  0.00  0.00    +0.000 N 
ATOM     22  C   UNL     1       4.087   6.718  17.850  0.00  0.00    +0.000 C 
ATOM     23  C   UNL     1       5.160   6.677  16.757  0.00  0.00    +0.000 C 
BRANCH  21  24
ATOM     24  C   UNL     1       3.315   4.470  18.582  0.00  0.00    +0.000 A 
ATOM     25  C   UNL     1       3.602   3.406  17.701  0.00  0.00    +0.000 A 
ATOM     26  C   UNL     1       2.786   2.269  17.594  0.00  0.00    +0.000 A 
ATOM     27  C   UNL     1       1.630   2.165  18.354  0.00  0.00    +0.000 A 
ATOM     28  C   UNL     1       1.287   3.207  19.205  0.00  0.00    +0.000 A 
ATOM     29  C   UNL     1       2.116   4.339  19.327  0.00  0.00    +0.000 A 
ATOM     30 BR   UNL     1       1.552   5.577  20.670  0.00  0.00    +0.000 Br
ENDBRANCH  21  24
ENDBRANCH  17  18
ENDBRANCH  16  17
ENDBRANCH   1  16
TORSDOF 7
ENDMDL
MODEL 3
REMARK VINA RESULT:      -7.7      1.547      2.118
REMARK  Name = 
REMARK  7 active torsions:
REMARK  status: ('A' for Active; 'I' for Inactive)
REMARK    1  A    between atoms: C_8  and  O_9
REMARK    2  A    between atoms: O_9  and  C_10
REMARK    3  A    between atoms: C_10  and  C_11
REMARK    4  A    between atoms: C_11  and  C_12
REMARK    5  A    between atoms: C_12  and  C_13
REMARK    6  A    between atoms: C_13  and  N_14
REMARK    7  A    between atoms: N_17  and  C_18
REMARK                            x       y       z     vdW  Elec       q    Type
REMARK                         _______ _______ _______ _____ _____    ______ ____
ROOT
ATOM      1  C   UNL     1       8.664   9.181  18.675  0.00  0.00    +0.000 C 
ENDROOT
BRANCH   1   2
ATOM      2  C   UNL     1       9.474  10.406  18.254  0.00  0.00    +0.000 C 
BRANCH   2   3
ATOM      3  O   UNL     1       9.061  11.523  19.049  0.00  0.00    +0.000 OA
BRANCH   3  11
ATOM      4  O   UNL     1       8.702  18.631  18.691  0.00  0.00    +0.000 OA
ATOM      5  C   UNL     1       9.226  17.590  18.307  0.00  0.00    +0.000 C 
ATOM      6  C   UNL     1      10.149  17.536  17.108  0.00  0.00    +0.000 C 
ATOM      7  C   UNL     1      11.216  16.466  17.274  0.00  0.00    +0.000 C 
ATOM      8  C   UNL     1      10.603  15.158  17.688  0.00  0.00    +0.000 A 
ATOM      9  C   UNL     1      11.187  13.936  17.350  0.00  0.00    +0.000 A 
ATOM     10  C   UNL     1      10.628  12.744  17.821  0.00  0.00    +0.000 A 
ATOM     11  C   UNL     1       9.502  12.758  18.651  0.00  0.00    +0.000 A 
ATOM     12  C   UNL     1       8.931  13.981  19.008  0.00  0.00    +0.000 A 
ATOM     13  C   UNL     1       9.474  15.168  18.515  0.00  0.00    +0.000 A 
ATOM     14  N   UNL     1       8.898  16.390  18.866  0.00  0.00    +0.000 N 
ATOM     15  H   UNL     1       8.168  16.427  19.574  0.00  0.00    +0.000 HD
ENDBRANCH   3  11
ENDBRANCH   2   3
ENDBRANCH   1   2
BRANCH   1  16
ATOM     16  C   UNL     1       7.824   8.578  17.536  0.00  0.00    +0.000 C 
BRANCH  16  17
ATOM     17  C   UNL     1       7.668   7.048  17.595  0.00  0.00    +0.000 C 
BRANCH  17  18
ATOM     18  N   UNL     1       6.275   6.656  17.738  0.00  0.00    +0.000 NA
ATOM     19  C   UNL     1       5.538   6.339  16.502  0.00  0.00    +0.000 C 
ATOM     20  C   UNL     1       4.999   4.895  16.257  0.00  0.00    +0.000 C 
ATOM     21  N   UNL     1       4.773   4.115  17.486  0.00  0.00    +0.000 N 
ATOM     22  C   UNL     1       5.839   4.275  18.480  0.00  0.00    +0.000 C 
ATOM     23  C   UNL     1       5.987   5.754  18.853  0.00  0.00    +0.000 C 
BRANCH  21  24
ATOM     24  C   UNL     1       3.522   3.626  17.853  0.00  0.00    +0.000 A 
ATOM     25  C   UNL     1       3.286   2.237  17.901  0.00  0.00    +0.000 A 
ATOM     26  C   UNL     1       2.072   1.688  18.343  0.00  0.00    +0.000 A 
ATOM     27  C   UNL     1       1.032   2.517  18.735  0.00  0.00    +0.000 A 
ATOM     28  C   UNL     1       1.205   3.893  18.666  0.00  0.00    +0.000 A 
ATOM     29  C   UNL     1       2.429   4.444  18.241  0.00  0.00    +0.000 A 
ATOM     30 BR   UNL     1       2.517   6.349  18.377  0.00  0.00    +0.000 Br
ENDBRANCH  21  24
ENDBRANCH  17  18
ENDBRANCH  16  17
ENDBRANCH   1  16
TORSDOF 7
ENDMDL
MODEL 4
REMARK VINA RESULT:      -7.7      6.712      8.197
REMARK  Name = 
REMARK  7 active torsions:
REMARK  status: ('A' for Active; 'I' for Inactive)
REMARK    1  A    between atoms: C_8  and  O_9
REMARK    2  A    between atoms: O_9  and  C_10
REMARK    3  A    between atoms: C_10  and  C_11
REMARK    4  A    between atoms: C_11  and  C_12
REMARK    5  A    between atoms: C_12  and  C_13
REMARK    6  A    between atoms: C_13  and  N_14
REMARK    7  A    between atoms: N_17  and  C_18
REMARK                            x       y       z     vdW  Elec       q    Type
REMARK                         _______ _______ _______ _____ _____    ______ ____
ROOT
ATOM      1  C   UNL     1       1.974   3.952  21.371  0.00  0.00    +0.000 C 
ENDROOT
BRANCH   1   2
ATOM      2  C   UNL     1       2.456   5.382  21.131  0.00  0.00    +0.000 C 
BRANCH   2   3
ATOM      3  O   UNL     1       1.908   5.848  19.894  0.00  0.00    +0.000 OA
BRANCH   3  11
ATOM      4  O   UNL     1      -0.182  12.202  22.352  0.00  0.00    +0.000 OA
ATOM      5  C   UNL     1       0.179  11.517  21.401  0.00  0.00    +0.000 C 
ATOM      6  C   UNL     1       0.074  11.992  19.967  0.00  0.00    +0.000 C 
ATOM      7  C   UNL     1       1.194  11.425  19.109  0.00  0.00    +0.000 C 
ATOM      8  C   UNL     1       1.315   9.940  19.300  0.00  0.00    +0.000 A 
ATOM      9  C   UNL     1       1.791   9.108  18.284  0.00  0.00    +0.000 A 
ATOM     10  C   UNL     1       1.963   7.742  18.528  0.00  0.00    +0.000 A 
ATOM     11  C   UNL     1       1.688   7.197  19.787  0.00  0.00    +0.000 A 
ATOM     12  C   UNL     1       1.235   8.033  20.809  0.00  0.00    +0.000 A 
ATOM     13  C   UNL     1       1.038   9.391  20.556  0.00  0.00    +0.000 A 
ATOM     14  N   UNL     1       0.578  10.224  21.577  0.00  0.00    +0.000 N 
ATOM     15  H   UNL     1       0.505   9.875  22.529  0.00  0.00    +0.000 HD
ENDBRANCH   3  11
ENDBRANCH   2   3
ENDBRANCH   1   2
BRANCH   1  16
ATOM     16  C   UNL     1       1.085   3.404  20.242  0.00  0.00    +0.000 C 
BRANCH  16  17
ATOM     17  C   UNL     1       1.562   2.071  19.640  0.00  0.00    +0.000 C 
BRANCH  17  18
ATOM     18  N   UNL     1       2.366   2.279  18.446  0.00  0.00    +0.000 NA
ATOM     19  C   UNL     1       1.982   3.397  17.566  0.00  0.00    +0.000 C 
ATOM     20  C   UNL     1       2.954   4.600  17.356  0.00  0.00    +0.000 C 
ATOM     21  N   UNL     1       4.374   4.282  17.589  0.00  0.00    +0.000 N 
ATOM     22  C   UNL     1       4.593   3.438  18.767  0.00  0.00    +0.000 C 
ATOM     23  C   UNL     1       3.809   2.129  18.626  0.00  0.00    +0.000 C 
BRANCH  21  24
ATOM     24  C   UNL     1       5.347   4.395  16.600  0.00  0.00    +0.000 A 
ATOM     25  C   UNL     1       5.069   3.988  15.278  0.00  0.00    +0.000 A 
ATOM     26  C   UNL     1       5.982   4.154  14.225  0.00  0.00    +0.000 A 
ATOM     27  C   UNL     1       7.226   4.718  14.462  0.00  0.00    +0.000 A 
ATOM     28  C   UNL     1       7.559   5.097  15.756  0.00  0.00    +0.000 A 
ATOM     29  C   UNL     1       6.636   4.947  16.809  0.00  0.00    +0.000 A 
ATOM     30 BR   UNL     1       7.226   5.681  18.473  0.00  0.00    +0.000 Br
ENDBRANCH  21  24
ENDBRANCH  17  18
ENDBRANCH  16  17
ENDBRANCH   1  16
TORSDOF 7
ENDMDL
MODEL 5
REMARK VINA RESULT:      -7.7      6.744      8.395
REMARK  Name = 
REMARK  7 active torsions:
REMARK  status: ('A' for Active; 'I' for Inactive)
REMARK    1  A    between atoms: C_8  and  O_9
REMARK    2  A    between atoms: O_9  and  C_10
REMARK    3  A    between atoms: C_10  and  C_11
REMARK    4  A    between atoms: C_11  and  C_12
REMARK    5  A    between atoms: C_12  and  C_13
REMARK    6  A    between atoms: C_13  and  N_14
REMARK    7  A    between atoms: N_17  and  C_18
REMARK                            x       y       z     vdW  Elec       q    Type
REMARK                         _______ _______ _______ _____ _____    ______ ____
ROOT
ATOM      1  C   UNL     1       1.919   5.201  21.042  0.00  0.00    +0.000 C 
ENDROOT
BRANCH   1   2
ATOM      2  C   UNL     1       1.480   6.568  20.517  0.00  0.00    +0.000 C 
BRANCH   2   3
ATOM      3  O   UNL     1       1.582   7.520  21.579  0.00  0.00    +0.000 OA
BRANCH   3  11
ATOM      4  O   UNL     1      -0.660  13.218  17.933  0.00  0.00    +0.000 OA
ATOM      5  C   UNL     1      -0.586  12.626  19.005  0.00  0.00    +0.000 C 
ATOM      6  C   UNL     1      -0.944  13.278  20.323  0.00  0.00    +0.000 C 
ATOM      7  C   UNL     1      -1.515  12.270  21.307  0.00  0.00    +0.000 C 
ATOM      8  C   UNL     1      -0.640  11.053  21.395  0.00  0.00    +0.000 A 
ATOM      9  C   UNL     1      -0.565  10.288  22.561  0.00  0.00    +0.000 A 
ATOM     10  C   UNL     1       0.201   9.117  22.577  0.00  0.00    +0.000 A 
ATOM     11  C   UNL     1       0.877   8.686  21.431  0.00  0.00    +0.000 A 
ATOM     12  C   UNL     1       0.783   9.438  20.258  0.00  0.00    +0.000 A 
ATOM     13  C   UNL     1       0.040  10.620  20.252  0.00  0.00    +0.000 A 
ATOM     14  N   UNL     1      -0.046  11.375  19.082  0.00  0.00    +0.000 N 
ATOM     15  H   UNL     1       0.322  11.009  18.207  0.00  0.00    +0.000 HD
ENDBRANCH   3  11
ENDBRANCH   2   3
ENDBRANCH   1   2
BRANCH   1  16
ATOM     16  C   UNL     1       1.043   4.039  20.543  0.00  0.00    +0.000 C 
BRANCH  16  17
ATOM     17  C   UNL     1       1.810   2.739  20.249  0.00  0.00    +0.000 C 
BRANCH  17  18
ATOM     18  N   UNL     1       2.515   2.806  18.979  0.00  0.00    +0.000 NA
ATOM     19  C   UNL     1       2.080   3.842  18.026  0.00  0.00    +0.000 C 
ATOM     20  C   UNL     1       3.053   4.991  17.617  0.00  0.00    +0.000 C 
ATOM     21  N   UNL     1       4.481   4.659  17.764  0.00  0.00    +0.000 N 
ATOM     22  C   UNL     1       4.783   3.930  18.999  0.00  0.00    +0.000 C 
ATOM     23  C   UNL     1       3.965   2.635  19.054  0.00  0.00    +0.000 C 
BRANCH  21  24
ATOM     24  C   UNL     1       5.370   4.648  16.692  0.00  0.00    +0.000 A 
ATOM     25  C   UNL     1       4.994   4.067  15.463  0.00  0.00    +0.000 A 
ATOM     26  C   UNL     1       5.816   4.100  14.326  0.00  0.00    +0.000 A 
ATOM     27  C   UNL     1       7.065   4.700  14.384  0.00  0.00    +0.000 A 
ATOM     28  C   UNL     1       7.494   5.249  15.585  0.00  0.00    +0.000 A 
ATOM     29  C   UNL     1       6.661   5.233  16.721  0.00  0.00    +0.000 A 
ATOM     30 BR   UNL     1       7.369   6.185  18.220  0.00  0.00    +0.000 Br
ENDBRANCH  21  24
ENDBRANCH  17  18
ENDBRANCH  16  17
ENDBRANCH   1  16
TORSDOF 7
ENDMDL
MODEL 6
REMARK VINA RESULT:      -7.5      1.319      1.620
REMARK  Name = 
REMARK  7 active torsions:
REMARK  status: ('A' for Active; 'I' for Inactive)
REMARK    1  A    between atoms: C_8  and  O_9
REMARK    2  A    between atoms: O_9  and  C_10
REMARK    3  A    between atoms: C_10  and  C_11
REMARK    4  A    between atoms: C_11  and  C_12
REMARK    5  A    between atoms: C_12  and  C_13
REMARK    6  A    between atoms: C_13  and  N_14
REMARK    7  A    between atoms: N_17  and  C_18
REMARK                            x       y       z     vdW  Elec       q    Type
REMARK                         _______ _______ _______ _____ _____    ______ ____
ROOT
ATOM      1  C   UNL     1       7.924   9.420  18.029  0.00  0.00    +0.000 C 
ENDROOT
BRANCH   1   2
ATOM      2  C   UNL     1       9.262  10.091  18.337  0.00  0.00    +0.000 C 
BRANCH   2   3
ATOM      3  O   UNL     1       9.450  10.108  19.756  0.00  0.00    +0.000 OA
BRANCH   3  11
ATOM      4  O   UNL     1      11.803  16.818  20.219  0.00  0.00    +0.000 OA
ATOM      5  C   UNL     1      11.212  15.879  20.743  0.00  0.00    +0.000 C 
ATOM      6  C   UNL     1      10.848  15.863  22.212  0.00  0.00    +0.000 C 
ATOM      7  C   UNL     1       9.557  15.099  22.457  0.00  0.00    +0.000 C 
ATOM      8  C   UNL     1       9.588  13.761  21.776  0.00  0.00    +0.000 A 
ATOM      9  C   UNL     1       8.878  12.668  22.275  0.00  0.00    +0.000 A 
ATOM     10  C   UNL     1       8.869  11.461  21.568  0.00  0.00    +0.000 A 
ATOM     11  C   UNL     1       9.545  11.339  20.349  0.00  0.00    +0.000 A 
ATOM     12  C   UNL     1      10.237  12.439  19.838  0.00  0.00    +0.000 A 
ATOM     13  C   UNL     1      10.266  13.634  20.558  0.00  0.00    +0.000 A 
ATOM     14  N   UNL     1      10.964  14.730  20.050  0.00  0.00    +0.000 N 
ATOM     15  H   UNL     1      11.344  14.703  19.107  0.00  0.00    +0.000 HD
ENDBRANCH   3  11
ENDBRANCH   2   3
ENDBRANCH   1   2
BRANCH   1  16
ATOM     16  C   UNL     1       7.987   7.883  18.048  0.00  0.00    +0.000 C 
BRANCH  16  17
ATOM     17  C   UNL     1       7.634   7.210  16.710  0.00  0.00    +0.000 C 
BRANCH  17  18
ATOM     18  N   UNL     1       6.781   6.048  16.902  0.00  0.00    +0.000 NA
ATOM     19  C   UNL     1       6.877   5.354  18.198  0.00  0.00    +0.000 C 
ATOM     20  C   UNL     1       5.648   5.310  19.159  0.00  0.00    +0.000 C 
ATOM     21  N   UNL     1       4.346   5.468  18.487  0.00  0.00    +0.000 N 
ATOM     22  C   UNL     1       4.351   6.502  17.447  0.00  0.00    +0.000 C 
ATOM     23  C   UNL     1       5.416   6.178  16.394  0.00  0.00    +0.000 C 
BRANCH  21  24
ATOM     24  C   UNL     1       3.355   4.490  18.517  0.00  0.00    +0.000 A 
ATOM     25  C   UNL     1       3.495   3.312  17.755  0.00  0.00    +0.000 A 
ATOM     26  C   UNL     1       2.569   2.258  17.810  0.00  0.00    +0.000 A 
ATOM     27  C   UNL     1       1.448   2.355  18.620  0.00  0.00    +0.000 A 
ATOM     28  C   UNL     1       1.248   3.514  19.358  0.00  0.00    +0.000 A 
ATOM     29  C   UNL     1       2.187   4.564  19.317  0.00  0.00    +0.000 A 
ATOM     30 BR   UNL     1       1.811   5.994  20.529  0.00  0.00    +0.000 Br
ENDBRANCH  21  24
ENDBRANCH  17  18
ENDBRANCH  16  17
ENDBRANCH   1  16
TORSDOF 7
ENDMDL
MODEL 7
REMARK VINA RESULT:      -7.5      6.379     10.169
REMARK  Name = 
REMARK  7 active torsions:
REMARK  status: ('A' for Active; 'I' for Inactive)
REMARK    1  A    between atoms: C_8  and  O_9
REMARK    2  A    between atoms: O_9  and  C_10
REMARK    3  A    between atoms: C_10  and  C_11
REMARK    4  A    between atoms: C_11  and  C_12
REMARK    5  A    between atoms: C_12  and  C_13
REMARK    6  A    between atoms: C_13  and  N_14
REMARK    7  A    between atoms: N_17  and  C_18
REMARK                            x       y       z     vdW  Elec       q    Type
REMARK                         _______ _______ _______ _____ _____    ______ ____
ROOT
ATOM      1  C   UNL     1       2.264   4.928  21.088  0.00  0.00    +0.000 C 
ENDROOT
BRANCH   1   2
ATOM      2  C   UNL     1       1.327   3.736  20.893  0.00  0.00    +0.000 C 
BRANCH   2   3
ATOM      3  O   UNL     1       2.045   2.695  20.224  0.00  0.00    +0.000 OA
BRANCH   3  11
ATOM      4  O   UNL     1       8.248   4.550  17.247  0.00  0.00    +0.000 OA
ATOM      5  C   UNL     1       7.031   4.435  17.142  0.00  0.00    +0.000 C 
ATOM      6  C   UNL     1       6.253   5.028  15.986  0.00  0.00    +0.000 C 
ATOM      7  C   UNL     1       5.042   4.180  15.637  0.00  0.00    +0.000 C 
ATOM      8  C   UNL     1       4.242   3.855  16.866  0.00  0.00    +0.000 A 
ATOM      9  C   UNL     1       2.864   3.637  16.808  0.00  0.00    +0.000 A 
ATOM     10  C   UNL     1       2.170   3.259  17.961  0.00  0.00    +0.000 A 
ATOM     11  C   UNL     1       2.841   3.072  19.174  0.00  0.00    +0.000 A 
ATOM     12  C   UNL     1       4.222   3.267  19.228  0.00  0.00    +0.000 A 
ATOM     13  C   UNL     1       4.909   3.670  18.082  0.00  0.00    +0.000 A 
ATOM     14  N   UNL     1       6.289   3.873  18.139  0.00  0.00    +0.000 N 
ATOM     15  H   UNL     1       6.811   3.610  18.971  0.00  0.00    +0.000 HD
ENDBRANCH   3  11
ENDBRANCH   2   3
ENDBRANCH   1   2
BRANCH   1  16
ATOM     16  C   UNL     1       1.818   6.191  20.333  0.00  0.00    +0.000 C 
BRANCH  16  17
ATOM     17  C   UNL     1       1.169   7.271  21.216  0.00  0.00    +0.000 C 
BRANCH  17  18
ATOM     18  N   UNL     1       1.513   8.611  20.767  0.00  0.00    +0.000 NA
ATOM     19  C   UNL     1       1.459   8.866  19.317  0.00  0.00    +0.000 C 
ATOM     20  C   UNL     1       0.436   9.891  18.737  0.00  0.00    +0.000 C 
ATOM     21  N   UNL     1      -0.002  10.921  19.697  0.00  0.00    +0.000 N 
ATOM     22  C   UNL     1      -0.268  10.389  21.037  0.00  0.00    +0.000 C 
ATOM     23  C   UNL     1       0.988   9.703  21.585  0.00  0.00    +0.000 C 
BRANCH  21  24
ATOM     24  C   UNL     1       0.215  12.282  19.498  0.00  0.00    +0.000 A 
ATOM     25  C   UNL     1       1.458  12.741  19.017  0.00  0.00    +0.000 A 
ATOM     26  C   UNL     1       1.705  14.091  18.720  0.00  0.00    +0.000 A 
ATOM     27  C   UNL     1       0.715  15.041  18.918  0.00  0.00    +0.000 A 
ATOM     28  C   UNL     1      -0.512  14.641  19.429  0.00  0.00    +0.000 A 
ATOM     29  C   UNL     1      -0.766  13.284  19.709  0.00  0.00    +0.000 A 
ATOM     30 BR   UNL     1      -2.565  12.922  20.244  0.00  0.00    +0.000 Br
ENDBRANCH  21  24
ENDBRANCH  17  18
ENDBRANCH  16  17
ENDBRANCH   1  16
TORSDOF 7
ENDMDL
MODEL 8
REMARK VINA RESULT:      -7.4      1.352      1.747
REMARK  Name = 
REMARK  7 active torsions:
REMARK  status: ('A' for Active; 'I' for Inactive)
REMARK    1  A    between atoms: C_8  and  O_9
REMARK    2  A    between atoms: O_9  and  C_10
REMARK    3  A    between atoms: C_10  and  C_11
REMARK    4  A    between atoms: C_11  and  C_12
REMARK    5  A    between atoms: C_12  and  C_13
REMARK    6  A    between atoms: C_13  and  N_14
REMARK    7  A    between atoms: N_17  and  C_18
REMARK                            x       y       z     vdW  Elec       q    Type
REMARK                         _______ _______ _______ _____ _____    ______ ____
ROOT
ATOM      1  C   UNL     1       7.656   7.196  18.273  0.00  0.00    +0.000 C 
ENDROOT
BRANCH   1   2
ATOM      2  C   UNL     1       8.715   8.284  18.448  0.00  0.00    +0.000 C 
BRANCH   2   3
ATOM      3  O   UNL     1       8.169   9.530  18.001  0.00  0.00    +0.000 OA
BRANCH   3  11
ATOM      4  O   UNL     1      10.296  16.273  17.117  0.00  0.00    +0.000 OA
ATOM      5  C   UNL     1      10.388  15.222  17.741  0.00  0.00    +0.000 C 
ATOM      6  C   UNL     1      11.499  14.959  18.736  0.00  0.00    +0.000 C 
ATOM      7  C   UNL     1      11.031  14.062  19.870  0.00  0.00    +0.000 C 
ATOM      8  C   UNL     1      10.330  12.846  19.336  0.00  0.00    +0.000 A 
ATOM      9  C   UNL     1      10.330  11.635  20.032  0.00  0.00    +0.000 A 
ATOM     10  C   UNL     1       9.599  10.549  19.540  0.00  0.00    +0.000 A 
ATOM     11  C   UNL     1       8.844  10.664  18.368  0.00  0.00    +0.000 A 
ATOM     12  C   UNL     1       8.824  11.882  17.685  0.00  0.00    +0.000 A 
ATOM     13  C   UNL     1       9.576  12.956  18.163  0.00  0.00    +0.000 A 
ATOM     14  N   UNL     1       9.561  14.170  17.474  0.00  0.00    +0.000 N 
ATOM     15  H   UNL     1       8.914  14.313  16.703  0.00  0.00    +0.000 HD
ENDBRANCH   3  11
ENDBRANCH   2   3
ENDBRANCH   1   2
BRANCH   1  16
ATOM     16  C   UNL     1       7.016   7.178  16.875  0.00  0.00    +0.000 C 
BRANCH  16  17
ATOM     17  C   UNL     1       7.041   5.808  16.175  0.00  0.00    +0.000 C 
BRANCH  17  18
ATOM     18  N   UNL     1       6.058   4.898  16.742  0.00  0.00    +0.000 NA
ATOM     19  C   UNL     1       6.370   4.308  18.055  0.00  0.00    +0.000 C 
ATOM     20  C   UNL     1       5.479   4.632  19.294  0.00  0.00    +0.000 C 
ATOM     21  N   UNL     1       4.101   5.036  18.962  0.00  0.00    +0.000 N 
ATOM     22  C   UNL     1       4.025   5.953  17.820  0.00  0.00    +0.000 C 
ATOM     23  C   UNL     1       4.662   5.303  16.586  0.00  0.00    +0.000 C 
BRANCH  21  24
ATOM     24  C   UNL     1       2.981   4.325  19.382  0.00  0.00    +0.000 A 
ATOM     25  C   UNL     1       2.045   4.920  20.254  0.00  0.00    +0.000 A 
ATOM     26  C   UNL     1       0.858   4.281  20.643  0.00  0.00    +0.000 A 
ATOM     27  C   UNL     1       0.573   3.002  20.190  0.00  0.00    +0.000 A 
ATOM     28  C   UNL     1       1.484   2.360  19.363  0.00  0.00    +0.000 A 
ATOM     29  C   UNL     1       2.667   3.009  18.956  0.00  0.00    +0.000 A 
ATOM     30 BR   UNL     1       3.702   2.021  17.689  0.00  0.00    +0.000 Br
ENDBRANCH  21  24
ENDBRANCH  17  18
ENDBRANCH  16  17
ENDBRANCH   1  16
TORSDOF 7
ENDMDL
MODEL 9
REMARK VINA RESULT:      -7.4      5.610      9.117
REMARK  Name = 
REMARK  7 active torsions:
REMARK  status: ('A' for Active; 'I' for Inactive)
REMARK    1  A    between atoms: C_8  and  O_9
REMARK    2  A    between atoms: O_9  and  C_10
REMARK    3  A    between atoms: C_10  and  C_11
REMARK    4  A    between atoms: C_11  and  C_12
REMARK    5  A    between atoms: C_12  and  C_13
REMARK    6  A    between atoms: C_13  and  N_14
REMARK    7  A    between atoms: N_17  and  C_18
REMARK                            x       y       z     vdW  Elec       q    Type
REMARK                         _______ _______ _______ _____ _____    ______ ____
ROOT
ATOM      1  C   UNL     1       1.656   3.998  20.979  0.00  0.00    +0.000 C 
ENDROOT
BRANCH   1   2
ATOM      2  C   UNL     1       2.799   2.985  20.915  0.00  0.00    +0.000 C 
BRANCH   2   3
ATOM      3  O   UNL     1       2.992   2.600  19.550  0.00  0.00    +0.000 OA
BRANCH   3  11
ATOM      4  O   UNL     1       8.473   7.098  18.837  0.00  0.00    +0.000 OA
ATOM      5  C   UNL     1       7.560   6.471  18.310  0.00  0.00    +0.000 C 
ATOM      6  C   UNL     1       7.118   6.720  16.883  0.00  0.00    +0.000 C 
ATOM      7  C   UNL     1       6.610   5.447  16.228  0.00  0.00    +0.000 C 
ATOM      8  C   UNL     1       5.612   4.751  17.110  0.00  0.00    +0.000 A 
ATOM      9  C   UNL     1       4.591   3.960  16.580  0.00  0.00    +0.000 A 
ATOM     10  C   UNL     1       3.732   3.266  17.438  0.00  0.00    +0.000 A 
ATOM     11  C   UNL     1       3.895   3.333  18.826  0.00  0.00    +0.000 A 
ATOM     12  C   UNL     1       4.930   4.106  19.356  0.00  0.00    +0.000 A 
ATOM     13  C   UNL     1       5.770   4.819  18.499  0.00  0.00    +0.000 A 
ATOM     14  N   UNL     1       6.799   5.597  19.030  0.00  0.00    +0.000 N 
ATOM     15  H   UNL     1       7.017   5.549  20.022  0.00  0.00    +0.000 HD
ENDBRANCH   3  11
ENDBRANCH   2   3
ENDBRANCH   1   2
BRANCH   1  16
ATOM     16  C   UNL     1       2.130   5.461  20.994  0.00  0.00    +0.000 C 
BRANCH  16  17
ATOM     17  C   UNL     1       1.910   6.220  19.674  0.00  0.00    +0.000 C 
BRANCH  17  18
ATOM     18  N   UNL     1       2.071   7.656  19.847  0.00  0.00    +0.000 NA
ATOM     19  C   UNL     1       2.108   8.477  18.625  0.00  0.00    +0.000 C 
ATOM     20  C   UNL     1       0.989   9.529  18.351  0.00  0.00    +0.000 C 
ATOM     21  N   UNL     1       0.303  10.016  19.561  0.00  0.00    +0.000 N 
ATOM     22  C   UNL     1       0.006   8.953  20.526  0.00  0.00    +0.000 C 
ATOM     23  C   UNL     1       1.302   8.247  20.941  0.00  0.00    +0.000 C 
BRANCH  21  24
ATOM     24  C   UNL     1       0.312  11.352  19.951  0.00  0.00    +0.000 A 
ATOM     25  C   UNL     1       1.457  11.908  20.560  0.00  0.00    +0.000 A 
ATOM     26  C   UNL     1       1.552  13.267  20.897  0.00  0.00    +0.000 A 
ATOM     27  C   UNL     1       0.488  14.123  20.656  0.00  0.00    +0.000 A 
ATOM     28  C   UNL     1      -0.674  13.612  20.094  0.00  0.00    +0.000 A 
ATOM     29  C   UNL     1      -0.764  12.252  19.738  0.00  0.00    +0.000 A 
ATOM     30 BR   UNL     1      -2.380  11.788  18.830  0.00  0.00    +0.000 Br
ENDBRANCH  21  24
ENDBRANCH  17  18
ENDBRANCH  16  17
ENDBRANCH   1  16
TORSDOF 7
ENDMDL
