MODEL 1
REMARK VINA RESULT:      -8.6      0.000      0.000
REMARK  Name = 
REMARK  12 active torsions:
REMARK  status: ('A' for Active; 'I' for Inactive)
REMARK    1  A    between atoms: C_1  and  C_2
REMARK    2  A    between atoms: C_6  and  N_7
REMARK    3  A    between atoms: N_10  and  C_11
REMARK    4  A    between atoms: C_11  and  C_12
REMARK    5  A    between atoms: C_12  and  O_13
REMARK    6  A    between atoms: C_12  and  C_14
REMARK    7  A    between atoms: C_14  and  O_15
REMARK    8  A    between atoms: O_15  and  C_16
REMARK    9  A    between atoms: C_22  and  C_23
REMARK   10  A    between atoms: C_23  and  C_25
REMARK   11  A    between atoms: C_25  and  C_26
REMARK   12  A    between atoms: C_26  and  C_27
REMARK                            x       y       z     vdW  Elec       q    Type
REMARK                         _______ _______ _______ _____ _____    ______ ____
ROOT
ATOM      1  O   UNL     1       2.342   6.123  18.454  0.00  0.00    +0.000 OA
ENDROOT
BRANCH   1   2
ATOM      2  C   UNL     1       2.273   5.094  19.356  0.00  0.00    +0.000 A 
ATOM      3  C   UNL     1       1.979   5.323  20.715  0.00  0.00    +0.000 A 
ATOM      4  C   UNL     1       1.988   4.287  21.639  0.00  0.00    +0.000 A 
ATOM      5  C   UNL     1       2.225   3.003  21.196  0.00  0.00    +0.000 A 
ATOM      6  F   UNL     1       2.221   1.995  22.080  0.00  0.00    +0.000 F 
ATOM      7  C   UNL     1       2.467   2.730  19.855  0.00  0.00    +0.000 A 
ATOM      8  C   UNL     1       2.506   3.770  18.913  0.00  0.00    +0.000 A 
BRANCH   8   9
ATOM      9  C   UNL     1       2.845   3.441  17.479  0.00  0.00    +0.000 C 
ATOM     10  O   UNL     1       1.966   3.424  16.618  0.00  0.00    +0.000 OA
BRANCH   9  11
ATOM     11  C   UNL     1       4.303   3.206  17.068  0.00  0.00    +0.000 C 
BRANCH  11  12
ATOM     12  C   UNL     1       4.887   4.369  16.264  0.00  0.00    +0.000 C 
BRANCH  12  13
ATOM     13  C   UNL     1       5.833   5.305  16.994  0.00  0.00    +0.000 A 
ATOM     14  C   UNL     1       6.741   4.753  17.917  0.00  0.00    +0.000 A 
ATOM     15  C   UNL     1       7.699   5.550  18.552  0.00  0.00    +0.000 A 
ATOM     16  C   UNL     1       7.761   6.905  18.265  0.00  0.00    +0.000 A 
ATOM     17  F   UNL     1       8.694   7.664  18.850  0.00  0.00    +0.000 F 
ATOM     18  C   UNL     1       6.879   7.476  17.354  0.00  0.00    +0.000 A 
ATOM     19  C   UNL     1       5.917   6.677  16.717  0.00  0.00    +0.000 A 
ENDBRANCH  12  13
ENDBRANCH  11  12
ENDBRANCH   9  11
ENDBRANCH   8   9
ENDBRANCH   1   2
BRANCH   1  20
ATOM     20  C   UNL     1       2.654   7.416  18.975  0.00  0.00    +0.000 C 
BRANCH  20  21
ATOM     21  C   UNL     1       1.701   8.476  18.436  0.00  0.00    +0.000 C 
BRANCH  21  22
ATOM     22  O   UNL     1       2.336   9.265  17.417  0.00  0.00    +0.000 OA
ATOM     23  H   UNL     1       2.393   8.719  16.615  0.00  0.00    +0.000 HD
ENDBRANCH  21  22
BRANCH  21  24
ATOM     24  C   UNL     1       1.098   9.352  19.544  0.00  0.00    +0.000 C 
BRANCH  24  28
ATOM     25  N   UNL     1      -1.308  11.748  20.614  0.00  0.00    +0.000 N 
ATOM     26  C   UNL     1      -1.373  11.133  19.283  0.00  0.00    +0.000 C 
ATOM     27  C   UNL     1      -0.015  11.354  18.586  0.00  0.00    +0.000 C 
ATOM     28  N   UNL     1       1.154  10.820  19.329  0.00  0.00    +0.000 NA
ATOM     29  C   UNL     1       1.154  11.502  20.654  0.00  0.00    +0.000 C 
ATOM     30  C   UNL     1      -0.165  11.346  21.454  0.00  0.00    +0.000 C 
BRANCH  25  36
ATOM     31  C   UNL     1      -4.063  12.632  24.634  0.00  0.00    +0.000 C 
ATOM     32  C   UNL     1      -3.873  12.699  23.151  0.00  0.00    +0.000 A 
ATOM     33  C   UNL     1      -4.846  13.247  22.318  0.00  0.00    +0.000 A 
ATOM     34  C   UNL     1      -4.640  13.309  20.943  0.00  0.00    +0.000 A 
ATOM     35  C   UNL     1      -3.446  12.822  20.399  0.00  0.00    +0.000 A 
ATOM     36  C   UNL     1      -2.443  12.263  21.206  0.00  0.00    +0.000 A 
ATOM     37  C   UNL     1      -2.685  12.196  22.580  0.00  0.00    +0.000 A 
ENDBRANCH  25  36
ENDBRANCH  24  28
ENDBRANCH  21  24
ENDBRANCH  20  21
ENDBRANCH   1  20
TORSDOF 11
ENDMDL
MODEL 2
REMARK VINA RESULT:      -8.4      1.022      1.536
REMARK  Name = 
REMARK  12 active torsions:
REMARK  status: ('A' for Active; 'I' for Inactive)
REMARK    1  A    between atoms: C_1  and  C_2
REMARK    2  A    between atoms: C_6  and  N_7
REMARK    3  A    between atoms: N_10  and  C_11
REMARK    4  A    between atoms: C_11  and  C_12
REMARK    5  A    between atoms: C_12  and  O_13
REMARK    6  A    between atoms: C_12  and  C_14
REMARK    7  A    between atoms: C_14  and  O_15
REMARK    8  A    between atoms: O_15  and  C_16
REMARK    9  A    between atoms: C_22  and  C_23
REMARK   10  A    between atoms: C_23  and  C_25
REMARK   11  A    between atoms: C_25  and  C_26
REMARK   12  A    between atoms: C_26  and  C_27
REMARK                            x       y       z     vdW  Elec       q    Type
REMARK                         _______ _______ _______ _____ _____    ______ ____
ROOT
ATOM      1  O   UNL     1       2.423   6.073  18.456  0.00  0.00    +0.000 OA
ENDROOT
BRANCH   1   2
ATOM      2  C   UNL     1       2.295   5.023  19.327  0.00  0.00    +0.000 A 
ATOM      3  C   UNL     1       1.929   5.221  20.673  0.00  0.00    +0.000 A 
ATOM      4  C   UNL     1       1.878   4.162  21.570  0.00  0.00    +0.000 A 
ATOM      5  C   UNL     1       2.125   2.887  21.107  0.00  0.00    +0.000 A 
ATOM      6  F   UNL     1       2.063   1.858  21.964  0.00  0.00    +0.000 F 
ATOM      7  C   UNL     1       2.438   2.645  19.775  0.00  0.00    +0.000 A 
ATOM      8  C   UNL     1       2.539   3.708  18.863  0.00  0.00    +0.000 A 
BRANCH   8   9
ATOM      9  C   UNL     1       2.952   3.411  17.442  0.00  0.00    +0.000 C 
ATOM     10  O   UNL     1       2.105   3.167  16.583  0.00  0.00    +0.000 OA
BRANCH   9  11
ATOM     11  C   UNL     1       4.430   3.492  17.038  0.00  0.00    +0.000 C 
BRANCH  11  12
ATOM     12  C   UNL     1       4.815   4.859  16.470  0.00  0.00    +0.000 C 
BRANCH  12  13
ATOM     13  C   UNL     1       5.971   5.581  17.138  0.00  0.00    +0.000 A 
ATOM     14  C   UNL     1       6.297   6.876  16.694  0.00  0.00    +0.000 A 
ATOM     15  C   UNL     1       7.289   7.629  17.331  0.00  0.00    +0.000 A 
ATOM     16  C   UNL     1       7.959   7.094  18.421  0.00  0.00    +0.000 A 
ATOM     17  F   UNL     1       8.889   7.822  19.048  0.00  0.00    +0.000 F 
ATOM     18  C   UNL     1       7.654   5.819  18.883  0.00  0.00    +0.000 A 
ATOM     19  C   UNL     1       6.659   5.063  18.244  0.00  0.00    +0.000 A 
ENDBRANCH  12  13
ENDBRANCH  11  12
ENDBRANCH   9  11
ENDBRANCH   8   9
ENDBRANCH   1   2
BRANCH   1  20
ATOM     20  C   UNL     1       2.654   7.360  19.030  0.00  0.00    +0.000 C 
BRANCH  20  21
ATOM     21  C   UNL     1       1.804   8.430  18.356  0.00  0.00    +0.000 C 
BRANCH  21  22
ATOM     22  O   UNL     1       2.438   8.908  17.158  0.00  0.00    +0.000 OA
ATOM     23  H   UNL     1       1.777   8.882  16.445  0.00  0.00    +0.000 HD
ENDBRANCH  21  22
BRANCH  21  24
ATOM     24  C   UNL     1       1.432   9.579  19.303  0.00  0.00    +0.000 C 
BRANCH  24  28
ATOM     25  N   UNL     1      -0.446  12.086  20.996  0.00  0.00    +0.000 N 
ATOM     26  C   UNL     1      -1.088  10.894  20.428  0.00  0.00    +0.000 C 
ATOM     27  C   UNL     1      -0.697  10.803  18.939  0.00  0.00    +0.000 C 
ATOM     28  N   UNL     1       0.764  10.753  18.686  0.00  0.00    +0.000 NA
ATOM     29  C   UNL     1       1.333  11.997  19.278  0.00  0.00    +0.000 C 
ATOM     30  C   UNL     1       1.008  12.198  20.781  0.00  0.00    +0.000 C 
BRANCH  25  36
ATOM     31  C   UNL     1      -4.073  12.602  24.330  0.00  0.00    +0.000 C 
ATOM     32  C   UNL     1      -2.823  13.112  23.683  0.00  0.00    +0.000 A 
ATOM     33  C   UNL     1      -2.237  14.312  24.079  0.00  0.00    +0.000 A 
ATOM     34  C   UNL     1      -1.068  14.758  23.470  0.00  0.00    +0.000 A 
ATOM     35  C   UNL     1      -0.477  13.991  22.460  0.00  0.00    +0.000 A 
ATOM     36  C   UNL     1      -1.038  12.776  22.034  0.00  0.00    +0.000 A 
ATOM     37  C   UNL     1      -2.222  12.364  22.648  0.00  0.00    +0.000 A 
ENDBRANCH  25  36
ENDBRANCH  24  28
ENDBRANCH  21  24
ENDBRANCH  20  21
ENDBRANCH   1  20
TORSDOF 11
ENDMDL
MODEL 3
REMARK VINA RESULT:      -8.1      3.693     10.022
REMARK  Name = 
REMARK  12 active torsions:
REMARK  status: ('A' for Active; 'I' for Inactive)
REMARK    1  A    between atoms: C_1  and  C_2
REMARK    2  A    between atoms: C_6  and  N_7
REMARK    3  A    between atoms: N_10  and  C_11
REMARK    4  A    between atoms: C_11  and  C_12
REMARK    5  A    between atoms: C_12  and  O_13
REMARK    6  A    between atoms: C_12  and  C_14
REMARK    7  A    between atoms: C_14  and  O_15
REMARK    8  A    between atoms: O_15  and  C_16
REMARK    9  A    between atoms: C_22  and  C_23
REMARK   10  A    between atoms: C_23  and  C_25
REMARK   11  A    between atoms: C_25  and  C_26
REMARK   12  A    between atoms: C_26  and  C_27
REMARK                            x       y       z     vdW  Elec       q    Type
REMARK                         _______ _______ _______ _____ _____    ______ ____
ROOT
ATOM      1  O   UNL     1       1.459   6.246  21.198  0.00  0.00    +0.000 OA
ENDROOT
BRANCH   1   2
ATOM      2  C   UNL     1       1.617   7.215  20.241  0.00  0.00    +0.000 A 
ATOM      3  C   UNL     1       2.441   7.014  19.117  0.00  0.00    +0.000 A 
ATOM      4  C   UNL     1       2.659   8.027  18.192  0.00  0.00    +0.000 A 
ATOM      5  C   UNL     1       1.997   9.226  18.352  0.00  0.00    +0.000 A 
ATOM      6  F   UNL     1       2.191  10.203  17.455  0.00  0.00    +0.000 F 
ATOM      7  C   UNL     1       1.135   9.443  19.420  0.00  0.00    +0.000 A 
ATOM      8  C   UNL     1       0.937   8.447  20.389  0.00  0.00    +0.000 A 
BRANCH   8   9
ATOM      9  C   UNL     1       0.050   8.750  21.573  0.00  0.00    +0.000 C 
ATOM     10  O   UNL     1      -0.972   8.093  21.770  0.00  0.00    +0.000 OA
BRANCH   9  11
ATOM     11  C   UNL     1       0.460   9.825  22.586  0.00  0.00    +0.000 C 
BRANCH  11  12
ATOM     12  C   UNL     1      -0.538  10.983  22.658  0.00  0.00    +0.000 C 
BRANCH  12  13
ATOM     13  C   UNL     1      -0.606  11.908  21.457  0.00  0.00    +0.000 A 
ATOM     14  C   UNL     1       0.492  12.747  21.195  0.00  0.00    +0.000 A 
ATOM     15  C   UNL     1       0.529  13.554  20.053  0.00  0.00    +0.000 A 
ATOM     16  C   UNL     1      -0.531  13.522  19.160  0.00  0.00    +0.000 A 
ATOM     17  F   UNL     1      -0.486  14.272  18.053  0.00  0.00    +0.000 F 
ATOM     18  C   UNL     1      -1.627  12.698  19.391  0.00  0.00    +0.000 A 
ATOM     19  C   UNL     1      -1.665  11.890  20.537  0.00  0.00    +0.000 A 
ENDBRANCH  12  13
ENDBRANCH  11  12
ENDBRANCH   9  11
ENDBRANCH   8   9
ENDBRANCH   1   2
BRANCH   1  20
ATOM     20  C   UNL     1       2.384   5.158  21.170  0.00  0.00    +0.000 C 
BRANCH  20  21
ATOM     21  C   UNL     1       1.662   3.818  21.102  0.00  0.00    +0.000 C 
BRANCH  21  22
ATOM     22  O   UNL     1       2.249   2.874  22.013  0.00  0.00    +0.000 OA
ATOM     23  H   UNL     1       1.606   2.156  22.147  0.00  0.00    +0.000 HD
ENDBRANCH  21  22
BRANCH  21  24
ATOM     24  C   UNL     1       1.579   3.258  19.674  0.00  0.00    +0.000 C 
BRANCH  24  28
ATOM     25  N   UNL     1       4.302   3.445  17.388  0.00  0.00    +0.000 N 
ATOM     26  C   UNL     1       2.973   2.987  16.967  0.00  0.00    +0.000 C 
ATOM     27  C   UNL     1       2.550   1.827  17.892  0.00  0.00    +0.000 C 
ATOM     28  N   UNL     1       2.528   2.167  19.337  0.00  0.00    +0.000 NA
ATOM     29  C   UNL     1       3.910   2.606  19.683  0.00  0.00    +0.000 C 
ATOM     30  C   UNL     1       4.446   3.776  18.817  0.00  0.00    +0.000 C 
BRANCH  25  36
ATOM     31  C   UNL     1       6.193   3.636  12.814  0.00  0.00    +0.000 C 
ATOM     32  C   UNL     1       6.191   4.098  14.238  0.00  0.00    +0.000 A 
ATOM     33  C   UNL     1       7.099   5.050  14.693  0.00  0.00    +0.000 A 
ATOM     34  C   UNL     1       7.069   5.473  16.019  0.00  0.00    +0.000 A 
ATOM     35  C   UNL     1       6.116   4.940  16.894  0.00  0.00    +0.000 A 
ATOM     36  C   UNL     1       5.185   3.978  16.472  0.00  0.00    +0.000 A 
ATOM     37  C   UNL     1       5.251   3.558  15.142  0.00  0.00    +0.000 A 
ENDBRANCH  25  36
ENDBRANCH  24  28
ENDBRANCH  21  24
ENDBRANCH  20  21
ENDBRANCH   1  20
TORSDOF 11
ENDMDL
MODEL 4
REMARK VINA RESULT:      -8.0      2.339      3.232
REMARK  Name = 
REMARK  12 active torsions:
REMARK  status: ('A' for Active; 'I' for Inactive)
REMARK    1  A    between atoms: C_1  and  C_2
REMARK    2  A    between atoms: C_6  and  N_7
REMARK    3  A    between atoms: N_10  and  C_11
REMARK    4  A    between atoms: C_11  and  C_12
REMARK    5  A    between atoms: C_12  and  O_13
REMARK    6  A    between atoms: C_12  and  C_14
REMARK    7  A    between atoms: C_14  and  O_15
REMARK    8  A    between atoms: O_15  and  C_16
REMARK    9  A    between atoms: C_22  and  C_23
REMARK   10  A    between atoms: C_23  and  C_25
REMARK   11  A    between atoms: C_25  and  C_26
REMARK   12  A    between atoms: C_26  and  C_27
REMARK                            x       y       z     vdW  Elec       q    Type
REMARK                         _______ _______ _______ _____ _____    ______ ____
ROOT
ATOM      1  O   UNL     1       3.030   6.513  19.669  0.00  0.00    +0.000 OA
ENDROOT
BRANCH   1   2
ATOM      2  C   UNL     1       2.956   5.281  19.075  0.00  0.00    +0.000 A 
ATOM      3  C   UNL     1       1.725   4.616  18.904  0.00  0.00    +0.000 A 
ATOM      4  C   UNL     1       1.665   3.335  18.373  0.00  0.00    +0.000 A 
ATOM      5  C   UNL     1       2.832   2.737  17.945  0.00  0.00    +0.000 A 
ATOM      6  F   UNL     1       2.779   1.506  17.418  0.00  0.00    +0.000 F 
ATOM      7  C   UNL     1       4.058   3.382  18.048  0.00  0.00    +0.000 A 
ATOM      8  C   UNL     1       4.146   4.660  18.623  0.00  0.00    +0.000 A 
BRANCH   8   9
ATOM      9  C   UNL     1       5.506   5.295  18.784  0.00  0.00    +0.000 C 
ATOM     10  O   UNL     1       6.180   5.078  19.790  0.00  0.00    +0.000 OA
BRANCH   9  11
ATOM     11  C   UNL     1       6.092   6.152  17.655  0.00  0.00    +0.000 C 
BRANCH  11  12
ATOM     12  C   UNL     1       5.248   6.110  16.380  0.00  0.00    +0.000 C 
BRANCH  12  13
ATOM     13  C   UNL     1       5.812   5.328  15.207  0.00  0.00    +0.000 A 
ATOM     14  C   UNL     1       4.983   4.386  14.570  0.00  0.00    +0.000 A 
ATOM     15  C   UNL     1       5.412   3.702  13.428  0.00  0.00    +0.000 A 
ATOM     16  C   UNL     1       6.671   3.960  12.909  0.00  0.00    +0.000 A 
ATOM     17  F   UNL     1       7.073   3.328  11.801  0.00  0.00    +0.000 F 
ATOM     18  C   UNL     1       7.510   4.890  13.515  0.00  0.00    +0.000 A 
ATOM     19  C   UNL     1       7.080   5.575  14.662  0.00  0.00    +0.000 A 
ENDBRANCH  12  13
ENDBRANCH  11  12
ENDBRANCH   9  11
ENDBRANCH   8   9
ENDBRANCH   1   2
BRANCH   1  20
ATOM     20  C   UNL     1       2.328   7.580  19.029  0.00  0.00    +0.000 C 
BRANCH  20  21
ATOM     21  C   UNL     1       1.806   8.589  20.045  0.00  0.00    +0.000 C 
BRANCH  21  22
ATOM     22  O   UNL     1       1.410   7.933  21.261  0.00  0.00    +0.000 OA
ATOM     23  H   UNL     1       0.448   7.794  21.220  0.00  0.00    +0.000 HD
ENDBRANCH  21  22
BRANCH  21  24
ATOM     24  C   UNL     1       0.685   9.474  19.482  0.00  0.00    +0.000 C 
BRANCH  24  28
ATOM     25  N   UNL     1      -1.484  11.803  21.078  0.00  0.00    +0.000 N 
ATOM     26  C   UNL     1      -1.598  11.500  19.646  0.00  0.00    +0.000 C 
ATOM     27  C   UNL     1      -0.219  11.735  18.996  0.00  0.00    +0.000 C 
ATOM     28  N   UNL     1       0.886  10.941  19.589  0.00  0.00    +0.000 NA
ATOM     29  C   UNL     1       0.942  11.315  21.031  0.00  0.00    +0.000 C 
ATOM     30  C   UNL     1      -0.393  11.119  21.796  0.00  0.00    +0.000 C 
BRANCH  25  36
ATOM     31  C   UNL     1      -5.805  14.219  21.242  0.00  0.00    +0.000 C 
ATOM     32  C   UNL     1      -4.692  13.502  21.941  0.00  0.00    +0.000 A 
ATOM     33  C   UNL     1      -4.693  13.329  23.323  0.00  0.00    +0.000 A 
ATOM     34  C   UNL     1      -3.653  12.648  23.947  0.00  0.00    +0.000 A 
ATOM     35  C   UNL     1      -2.604  12.130  23.178  0.00  0.00    +0.000 A 
ATOM     36  C   UNL     1      -2.568  12.284  21.783  0.00  0.00    +0.000 A 
ATOM     37  C   UNL     1      -3.615  12.990  21.186  0.00  0.00    +0.000 A 
ENDBRANCH  25  36
ENDBRANCH  24  28
ENDBRANCH  21  24
ENDBRANCH  20  21
ENDBRANCH   1  20
TORSDOF 11
ENDMDL
MODEL 5
REMARK VINA RESULT:      -7.9      1.692      2.387
REMARK  Name = 
REMARK  12 active torsions:
REMARK  status: ('A' for Active; 'I' for Inactive)
REMARK    1  A    between atoms: C_1  and  C_2
REMARK    2  A    between atoms: C_6  and  N_7
REMARK    3  A    between atoms: N_10  and  C_11
REMARK    4  A    between atoms: C_11  and  C_12
REMARK    5  A    between atoms: C_12  and  O_13
REMARK    6  A    between atoms: C_12  and  C_14
REMARK    7  A    between atoms: C_14  and  O_15
REMARK    8  A    between atoms: O_15  and  C_16
REMARK    9  A    between atoms: C_22  and  C_23
REMARK   10  A    between atoms: C_23  and  C_25
REMARK   11  A    between atoms: C_25  and  C_26
REMARK   12  A    between atoms: C_26  and  C_27
REMARK                            x       y       z     vdW  Elec       q    Type
REMARK                         _______ _______ _______ _____ _____    ______ ____
ROOT
ATOM      1  O   UNL     1       1.827   6.004  18.439  0.00  0.00    +0.000 OA
ENDROOT
BRANCH   1   2
ATOM      2  C   UNL     1       2.054   4.999  19.342  0.00  0.00    +0.000 A 
ATOM      3  C   UNL     1       1.797   5.169  20.717  0.00  0.00    +0.000 A 
ATOM      4  C   UNL     1       2.104   4.175  21.636  0.00  0.00    +0.000 A 
ATOM      5  C   UNL     1       2.606   2.976  21.176  0.00  0.00    +0.000 A 
ATOM      6  F   UNL     1       2.889   2.006  22.057  0.00  0.00    +0.000 F 
ATOM      7  C   UNL     1       2.823   2.751  19.822  0.00  0.00    +0.000 A 
ATOM      8  C   UNL     1       2.562   3.760  18.882  0.00  0.00    +0.000 A 
BRANCH   8   9
ATOM      9  C   UNL     1       2.881   3.502  17.429  0.00  0.00    +0.000 C 
ATOM     10  O   UNL     1       1.978   3.412  16.598  0.00  0.00    +0.000 OA
BRANCH   9  11
ATOM     11  C   UNL     1       4.340   3.430  16.963  0.00  0.00    +0.000 C 
BRANCH  11  12
ATOM     12  C   UNL     1       4.824   4.736  16.328  0.00  0.00    +0.000 C 
BRANCH  12  13
ATOM     13  C   UNL     1       5.969   5.454  17.018  0.00  0.00    +0.000 A 
ATOM     14  C   UNL     1       6.150   6.826  16.762  0.00  0.00    +0.000 A 
ATOM     15  C   UNL     1       7.129   7.563  17.437  0.00  0.00    +0.000 A 
ATOM     16  C   UNL     1       7.929   6.935  18.379  0.00  0.00    +0.000 A 
ATOM     17  F   UNL     1       8.847   7.644  19.046  0.00  0.00    +0.000 F 
ATOM     18  C   UNL     1       7.769   5.582  18.656  0.00  0.00    +0.000 A 
ATOM     19  C   UNL     1       6.789   4.842  17.977  0.00  0.00    +0.000 A 
ENDBRANCH  12  13
ENDBRANCH  11  12
ENDBRANCH   9  11
ENDBRANCH   8   9
ENDBRANCH   1   2
BRANCH   1  20
ATOM     20  C   UNL     1       2.581   7.205  18.610  0.00  0.00    +0.000 C 
BRANCH  20  21
ATOM     21  C   UNL     1       1.732   8.439  18.330  0.00  0.00    +0.000 C 
BRANCH  21  22
ATOM     22  O   UNL     1       2.293   9.214  17.258  0.00  0.00    +0.000 OA
ATOM     23  H   UNL     1       2.233  10.151  17.509  0.00  0.00    +0.000 HD
ENDBRANCH  21  22
BRANCH  21  24
ATOM     24  C   UNL     1       1.487   9.290  19.583  0.00  0.00    +0.000 C 
BRANCH  24  28
ATOM     25  N   UNL     1      -0.264  12.374  19.905  0.00  0.00    +0.000 N 
ATOM     26  C   UNL     1       0.430  11.760  21.043  0.00  0.00    +0.000 C 
ATOM     27  C   UNL     1      -0.092  10.317  21.201  0.00  0.00    +0.000 C 
ATOM     28  N   UNL     1       0.072   9.466  19.996  0.00  0.00    +0.000 NA
ATOM     29  C   UNL     1      -0.669  10.149  18.898  0.00  0.00    +0.000 C 
ATOM     30  C   UNL     1      -0.227  11.614  18.642  0.00  0.00    +0.000 C 
BRANCH  25  36
ATOM     31  C   UNL     1      -2.360  16.434  21.819  0.00  0.00    +0.000 C 
ATOM     32  C   UNL     1      -1.543  15.775  20.751  0.00  0.00    +0.000 A 
ATOM     33  C   UNL     1      -1.029  16.501  19.679  0.00  0.00    +0.000 A 
ATOM     34  C   UNL     1      -0.261  15.867  18.706  0.00  0.00    +0.000 A 
ATOM     35  C   UNL     1      -0.002  14.496  18.812  0.00  0.00    +0.000 A 
ATOM     36  C   UNL     1      -0.503  13.732  19.877  0.00  0.00    +0.000 A 
ATOM     37  C   UNL     1      -1.287  14.390  20.828  0.00  0.00    +0.000 A 
ENDBRANCH  25  36
ENDBRANCH  24  28
ENDBRANCH  21  24
ENDBRANCH  20  21
ENDBRANCH   1  20
TORSDOF 11
ENDMDL
MODEL 6
REMARK VINA RESULT:      -7.7      2.330      2.973
REMARK  Name = 
REMARK  12 active torsions:
REMARK  status: ('A' for Active; 'I' for Inactive)
REMARK    1  A    between atoms: C_1  and  C_2
REMARK    2  A    between atoms: C_6  and  N_7
REMARK    3  A    between atoms: N_10  and  C_11
REMARK    4  A    between atoms: C_11  and  C_12
REMARK    5  A    between atoms: C_12  and  O_13
REMARK    6  A    between atoms: C_12  and  C_14
REMARK    7  A    between atoms: C_14  and  O_15
REMARK    8  A    between atoms: O_15  and  C_16
REMARK    9  A    between atoms: C_22  and  C_23
REMARK   10  A    between atoms: C_23  and  C_25
REMARK   11  A    between atoms: C_25  and  C_26
REMARK   12  A    between atoms: C_26  and  C_27
REMARK                            x       y       z     vdW  Elec       q    Type
REMARK                         _______ _______ _______ _____ _____    ______ ____
ROOT
ATOM      1  O   UNL     1       2.283   6.901  18.337  0.00  0.00    +0.000 OA
ENDROOT
BRANCH   1   2
ATOM      2  C   UNL     1       2.425   5.804  19.146  0.00  0.00    +0.000 A 
ATOM      3  C   UNL     1       1.555   5.568  20.229  0.00  0.00    +0.000 A 
ATOM      4  C   UNL     1       1.752   4.498  21.092  0.00  0.00    +0.000 A 
ATOM      5  C   UNL     1       2.782   3.618  20.836  0.00  0.00    +0.000 A 
ATOM      6  F   UNL     1       2.968   2.575  21.656  0.00  0.00    +0.000 F 
ATOM      7  C   UNL     1       3.629   3.788  19.747  0.00  0.00    +0.000 A 
ATOM      8  C   UNL     1       3.474   4.888  18.889  0.00  0.00    +0.000 A 
BRANCH   8   9
ATOM      9  C   UNL     1       4.460   5.077  17.762  0.00  0.00    +0.000 C 
ATOM     10  O   UNL     1       5.359   5.912  17.854  0.00  0.00    +0.000 OA
BRANCH   9  11
ATOM     11  C   UNL     1       4.398   4.172  16.526  0.00  0.00    +0.000 C 
BRANCH  11  12
ATOM     12  C   UNL     1       5.780   3.705  16.064  0.00  0.00    +0.000 C 
BRANCH  12  13
ATOM     13  C   UNL     1       6.184   4.051  14.643  0.00  0.00    +0.000 A 
ATOM     14  C   UNL     1       7.200   5.006  14.450  0.00  0.00    +0.000 A 
ATOM     15  C   UNL     1       7.681   5.300  13.170  0.00  0.00    +0.000 A 
ATOM     16  C   UNL     1       7.154   4.636  12.073  0.00  0.00    +0.000 A 
ATOM     17  F   UNL     1       7.631   4.895  10.850  0.00  0.00    +0.000 F 
ATOM     18  C   UNL     1       6.153   3.685  12.235  0.00  0.00    +0.000 A 
ATOM     19  C   UNL     1       5.669   3.391  13.518  0.00  0.00    +0.000 A 
ENDBRANCH  12  13
ENDBRANCH  11  12
ENDBRANCH   9  11
ENDBRANCH   8   9
ENDBRANCH   1   2
BRANCH   1  20
ATOM     20  C   UNL     1       2.143   8.166  18.987  0.00  0.00    +0.000 C 
BRANCH  20  21
ATOM     21  C   UNL     1       1.278   9.117  18.169  0.00  0.00    +0.000 C 
BRANCH  21  22
ATOM     22  O   UNL     1       2.092   9.970  17.347  0.00  0.00    +0.000 OA
ATOM     23  H   UNL     1       1.858   9.796  16.420  0.00  0.00    +0.000 HD
ENDBRANCH  21  22
BRANCH  21  24
ATOM     24  C   UNL     1       0.298   9.922  19.034  0.00  0.00    +0.000 C 
BRANCH  24  28
ATOM     25  N   UNL     1      -1.440  12.079  21.271  0.00  0.00    +0.000 N 
ATOM     26  C   UNL     1      -1.352  12.368  19.834  0.00  0.00    +0.000 C 
ATOM     27  C   UNL     1       0.138  12.367  19.435  0.00  0.00    +0.000 C 
ATOM     28  N   UNL     1       0.857  11.104  19.737  0.00  0.00    +0.000 NA
ATOM     29  C   UNL     1       0.732  10.894  21.207  0.00  0.00    +0.000 C 
ATOM     30  C   UNL     1      -0.729  10.872  21.729  0.00  0.00    +0.000 C 
BRANCH  25  36
ATOM     31  C   UNL     1      -5.017  15.427  21.998  0.00  0.00    +0.000 C 
ATOM     32  C   UNL     1      -4.234  14.241  22.469  0.00  0.00    +0.000 A 
ATOM     33  C   UNL     1      -4.495  13.641  23.699  0.00  0.00    +0.000 A 
ATOM     34  C   UNL     1      -3.761  12.531  24.108  0.00  0.00    +0.000 A 
ATOM     35  C   UNL     1      -2.762  12.015  23.275  0.00  0.00    +0.000 A 
ATOM     36  C   UNL     1      -2.471  12.593  22.029  0.00  0.00    +0.000 A 
ATOM     37  C   UNL     1      -3.209  13.718  21.653  0.00  0.00    +0.000 A 
ENDBRANCH  25  36
ENDBRANCH  24  28
ENDBRANCH  21  24
ENDBRANCH  20  21
ENDBRANCH   1  20
TORSDOF 11
ENDMDL
MODEL 7
REMARK VINA RESULT:      -7.7      3.031      4.361
REMARK  Name = 
REMARK  12 active torsions:
REMARK  status: ('A' for Active; 'I' for Inactive)
REMARK    1  A    between atoms: C_1  and  C_2
REMARK    2  A    between atoms: C_6  and  N_7
REMARK    3  A    between atoms: N_10  and  C_11
REMARK    4  A    between atoms: C_11  and  C_12
REMARK    5  A    between atoms: C_12  and  O_13
REMARK    6  A    between atoms: C_12  and  C_14
REMARK    7  A    between atoms: C_14  and  O_15
REMARK    8  A    between atoms: O_15  and  C_16
REMARK    9  A    between atoms: C_22  and  C_23
REMARK   10  A    between atoms: C_23  and  C_25
REMARK   11  A    between atoms: C_25  and  C_26
REMARK   12  A    between atoms: C_26  and  C_27
REMARK                            x       y       z     vdW  Elec       q    Type
REMARK                         _______ _______ _______ _____ _____    ______ ____
ROOT
ATOM      1  O   UNL     1       1.854   6.241  20.965  0.00  0.00    +0.000 OA
ENDROOT
BRANCH   1   2
ATOM      2  C   UNL     1       1.788   5.135  20.159  0.00  0.00    +0.000 A 
ATOM      3  C   UNL     1       0.891   4.081  20.423  0.00  0.00    +0.000 A 
ATOM      4  C   UNL     1       0.884   2.929  19.649  0.00  0.00    +0.000 A 
ATOM      5  C   UNL     1       1.729   2.854  18.561  0.00  0.00    +0.000 A 
ATOM      6  F   UNL     1       1.716   1.751  17.800  0.00  0.00    +0.000 F 
ATOM      7  C   UNL     1       2.590   3.895  18.238  0.00  0.00    +0.000 A 
ATOM      8  C   UNL     1       2.644   5.049  19.035  0.00  0.00    +0.000 A 
BRANCH   8   9
ATOM      9  C   UNL     1       3.646   6.125  18.692  0.00  0.00    +0.000 C 
ATOM     10  O   UNL     1       3.276   7.182  18.183  0.00  0.00    +0.000 OA
BRANCH   9  11
ATOM     11  C   UNL     1       5.126   5.941  19.051  0.00  0.00    +0.000 C 
BRANCH  11  12
ATOM     12  C   UNL     1       6.065   6.319  17.905  0.00  0.00    +0.000 C 
BRANCH  12  13
ATOM     13  C   UNL     1       5.954   5.506  16.627  0.00  0.00    +0.000 A 
ATOM     14  C   UNL     1       5.378   6.113  15.496  0.00  0.00    +0.000 A 
ATOM     15  C   UNL     1       5.332   5.449  14.265  0.00  0.00    +0.000 A 
ATOM     16  C   UNL     1       5.868   4.175  14.156  0.00  0.00    +0.000 A 
ATOM     17  F   UNL     1       5.850   3.549  12.974  0.00  0.00    +0.000 F 
ATOM     18  C   UNL     1       6.448   3.554  15.256  0.00  0.00    +0.000 A 
ATOM     19  C   UNL     1       6.493   4.218  16.491  0.00  0.00    +0.000 A 
ENDBRANCH  12  13
ENDBRANCH  11  12
ENDBRANCH   9  11
ENDBRANCH   8   9
ENDBRANCH   1   2
BRANCH   1  20
ATOM     20  C   UNL     1       0.790   7.188  20.848  0.00  0.00    +0.000 C 
BRANCH  20  21
ATOM     21  C   UNL     1       1.302   8.617  20.983  0.00  0.00    +0.000 C 
BRANCH  21  22
ATOM     22  O   UNL     1       1.836   8.847  22.297  0.00  0.00    +0.000 OA
ATOM     23  H   UNL     1       1.497   9.705  22.606  0.00  0.00    +0.000 HD
ENDBRANCH  21  22
BRANCH  21  24
ATOM     24  C   UNL     1       0.246   9.665  20.604  0.00  0.00    +0.000 C 
BRANCH  24  28
ATOM     25  N   UNL     1       0.560  12.791  18.928  0.00  0.00    +0.000 N 
ATOM     26  C   UNL     1      -0.731  12.319  19.444  0.00  0.00    +0.000 C 
ATOM     27  C   UNL     1      -0.998  10.917  18.858  0.00  0.00    +0.000 C 
ATOM     28  N   UNL     1       0.055   9.914  19.152  0.00  0.00    +0.000 NA
ATOM     29  C   UNL     1       1.322  10.461  18.587  0.00  0.00    +0.000 C 
ATOM     30  C   UNL     1       1.699  11.873  19.108  0.00  0.00    +0.000 C 
BRANCH  25  36
ATOM     31  C   UNL     1       3.641  16.559  18.013  0.00  0.00    +0.000 C 
ATOM     32  C   UNL     1       2.268  16.053  18.329  0.00  0.00    +0.000 A 
ATOM     33  C   UNL     1       1.191  16.922  18.480  0.00  0.00    +0.000 A 
ATOM     34  C   UNL     1      -0.079  16.425  18.761  0.00  0.00    +0.000 A 
ATOM     35  C   UNL     1      -0.270  15.044  18.886  0.00  0.00    +0.000 A 
ATOM     36  C   UNL     1       0.791  14.138  18.740  0.00  0.00    +0.000 A 
ATOM     37  C   UNL     1       2.058  14.666  18.479  0.00  0.00    +0.000 A 
ENDBRANCH  25  36
ENDBRANCH  24  28
ENDBRANCH  21  24
ENDBRANCH  20  21
ENDBRANCH   1  20
TORSDOF 11
ENDMDL
MODEL 8
REMARK VINA RESULT:      -7.6      4.566      7.874
REMARK  Name = 
REMARK  12 active torsions:
REMARK  status: ('A' for Active; 'I' for Inactive)
REMARK    1  A    between atoms: C_1  and  C_2
REMARK    2  A    between atoms: C_6  and  N_7
REMARK    3  A    between atoms: N_10  and  C_11
REMARK    4  A    between atoms: C_11  and  C_12
REMARK    5  A    between atoms: C_12  and  O_13
REMARK    6  A    between atoms: C_12  and  C_14
REMARK    7  A    between atoms: C_14  and  O_15
REMARK    8  A    between atoms: O_15  and  C_16
REMARK    9  A    between atoms: C_22  and  C_23
REMARK   10  A    between atoms: C_23  and  C_25
REMARK   11  A    between atoms: C_25  and  C_26
REMARK   12  A    between atoms: C_26  and  C_27
REMARK                            x       y       z     vdW  Elec       q    Type
REMARK                         _______ _______ _______ _____ _____    ______ ____
ROOT
ATOM      1  O   UNL     1       0.521  11.377  18.879  0.00  0.00    +0.000 OA
ENDROOT
BRANCH   1   2
ATOM      2  C   UNL     1       0.350  10.836  20.126  0.00  0.00    +0.000 A 
ATOM      3  C   UNL     1      -0.329  11.532  21.146  0.00  0.00    +0.000 A 
ATOM      4  C   UNL     1      -0.430  11.012  22.430  0.00  0.00    +0.000 A 
ATOM      5  C   UNL     1       0.089   9.760  22.683  0.00  0.00    +0.000 A 
ATOM      6  F   UNL     1      -0.018   9.245  23.916  0.00  0.00    +0.000 F 
ATOM      7  C   UNL     1       0.719   9.021  21.689  0.00  0.00    +0.000 A 
ATOM      8  C   UNL     1       0.871   9.548  20.397  0.00  0.00    +0.000 A 
BRANCH   8   9
ATOM      9  C   UNL     1       1.627   8.744  19.367  0.00  0.00    +0.000 C 
ATOM     10  O   UNL     1       1.974   9.260  18.305  0.00  0.00    +0.000 OA
BRANCH   9  11
ATOM     11  C   UNL     1       2.041   7.299  19.670  0.00  0.00    +0.000 C 
BRANCH  11  12
ATOM     12  C   UNL     1       2.462   6.528  18.418  0.00  0.00    +0.000 C 
BRANCH  12  13
ATOM     13  C   UNL     1       3.935   6.182  18.286  0.00  0.00    +0.000 A 
ATOM     14  C   UNL     1       4.669   6.770  17.239  0.00  0.00    +0.000 A 
ATOM     15  C   UNL     1       6.047   6.565  17.120  0.00  0.00    +0.000 A 
ATOM     16  C   UNL     1       6.704   5.775  18.051  0.00  0.00    +0.000 A 
ATOM     17  F   UNL     1       8.026   5.600  17.955  0.00  0.00    +0.000 F 
ATOM     18  C   UNL     1       6.004   5.186  19.098  0.00  0.00    +0.000 A 
ATOM     19  C   UNL     1       4.621   5.390  19.217  0.00  0.00    +0.000 A 
ENDBRANCH  12  13
ENDBRANCH  11  12
ENDBRANCH   9  11
ENDBRANCH   8   9
ENDBRANCH   1   2
BRANCH   1  20
ATOM     20  C   UNL     1       0.604  12.801  18.802  0.00  0.00    +0.000 C 
BRANCH  20  21
ATOM     21  C   UNL     1       1.952  13.250  18.252  0.00  0.00    +0.000 C 
BRANCH  21  22
ATOM     22  O   UNL     1       2.615  12.169  17.577  0.00  0.00    +0.000 OA
ATOM     23  H   UNL     1       2.993  11.585  18.256  0.00  0.00    +0.000 HD
ENDBRANCH  21  22
BRANCH  21  24
ATOM     24  C   UNL     1       2.847  13.890  19.323  0.00  0.00    +0.000 C 
BRANCH  24  28
ATOM     25  N   UNL     1       6.203  15.026  18.966  0.00  0.00    +0.000 N 
ATOM     26  C   UNL     1       5.521  15.035  20.266  0.00  0.00    +0.000 C 
ATOM     27  C   UNL     1       4.201  15.818  20.109  0.00  0.00    +0.000 C 
ATOM     28  N   UNL     1       3.287  15.285  19.067  0.00  0.00    +0.000 NA
ATOM     29  C   UNL     1       4.048  15.323  17.786  0.00  0.00    +0.000 C 
ATOM     30  C   UNL     1       5.400  14.563  17.820  0.00  0.00    +0.000 C 
BRANCH  25  36
ATOM     31  C   UNL     1      10.389  12.824  17.496  0.00  0.00    +0.000 C 
ATOM     32  C   UNL     1       9.691  13.926  18.231  0.00  0.00    +0.000 A 
ATOM     33  C   UNL     1      10.404  14.920  18.897  0.00  0.00    +0.000 A 
ATOM     34  C   UNL     1       9.732  15.941  19.562  0.00  0.00    +0.000 A 
ATOM     35  C   UNL     1       8.333  15.968  19.555  0.00  0.00    +0.000 A 
ATOM     36  C   UNL     1       7.580  14.984  18.896  0.00  0.00    +0.000 A 
ATOM     37  C   UNL     1       8.281  13.961  18.253  0.00  0.00    +0.000 A 
ENDBRANCH  25  36
ENDBRANCH  24  28
ENDBRANCH  21  24
ENDBRANCH  20  21
ENDBRANCH   1  20
TORSDOF 11
ENDMDL
MODEL 9
REMARK VINA RESULT:      -7.6      4.140     11.246
REMARK  Name = 
REMARK  12 active torsions:
REMARK  status: ('A' for Active; 'I' for Inactive)
REMARK    1  A    between atoms: C_1  and  C_2
REMARK    2  A    between atoms: C_6  and  N_7
REMARK    3  A    between atoms: N_10  and  C_11
REMARK    4  A    between atoms: C_11  and  C_12
REMARK    5  A    between atoms: C_12  and  O_13
REMARK    6  A    between atoms: C_12  and  C_14
REMARK    7  A    between atoms: C_14  and  O_15
REMARK    8  A    between atoms: O_15  and  C_16
REMARK    9  A    between atoms: C_22  and  C_23
REMARK   10  A    between atoms: C_23  and  C_25
REMARK   11  A    between atoms: C_25  and  C_26
REMARK   12  A    between atoms: C_26  and  C_27
REMARK                            x       y       z     vdW  Elec       q    Type
REMARK                         _______ _______ _______ _____ _____    ______ ____
ROOT
ATOM      1  O   UNL     1       1.191   7.579  20.723  0.00  0.00    +0.000 OA
ENDROOT
BRANCH   1   2
ATOM      2  C   UNL     1       1.178   8.842  20.191  0.00  0.00    +0.000 A 
ATOM      3  C   UNL     1       1.397   9.066  18.817  0.00  0.00    +0.000 A 
ATOM      4  C   UNL     1       1.460  10.353  18.298  0.00  0.00    +0.000 A 
ATOM      5  C   UNL     1       1.235  11.421  19.140  0.00  0.00    +0.000 A 
ATOM      6  F   UNL     1       1.279  12.665  18.643  0.00  0.00    +0.000 F 
ATOM      7  C   UNL     1       0.963  11.237  20.490  0.00  0.00    +0.000 A 
ATOM      8  C   UNL     1       0.939   9.947  21.043  0.00  0.00    +0.000 A 
BRANCH   8   9
ATOM      9  C   UNL     1       0.713   9.794  22.528  0.00  0.00    +0.000 C 
ATOM     10  O   UNL     1       1.617   9.388  23.258  0.00  0.00    +0.000 OA
BRANCH   9  11
ATOM     11  C   UNL     1      -0.621  10.222  23.150  0.00  0.00    +0.000 C 
BRANCH  11  12
ATOM     12  C   UNL     1      -1.347  11.285  22.323  0.00  0.00    +0.000 C 
BRANCH  12  13
ATOM     13  C   UNL     1      -1.936  12.462  23.079  0.00  0.00    +0.000 A 
ATOM     14  C   UNL     1      -3.248  12.350  23.575  0.00  0.00    +0.000 A 
ATOM     15  C   UNL     1      -3.814  13.361  24.358  0.00  0.00    +0.000 A 
ATOM     16  C   UNL     1      -3.068  14.491  24.657  0.00  0.00    +0.000 A 
ATOM     17  F   UNL     1      -3.596  15.448  25.429  0.00  0.00    +0.000 F 
ATOM     18  C   UNL     1      -1.767  14.626  24.185  0.00  0.00    +0.000 A 
ATOM     19  C   UNL     1      -1.200  13.613  23.398  0.00  0.00    +0.000 A 
ENDBRANCH  12  13
ENDBRANCH  11  12
ENDBRANCH   9  11
ENDBRANCH   8   9
ENDBRANCH   1   2
BRANCH   1  20
ATOM     20  C   UNL     1       2.353   6.786  20.468  0.00  0.00    +0.000 C 
BRANCH  20  21
ATOM     21  C   UNL     1       2.020   5.573  19.609  0.00  0.00    +0.000 C 
BRANCH  21  22
ATOM     22  O   UNL     1       2.067   4.366  20.387  0.00  0.00    +0.000 OA
ATOM     23  H   UNL     1       2.786   4.462  21.035  0.00  0.00    +0.000 HD
ENDBRANCH  21  22
BRANCH  21  24
ATOM     24  C   UNL     1       2.895   5.477  18.351  0.00  0.00    +0.000 C 
BRANCH  24  28
ATOM     25  N   UNL     1       5.362   4.808  15.872  0.00  0.00    +0.000 N 
ATOM     26  C   UNL     1       4.709   3.727  16.621  0.00  0.00    +0.000 C 
ATOM     27  C   UNL     1       4.887   4.012  18.127  0.00  0.00    +0.000 C 
ATOM     28  N   UNL     1       4.355   5.323  18.574  0.00  0.00    +0.000 NA
ATOM     29  C   UNL     1       5.075   6.359  17.780  0.00  0.00    +0.000 C 
ATOM     30  C   UNL     1       4.966   6.178  16.243  0.00  0.00    +0.000 C 
BRANCH  25  36
ATOM     31  C   UNL     1       5.369   2.415  11.535  0.00  0.00    +0.000 C 
ATOM     32  C   UNL     1       5.997   3.393  12.479  0.00  0.00    +0.000 A 
ATOM     33  C   UNL     1       7.172   4.065  12.152  0.00  0.00    +0.000 A 
ATOM     34  C   UNL     1       7.729   4.980  13.042  0.00  0.00    +0.000 A 
ATOM     35  C   UNL     1       7.098   5.227  14.266  0.00  0.00    +0.000 A 
ATOM     36  C   UNL     1       5.913   4.569  14.630  0.00  0.00    +0.000 A 
ATOM     37  C   UNL     1       5.388   3.642  13.727  0.00  0.00    +0.000 A 
ENDBRANCH  25  36
ENDBRANCH  24  28
ENDBRANCH  21  24
ENDBRANCH  20  21
ENDBRANCH   1  20
TORSDOF 11
ENDMDL
