MODEL 1
REMARK VINA RESULT:      -7.3      0.000      0.000
REMARK  Name = 
REMARK  18 active torsions:
REMARK  status: ('A' for Active; 'I' for Inactive)
REMARK    1  A    between atoms: N_2  and  C_4
REMARK    2  A    between atoms: C_7  and  C_8
REMARK    3  A    between atoms: C_8  and  O_9
REMARK    4  A    between atoms: O_9  and  C_10
REMARK    5  A    between atoms: C_10  and  C_11
REMARK    6  A    between atoms: C_10  and  C_23
REMARK    7  A    between atoms: C_11  and  O_12
REMARK    8  A    between atoms: C_11  and  C_13
REMARK    9  A    between atoms: C_13  and  S_14
REMARK   10  A    between atoms: C_16  and  O_17
REMARK   11  A    between atoms: C_18  and  O_19
REMARK   12  A    between atoms: C_20  and  C_21
REMARK   13  A    between atoms: C_21  and  O_22
REMARK   14  A    between atoms: C_23  and  O_24
REMARK   15  A    between atoms: C_23  and  C_25
REMARK   16  A    between atoms: C_25  and  O_26
REMARK   17  A    between atoms: C_25  and  C_27
REMARK   18  A    between atoms: C_27  and  O_28
REMARK                            x       y       z     vdW  Elec       q    Type
REMARK                         _______ _______ _______ _____ _____    ______ ____
ROOT
ATOM      1  C   UNL     1       3.187   4.105  18.977  0.00  0.00    +0.000 C 
ENDROOT
BRANCH   1   2
ATOM      2  C   UNL     1       4.716   3.906  18.701  0.00  0.00    +0.000 C 
BRANCH   2   3
ATOM      3  O   UNL     1       5.022   2.567  19.166  0.00  0.00    +0.000 OA
ATOM      4  H   UNL     1       5.924   2.610  19.532  0.00  0.00    +0.000 HD
ENDBRANCH   2   3
BRANCH   2   5
ATOM      5  C   UNL     1       5.777   4.852  19.326  0.00  0.00    +0.000 C 
BRANCH   5   6
ATOM      6  S   UNL     1       7.304   4.857  18.249  0.00  0.00    +0.000 S 
ATOM      7  C   UNL     1       7.851   6.567  18.450  0.00  0.00    +0.000 C 
ATOM      8  C   UNL     1       7.025   7.482  17.566  0.00  0.00    +0.000 C 
ATOM      9  C   UNL     1       6.629   6.706  16.304  0.00  0.00    +0.000 C 
ATOM     10  C   UNL     1       6.474   5.217  16.631  0.00  0.00    +0.000 C 
BRANCH   9  11
ATOM     11  O   UNL     1       5.395   7.202  15.765  0.00  0.00    +0.000 OA
ATOM     12  H   UNL     1       5.264   6.843  14.870  0.00  0.00    +0.000 HD
ENDBRANCH   9  11
BRANCH   8  13
ATOM     13  O   UNL     1       7.790   8.642  17.217  0.00  0.00    +0.000 OA
ATOM     14  H   UNL     1       7.648   8.840  16.273  0.00  0.00    +0.000 HD
ENDBRANCH   8  13
BRANCH  10  15
ATOM     15  C   UNL     1       7.157   4.373  15.541  0.00  0.00    +0.000 C 
BRANCH  15  16
ATOM     16  O   UNL     1       7.633   5.190  14.476  0.00  0.00    +0.000 OA
ATOM     17  H   UNL     1       8.380   4.714  14.060  0.00  0.00    +0.000 HD
ENDBRANCH  15  16
ENDBRANCH  10  15
ENDBRANCH   5   6
ENDBRANCH   2   5
ENDBRANCH   1   2
BRANCH   1  18
ATOM     18  C   UNL     1       2.377   2.859  19.426  0.00  0.00    +0.000 C 
BRANCH  18  19
ATOM     19  O   UNL     1       2.078   2.069  18.271  0.00  0.00    +0.000 OA
ATOM     20  H   UNL     1       1.343   2.450  17.763  0.00  0.00    +0.000 HD
ENDBRANCH  18  19
BRANCH  18  21
ATOM     21  C   UNL     1       1.147   3.143  20.296  0.00  0.00    +0.000 C 
BRANCH  21  22
ATOM     22  O   UNL     1      -0.055   2.618  19.716  0.00  0.00    +0.000 OA
ATOM     23  H   UNL     1      -0.246   1.762  20.132  0.00  0.00    +0.000 HD
ENDBRANCH  21  22
BRANCH  21  24
ATOM     24  C   UNL     1       1.289   2.524  21.694  0.00  0.00    +0.000 C 
BRANCH  24  25
ATOM     25  O   UNL     1       2.437   3.087  22.324  0.00  0.00    +0.000 OA
ATOM     26  H   UNL     1       2.526   2.633  23.184  0.00  0.00    +0.000 HD
ENDBRANCH  24  25
ENDBRANCH  21  24
ENDBRANCH  18  21
ENDBRANCH   1  18
BRANCH   1  27
ATOM     27  O   UNL     1       2.573   4.898  17.942  0.00  0.00    +0.000 OA
BRANCH  27  28
ATOM     28  C   UNL     1       3.110   6.226  17.743  0.00  0.00    +0.000 C 
BRANCH  28  32
ATOM     29  C   UNL     1       1.054   9.275  20.006  0.00  0.00    +0.000 A 
ATOM     30  C   UNL     1       1.466   8.086  20.640  0.00  0.00    +0.000 A 
ATOM     31  C   UNL     1       2.180   7.134  19.916  0.00  0.00    +0.000 A 
ATOM     32  C   UNL     1       2.448   7.323  18.552  0.00  0.00    +0.000 A 
ATOM     33  C   UNL     1       2.072   8.534  17.945  0.00  0.00    +0.000 A 
ATOM     34  C   UNL     1       1.377   9.508  18.670  0.00  0.00    +0.000 A 
BRANCH  29  36
ATOM     35  O   UNL     1       0.657  10.508  21.931  0.00  0.00    +0.000 OA
ATOM     36  N   UNL     1       0.285  10.258  20.775  0.00  0.00    +0.000 N 
ATOM     37  O   UNL     1      -0.692  10.783  20.224  0.00  0.00    +0.000 OA
ENDBRANCH  29  36
ENDBRANCH  28  32
ENDBRANCH  27  28
ENDBRANCH   1  27
TORSDOF 18
ENDMDL
MODEL 2
REMARK VINA RESULT:      -7.2      1.300      1.743
REMARK  Name = 
REMARK  18 active torsions:
REMARK  status: ('A' for Active; 'I' for Inactive)
REMARK    1  A    between atoms: N_2  and  C_4
REMARK    2  A    between atoms: C_7  and  C_8
REMARK    3  A    between atoms: C_8  and  O_9
REMARK    4  A    between atoms: O_9  and  C_10
REMARK    5  A    between atoms: C_10  and  C_11
REMARK    6  A    between atoms: C_10  and  C_23
REMARK    7  A    between atoms: C_11  and  O_12
REMARK    8  A    between atoms: C_11  and  C_13
REMARK    9  A    between atoms: C_13  and  S_14
REMARK   10  A    between atoms: C_16  and  O_17
REMARK   11  A    between atoms: C_18  and  O_19
REMARK   12  A    between atoms: C_20  and  C_21
REMARK   13  A    between atoms: C_21  and  O_22
REMARK   14  A    between atoms: C_23  and  O_24
REMARK   15  A    between atoms: C_23  and  C_25
REMARK   16  A    between atoms: C_25  and  O_26
REMARK   17  A    between atoms: C_25  and  C_27
REMARK   18  A    between atoms: C_27  and  O_28
REMARK                            x       y       z     vdW  Elec       q    Type
REMARK                         _______ _______ _______ _____ _____    ______ ____
ROOT
ATOM      1  C   UNL     1       3.027   4.422  18.371  0.00  0.00    +0.000 C 
ENDROOT
BRANCH   1   2
ATOM      2  C   UNL     1       4.468   3.959  17.968  0.00  0.00    +0.000 C 
BRANCH   2   3
ATOM      3  O   UNL     1       4.394   2.514  17.862  0.00  0.00    +0.000 OA
ATOM      4  H   UNL     1       3.908   2.331  17.037  0.00  0.00    +0.000 HD
ENDBRANCH   2   3
BRANCH   2   5
ATOM      5  C   UNL     1       5.697   4.283  18.860  0.00  0.00    +0.000 C 
BRANCH   5   6
ATOM      6  S   UNL     1       7.190   4.555  17.770  0.00  0.00    +0.000 S 
ATOM      7  C   UNL     1       7.616   6.257  18.204  0.00  0.00    +0.000 C 
ATOM      8  C   UNL     1       6.701   7.221  17.471  0.00  0.00    +0.000 C 
ATOM      9  C   UNL     1       6.331   6.602  16.118  0.00  0.00    +0.000 C 
ATOM     10  C   UNL     1       6.295   5.073  16.234  0.00  0.00    +0.000 C 
BRANCH   9  11
ATOM     11  O   UNL     1       5.050   7.072  15.674  0.00  0.00    +0.000 OA
ATOM     12  H   UNL     1       5.053   7.157  14.705  0.00  0.00    +0.000 HD
ENDBRANCH   9  11
BRANCH   8  13
ATOM     13  O   UNL     1       7.370   8.474  17.277  0.00  0.00    +0.000 OA
ATOM     14  H   UNL     1       8.030   8.590  17.985  0.00  0.00    +0.000 HD
ENDBRANCH   8  13
BRANCH  10  15
ATOM     15  C   UNL     1       7.008   4.445  15.024  0.00  0.00    +0.000 C 
BRANCH  15  16
ATOM     16  O   UNL     1       7.626   5.439  14.213  0.00  0.00    +0.000 OA
ATOM     17  H   UNL     1       7.308   6.308  14.529  0.00  0.00    +0.000 HD
ENDBRANCH  15  16
ENDBRANCH  10  15
ENDBRANCH   5   6
ENDBRANCH   2   5
ENDBRANCH   1   2
BRANCH   1  18
ATOM     18  C   UNL     1       1.838   3.552  17.884  0.00  0.00    +0.000 C 
BRANCH  18  19
ATOM     19  O   UNL     1       0.961   4.370  17.104  0.00  0.00    +0.000 OA
ATOM     20  H   UNL     1       0.183   4.643  17.617  0.00  0.00    +0.000 HD
ENDBRANCH  18  19
BRANCH  18  21
ATOM     21  C   UNL     1       1.108   2.755  18.972  0.00  0.00    +0.000 C 
BRANCH  21  22
ATOM     22  O   UNL     1       1.759   1.509  19.255  0.00  0.00    +0.000 OA
ATOM     23  H   UNL     1       2.381   1.319  18.534  0.00  0.00    +0.000 HD
ENDBRANCH  21  22
BRANCH  21  24
ATOM     24  C   UNL     1       1.028   3.539  20.289  0.00  0.00    +0.000 C 
BRANCH  24  25
ATOM     25  O   UNL     1       0.977   2.609  21.368  0.00  0.00    +0.000 OA
ATOM     26  H   UNL     1       1.819   2.114  21.340  0.00  0.00    +0.000 HD
ENDBRANCH  24  25
ENDBRANCH  21  24
ENDBRANCH  18  21
ENDBRANCH   1  18
BRANCH   1  27
ATOM     27  O   UNL     1       2.868   5.842  18.181  0.00  0.00    +0.000 OA
BRANCH  27  28
ATOM     28  C   UNL     1       2.745   6.642  19.379  0.00  0.00    +0.000 C 
BRANCH  28  32
ATOM     29  C   UNL     1       1.010  10.569  18.925  0.00  0.00    +0.000 A 
ATOM     30  C   UNL     1       1.754  10.003  17.872  0.00  0.00    +0.000 A 
ATOM     31  C   UNL     1       2.260   8.712  18.005  0.00  0.00    +0.000 A 
ATOM     32  C   UNL     1       2.081   7.992  19.195  0.00  0.00    +0.000 A 
ATOM     33  C   UNL     1       1.297   8.551  20.219  0.00  0.00    +0.000 A 
ATOM     34  C   UNL     1       0.762   9.837  20.084  0.00  0.00    +0.000 A 
BRANCH  29  36
ATOM     35  O   UNL     1       1.318  12.833  18.516  0.00  0.00    +0.000 OA
ATOM     36  N   UNL     1       0.501  11.937  18.778  0.00  0.00    +0.000 N 
ATOM     37  O   UNL     1      -0.715  12.117  18.925  0.00  0.00    +0.000 OA
ENDBRANCH  29  36
ENDBRANCH  28  32
ENDBRANCH  27  28
ENDBRANCH   1  27
TORSDOF 18
ENDMDL
MODEL 3
REMARK VINA RESULT:      -7.1      1.921      5.083
REMARK  Name = 
REMARK  18 active torsions:
REMARK  status: ('A' for Active; 'I' for Inactive)
REMARK    1  A    between atoms: N_2  and  C_4
REMARK    2  A    between atoms: C_7  and  C_8
REMARK    3  A    between atoms: C_8  and  O_9
REMARK    4  A    between atoms: O_9  and  C_10
REMARK    5  A    between atoms: C_10  and  C_11
REMARK    6  A    between atoms: C_10  and  C_23
REMARK    7  A    between atoms: C_11  and  O_12
REMARK    8  A    between atoms: C_11  and  C_13
REMARK    9  A    between atoms: C_13  and  S_14
REMARK   10  A    between atoms: C_16  and  O_17
REMARK   11  A    between atoms: C_18  and  O_19
REMARK   12  A    between atoms: C_20  and  C_21
REMARK   13  A    between atoms: C_21  and  O_22
REMARK   14  A    between atoms: C_23  and  O_24
REMARK   15  A    between atoms: C_23  and  C_25
REMARK   16  A    between atoms: C_25  and  O_26
REMARK   17  A    between atoms: C_25  and  C_27
REMARK   18  A    between atoms: C_27  and  O_28
REMARK                            x       y       z     vdW  Elec       q    Type
REMARK                         _______ _______ _______ _____ _____    ______ ____
ROOT
ATOM      1  C   UNL     1       4.603   5.680  16.951  0.00  0.00    +0.000 C 
ENDROOT
BRANCH   1   2
ATOM      2  C   UNL     1       4.616   4.119  17.077  0.00  0.00    +0.000 C 
BRANCH   2   3
ATOM      3  O   UNL     1       5.695   3.671  16.217  0.00  0.00    +0.000 OA
ATOM      4  H   UNL     1       6.510   3.753  16.746  0.00  0.00    +0.000 HD
ENDBRANCH   2   3
BRANCH   2   5
ATOM      5  C   UNL     1       3.368   3.271  16.710  0.00  0.00    +0.000 C 
BRANCH   5   6
ATOM      6  S   UNL     1       3.021   2.062  18.092  0.00  0.00    +0.000 S 
ATOM      7  C   UNL     1       1.370   2.596  18.598  0.00  0.00    +0.000 C 
ATOM      8  C   UNL     1       1.473   3.827  19.480  0.00  0.00    +0.000 C 
ATOM      9  C   UNL     1       2.780   3.741  20.278  0.00  0.00    +0.000 C 
ATOM     10  C   UNL     1       3.844   2.997  19.463  0.00  0.00    +0.000 C 
BRANCH   9  11
ATOM     11  O   UNL     1       3.266   5.052  20.604  0.00  0.00    +0.000 OA
ATOM     12  H   UNL     1       3.330   5.143  21.571  0.00  0.00    +0.000 HD
ENDBRANCH   9  11
BRANCH   8  13
ATOM     13  O   UNL     1       0.351   3.883  20.369  0.00  0.00    +0.000 OA
ATOM     14  H   UNL     1      -0.060   3.001  20.413  0.00  0.00    +0.000 HD
ENDBRANCH   8  13
BRANCH  10  15
ATOM     15  C   UNL     1       4.575   1.988  20.365  0.00  0.00    +0.000 C 
BRANCH  15  16
ATOM     16  O   UNL     1       3.944   1.877  21.636  0.00  0.00    +0.000 OA
ATOM     17  H   UNL     1       3.138   1.338  21.512  0.00  0.00    +0.000 HD
ENDBRANCH  15  16
ENDBRANCH  10  15
ENDBRANCH   5   6
ENDBRANCH   2   5
ENDBRANCH   1   2
BRANCH   1  18
ATOM     18  C   UNL     1       5.960   6.417  17.102  0.00  0.00    +0.000 C 
BRANCH  18  19
ATOM     19  O   UNL     1       6.819   6.017  16.030  0.00  0.00    +0.000 OA
ATOM     20  H   UNL     1       7.079   6.775  15.483  0.00  0.00    +0.000 HD
ENDBRANCH  18  19
BRANCH  18  21
ATOM     21  C   UNL     1       6.627   6.308  18.479  0.00  0.00    +0.000 C 
BRANCH  21  22
ATOM     22  O   UNL     1       5.824   5.569  19.409  0.00  0.00    +0.000 OA
ATOM     23  H   UNL     1       5.439   4.809  18.942  0.00  0.00    +0.000 HD
ENDBRANCH  21  22
BRANCH  21  24
ATOM     24  C   UNL     1       7.990   5.607  18.393  0.00  0.00    +0.000 C 
BRANCH  24  25
ATOM     25  O   UNL     1       7.770   4.211  18.205  0.00  0.00    +0.000 OA
ATOM     26  H   UNL     1       8.197   3.764  18.961  0.00  0.00    +0.000 HD
ENDBRANCH  24  25
ENDBRANCH  21  24
ENDBRANCH  18  21
ENDBRANCH   1  18
BRANCH   1  27
ATOM     27  O   UNL     1       3.508   6.249  17.695  0.00  0.00    +0.000 OA
BRANCH  27  28
ATOM     28  C   UNL     1       3.084   7.576  17.305  0.00  0.00    +0.000 C 
BRANCH  28  32
ATOM     29  C   UNL     1       0.768   9.744  20.233  0.00  0.00    +0.000 A 
ATOM     30  C   UNL     1       0.935  10.271  18.937  0.00  0.00    +0.000 A 
ATOM     31  C   UNL     1       1.634   9.537  17.982  0.00  0.00    +0.000 A 
ATOM     32  C   UNL     1       2.217   8.304  18.311  0.00  0.00    +0.000 A 
ATOM     33  C   UNL     1       2.002   7.770  19.594  0.00  0.00    +0.000 A 
ATOM     34  C   UNL     1       1.279   8.488  20.552  0.00  0.00    +0.000 A 
BRANCH  29  36
ATOM     35  O   UNL     1      -1.001  11.099  20.881  0.00  0.00    +0.000 OA
ATOM     36  N   UNL     1       0.047  10.538  21.233  0.00  0.00    +0.000 N 
ATOM     37  O   UNL     1       0.529  10.602  22.373  0.00  0.00    +0.000 OA
ENDBRANCH  29  36
ENDBRANCH  28  32
ENDBRANCH  27  28
ENDBRANCH   1  27
TORSDOF 18
ENDMDL
MODEL 4
REMARK VINA RESULT:      -7.1      1.821      5.317
REMARK  Name = 
REMARK  18 active torsions:
REMARK  status: ('A' for Active; 'I' for Inactive)
REMARK    1  A    between atoms: N_2  and  C_4
REMARK    2  A    between atoms: C_7  and  C_8
REMARK    3  A    between atoms: C_8  and  O_9
REMARK    4  A    between atoms: O_9  and  C_10
REMARK    5  A    between atoms: C_10  and  C_11
REMARK    6  A    between atoms: C_10  and  C_23
REMARK    7  A    between atoms: C_11  and  O_12
REMARK    8  A    between atoms: C_11  and  C_13
REMARK    9  A    between atoms: C_13  and  S_14
REMARK   10  A    between atoms: C_16  and  O_17
REMARK   11  A    between atoms: C_18  and  O_19
REMARK   12  A    between atoms: C_20  and  C_21
REMARK   13  A    between atoms: C_21  and  O_22
REMARK   14  A    between atoms: C_23  and  O_24
REMARK   15  A    between atoms: C_23  and  C_25
REMARK   16  A    between atoms: C_25  and  O_26
REMARK   17  A    between atoms: C_25  and  C_27
REMARK   18  A    between atoms: C_27  and  O_28
REMARK                            x       y       z     vdW  Elec       q    Type
REMARK                         _______ _______ _______ _____ _____    ______ ____
ROOT
ATOM      1  C   UNL     1       5.043   5.260  17.451  0.00  0.00    +0.000 C 
ENDROOT
BRANCH   1   2
ATOM      2  C   UNL     1       4.563   3.960  16.722  0.00  0.00    +0.000 C 
BRANCH   2   3
ATOM      3  O   UNL     1       5.030   4.088  15.354  0.00  0.00    +0.000 OA
ATOM      4  H   UNL     1       5.844   3.554  15.299  0.00  0.00    +0.000 HD
ENDBRANCH   2   3
BRANCH   2   5
ATOM      5  C   UNL     1       3.057   3.587  16.649  0.00  0.00    +0.000 C 
BRANCH   5   6
ATOM      6  S   UNL     1       2.721   2.164  17.812  0.00  0.00    +0.000 S 
ATOM      7  C   UNL     1       1.174   2.710  18.571  0.00  0.00    +0.000 C 
ATOM      8  C   UNL     1       1.462   3.738  19.650  0.00  0.00    +0.000 C 
ATOM      9  C   UNL     1       2.819   3.406  20.283  0.00  0.00    +0.000 C 
ATOM     10  C   UNL     1       3.739   2.757  19.242  0.00  0.00    +0.000 C 
BRANCH   9  11
ATOM     11  O   UNL     1       3.448   4.591  20.794  0.00  0.00    +0.000 OA
ATOM     12  H   UNL     1       3.028   4.844  21.635  0.00  0.00    +0.000 HD
ENDBRANCH   9  11
BRANCH   8  13
ATOM     13  O   UNL     1       0.429   3.704  20.642  0.00  0.00    +0.000 OA
ATOM     14  H   UNL     1       0.513   2.880  21.155  0.00  0.00    +0.000 HD
ENDBRANCH   8  13
BRANCH  10  15
ATOM     15  C   UNL     1       4.449   1.543  19.864  0.00  0.00    +0.000 C 
BRANCH  15  16
ATOM     16  O   UNL     1       5.127   1.898  21.066  0.00  0.00    +0.000 OA
ATOM     17  H   UNL     1       4.495   1.772  21.801  0.00  0.00    +0.000 HD
ENDBRANCH  15  16
ENDBRANCH  10  15
ENDBRANCH   5   6
ENDBRANCH   2   5
ENDBRANCH   1   2
BRANCH   1  18
ATOM     18  C   UNL     1       6.352   5.167  18.280  0.00  0.00    +0.000 C 
BRANCH  18  19
ATOM     19  O   UNL     1       6.082   5.617  19.611  0.00  0.00    +0.000 OA
ATOM     20  H   UNL     1       6.879   5.978  20.032  0.00  0.00    +0.000 HD
ENDBRANCH  18  19
BRANCH  18  21
ATOM     21  C   UNL     1       7.583   5.837  17.658  0.00  0.00    +0.000 C 
BRANCH  21  22
ATOM     22  O   UNL     1       7.447   6.000  16.239  0.00  0.00    +0.000 OA
ATOM     23  H   UNL     1       7.494   5.122  15.826  0.00  0.00    +0.000 HD
ENDBRANCH  21  22
BRANCH  21  24
ATOM     24  C   UNL     1       7.832   7.229  18.256  0.00  0.00    +0.000 C 
BRANCH  24  25
ATOM     25  O   UNL     1       7.719   8.196  17.216  0.00  0.00    +0.000 OA
ATOM     26  H   UNL     1       7.726   7.695  16.377  0.00  0.00    +0.000 HD
ENDBRANCH  24  25
ENDBRANCH  21  24
ENDBRANCH  18  21
ENDBRANCH   1  18
BRANCH   1  27
ATOM     27  O   UNL     1       3.944   5.921  18.108  0.00  0.00    +0.000 OA
BRANCH  27  28
ATOM     28  C   UNL     1       3.601   7.239  17.622  0.00  0.00    +0.000 C 
BRANCH  28  32
ATOM     29  C   UNL     1       0.668   9.419  19.920  0.00  0.00    +0.000 A 
ATOM     30  C   UNL     1       0.941   9.795  18.591  0.00  0.00    +0.000 A 
ATOM     31  C   UNL     1       1.846   9.050  17.838  0.00  0.00    +0.000 A 
ATOM     32  C   UNL     1       2.525   7.962  18.406  0.00  0.00    +0.000 A 
ATOM     33  C   UNL     1       2.208   7.570  19.718  0.00  0.00    +0.000 A 
ATOM     34  C   UNL     1       1.281   8.297  20.473  0.00  0.00    +0.000 A 
BRANCH  29  36
ATOM     35  O   UNL     1      -0.904  11.114  20.118  0.00  0.00    +0.000 OA
ATOM     36  N   UNL     1      -0.271  10.226  20.706  0.00  0.00    +0.000 N 
ATOM     37  O   UNL     1      -0.376   9.972  21.914  0.00  0.00    +0.000 OA
ENDBRANCH  29  36
ENDBRANCH  28  32
ENDBRANCH  27  28
ENDBRANCH   1  27
TORSDOF 18
ENDMDL
MODEL 5
REMARK VINA RESULT:      -7.1      1.864      5.221
REMARK  Name = 
REMARK  18 active torsions:
REMARK  status: ('A' for Active; 'I' for Inactive)
REMARK    1  A    between atoms: N_2  and  C_4
REMARK    2  A    between atoms: C_7  and  C_8
REMARK    3  A    between atoms: C_8  and  O_9
REMARK    4  A    between atoms: O_9  and  C_10
REMARK    5  A    between atoms: C_10  and  C_11
REMARK    6  A    between atoms: C_10  and  C_23
REMARK    7  A    between atoms: C_11  and  O_12
REMARK    8  A    between atoms: C_11  and  C_13
REMARK    9  A    between atoms: C_13  and  S_14
REMARK   10  A    between atoms: C_16  and  O_17
REMARK   11  A    between atoms: C_18  and  O_19
REMARK   12  A    between atoms: C_20  and  C_21
REMARK   13  A    between atoms: C_21  and  O_22
REMARK   14  A    between atoms: C_23  and  O_24
REMARK   15  A    between atoms: C_23  and  C_25
REMARK   16  A    between atoms: C_25  and  O_26
REMARK   17  A    between atoms: C_25  and  C_27
REMARK   18  A    between atoms: C_27  and  O_28
REMARK                            x       y       z     vdW  Elec       q    Type
REMARK                         _______ _______ _______ _____ _____    ______ ____
ROOT
ATOM      1  C   UNL     1       5.080   5.672  17.291  0.00  0.00    +0.000 C 
ENDROOT
BRANCH   1   2
ATOM      2  C   UNL     1       4.754   4.205  16.852  0.00  0.00    +0.000 C 
BRANCH   2   3
ATOM      3  O   UNL     1       5.357   4.050  15.542  0.00  0.00    +0.000 OA
ATOM      4  H   UNL     1       4.736   3.504  15.024  0.00  0.00    +0.000 HD
ENDBRANCH   2   3
BRANCH   2   5
ATOM      5  C   UNL     1       3.289   3.706  16.734  0.00  0.00    +0.000 C 
BRANCH   5   6
ATOM      6  S   UNL     1       3.047   2.239  17.867  0.00  0.00    +0.000 S 
ATOM      7  C   UNL     1       1.362   2.538  18.448  0.00  0.00    +0.000 C 
ATOM      8  C   UNL     1       1.371   3.590  19.542  0.00  0.00    +0.000 C 
ATOM      9  C   UNL     1       2.685   3.463  20.322  0.00  0.00    +0.000 C 
ATOM     10  C   UNL     1       3.801   2.969  19.394  0.00  0.00    +0.000 C 
BRANCH   9  11
ATOM     11  O   UNL     1       3.066   4.726  20.888  0.00  0.00    +0.000 OA
ATOM     12  H   UNL     1       2.415   4.990  21.561  0.00  0.00    +0.000 HD
ENDBRANCH   9  11
BRANCH   8  13
ATOM     13  O   UNL     1       0.253   3.391  20.416  0.00  0.00    +0.000 OA
ATOM     14  H   UNL     1      -0.455   4.012  20.166  0.00  0.00    +0.000 HD
ENDBRANCH   8  13
BRANCH  10  15
ATOM     15  C   UNL     1       4.616   1.873  20.101  0.00  0.00    +0.000 C 
BRANCH  15  16
ATOM     16  O   UNL     1       4.730   0.707  19.291  0.00  0.00    +0.000 OA
ATOM     17  H   UNL     1       5.288   0.071  19.779  0.00  0.00    +0.000 HD
ENDBRANCH  15  16
ENDBRANCH  10  15
ENDBRANCH   5   6
ENDBRANCH   2   5
ENDBRANCH   1   2
BRANCH   1  18
ATOM     18  C   UNL     1       6.567   6.017  17.571  0.00  0.00    +0.000 C 
BRANCH  18  19
ATOM     19  O   UNL     1       7.244   6.173  16.320  0.00  0.00    +0.000 OA
ATOM     20  H   UNL     1       6.792   5.689  15.610  0.00  0.00    +0.000 HD
ENDBRANCH  18  19
BRANCH  18  21
ATOM     21  C   UNL     1       7.298   5.076  18.537  0.00  0.00    +0.000 C 
BRANCH  21  22
ATOM     22  O   UNL     1       8.145   4.148  17.847  0.00  0.00    +0.000 OA
ATOM     23  H   UNL     1       9.044   4.232  18.204  0.00  0.00    +0.000 HD
ENDBRANCH  21  22
BRANCH  21  24
ATOM     24  C   UNL     1       8.180   5.854  19.524  0.00  0.00    +0.000 C 
BRANCH  24  25
ATOM     25  O   UNL     1       8.440   7.145  18.979  0.00  0.00    +0.000 OA
ATOM     26  H   UNL     1       7.591   7.463  18.615  0.00  0.00    +0.000 HD
ENDBRANCH  24  25
ENDBRANCH  21  24
ENDBRANCH  18  21
ENDBRANCH   1  18
BRANCH   1  27
ATOM     27  O   UNL     1       4.144   6.136  18.283  0.00  0.00    +0.000 OA
BRANCH  27  28
ATOM     28  C   UNL     1       2.832   6.511  17.806  0.00  0.00    +0.000 C 
BRANCH  28  32
ATOM     29  C   UNL     1       1.076   9.783  20.008  0.00  0.00    +0.000 A 
ATOM     30  C   UNL     1       1.168   9.850  18.604  0.00  0.00    +0.000 A 
ATOM     31  C   UNL     1       1.682   8.765  17.898  0.00  0.00    +0.000 A 
ATOM     32  C   UNL     1       2.156   7.630  18.572  0.00  0.00    +0.000 A 
ATOM     33  C   UNL     1       2.013   7.558  19.969  0.00  0.00    +0.000 A 
ATOM     34  C   UNL     1       1.475   8.632  20.685  0.00  0.00    +0.000 A 
BRANCH  29  36
ATOM     35  O   UNL     1      -0.676  11.019  20.895  0.00  0.00    +0.000 OA
ATOM     36  N   UNL     1       0.551  10.941  20.740  0.00  0.00    +0.000 N 
ATOM     37  O   UNL     1       1.366  11.773  21.160  0.00  0.00    +0.000 OA
ENDBRANCH  29  36
ENDBRANCH  28  32
ENDBRANCH  27  28
ENDBRANCH   1  27
TORSDOF 18
ENDMDL
MODEL 6
REMARK VINA RESULT:      -6.9      1.865      5.232
REMARK  Name = 
REMARK  18 active torsions:
REMARK  status: ('A' for Active; 'I' for Inactive)
REMARK    1  A    between atoms: N_2  and  C_4
REMARK    2  A    between atoms: C_7  and  C_8
REMARK    3  A    between atoms: C_8  and  O_9
REMARK    4  A    between atoms: O_9  and  C_10
REMARK    5  A    between atoms: C_10  and  C_11
REMARK    6  A    between atoms: C_10  and  C_23
REMARK    7  A    between atoms: C_11  and  O_12
REMARK    8  A    between atoms: C_11  and  C_13
REMARK    9  A    between atoms: C_13  and  S_14
REMARK   10  A    between atoms: C_16  and  O_17
REMARK   11  A    between atoms: C_18  and  O_19
REMARK   12  A    between atoms: C_20  and  C_21
REMARK   13  A    between atoms: C_21  and  O_22
REMARK   14  A    between atoms: C_23  and  O_24
REMARK   15  A    between atoms: C_23  and  C_25
REMARK   16  A    between atoms: C_25  and  O_26
REMARK   17  A    between atoms: C_25  and  C_27
REMARK   18  A    between atoms: C_27  and  O_28
REMARK                            x       y       z     vdW  Elec       q    Type
REMARK                         _______ _______ _______ _____ _____    ______ ____
ROOT
ATOM      1  C   UNL     1       4.472   5.299  16.684  0.00  0.00    +0.000 C 
ENDROOT
BRANCH   1   2
ATOM      2  C   UNL     1       4.444   3.768  17.010  0.00  0.00    +0.000 C 
BRANCH   2   3
ATOM      3  O   UNL     1       5.488   3.180  16.192  0.00  0.00    +0.000 OA
ATOM      4  H   UNL     1       6.085   2.719  16.810  0.00  0.00    +0.000 HD
ENDBRANCH   2   3
BRANCH   2   5
ATOM      5  C   UNL     1       3.164   2.919  16.784  0.00  0.00    +0.000 C 
BRANCH   5   6
ATOM      6  S   UNL     1       2.822   1.906  18.317  0.00  0.00    +0.000 S 
ATOM      7  C   UNL     1       1.233   2.600  18.829  0.00  0.00    +0.000 C 
ATOM      8  C   UNL     1       1.453   3.918  19.549  0.00  0.00    +0.000 C 
ATOM      9  C   UNL     1       2.793   3.845  20.292  0.00  0.00    +0.000 C 
ATOM     10  C   UNL     1       3.768   2.944  19.525  0.00  0.00    +0.000 C 
BRANCH   9  11
ATOM     11  O   UNL     1       3.370   5.152  20.433  0.00  0.00    +0.000 OA
ATOM     12  H   UNL     1       3.858   5.381  19.623  0.00  0.00    +0.000 HD
ENDBRANCH   9  11
BRANCH   8  13
ATOM     13  O   UNL     1       0.384   4.150  20.475  0.00  0.00    +0.000 OA
ATOM     14  H   UNL     1      -0.136   3.331  20.567  0.00  0.00    +0.000 HD
ENDBRANCH   8  13
BRANCH  10  15
ATOM     15  C   UNL     1       4.487   2.005  20.509  0.00  0.00    +0.000 C 
BRANCH  15  16
ATOM     16  O   UNL     1       3.788   1.917  21.746  0.00  0.00    +0.000 OA
ATOM     17  H   UNL     1       4.129   2.629  22.322  0.00  0.00    +0.000 HD
ENDBRANCH  15  16
ENDBRANCH  10  15
ENDBRANCH   5   6
ENDBRANCH   2   5
ENDBRANCH   1   2
BRANCH   1  18
ATOM     18  C   UNL     1       5.863   5.973  16.548  0.00  0.00    +0.000 C 
BRANCH  18  19
ATOM     19  O   UNL     1       6.340   5.772  15.214  0.00  0.00    +0.000 OA
ATOM     20  H   UNL     1       5.655   5.980  14.559  0.00  0.00    +0.000 HD
ENDBRANCH  18  19
BRANCH  18  21
ATOM     21  C   UNL     1       6.893   5.593  17.619  0.00  0.00    +0.000 C 
BRANCH  21  22
ATOM     22  O   UNL     1       7.818   4.603  17.148  0.00  0.00    +0.000 OA
ATOM     23  H   UNL     1       7.701   3.799  17.679  0.00  0.00    +0.000 HD
ENDBRANCH  21  22
BRANCH  21  24
ATOM     24  C   UNL     1       7.715   6.810  18.069  0.00  0.00    +0.000 C 
BRANCH  24  25
ATOM     25  O   UNL     1       7.718   7.769  17.015  0.00  0.00    +0.000 OA
ATOM     26  H   UNL     1       7.612   7.263  16.186  0.00  0.00    +0.000 HD
ENDBRANCH  24  25
ENDBRANCH  21  24
ENDBRANCH  18  21
ENDBRANCH   1  18
BRANCH   1  27
ATOM     27  O   UNL     1       3.517   6.017  17.491  0.00  0.00    +0.000 OA
BRANCH  27  28
ATOM     28  C   UNL     1       3.830   7.397  17.784  0.00  0.00    +0.000 C 
BRANCH  28  32
ATOM     29  C   UNL     1       0.468   9.593  19.370  0.00  0.00    +0.000 A 
ATOM     30  C   UNL     1       1.095   8.605  20.153  0.00  0.00    +0.000 A 
ATOM     31  C   UNL     1       2.215   7.942  19.656  0.00  0.00    +0.000 A 
ATOM     32  C   UNL     1       2.693   8.213  18.365  0.00  0.00    +0.000 A 
ATOM     33  C   UNL     1       2.087   9.235  17.614  0.00  0.00    +0.000 A 
ATOM     34  C   UNL     1       0.977   9.924  18.115  0.00  0.00    +0.000 A 
BRANCH  29  36
ATOM     35  O   UNL     1      -0.745  10.538  21.108  0.00  0.00    +0.000 OA
ATOM     36  N   UNL     1      -0.722  10.267  19.898  0.00  0.00    +0.000 N 
ATOM     37  O   UNL     1      -1.637  10.526  19.105  0.00  0.00    +0.000 OA
ENDBRANCH  29  36
ENDBRANCH  28  32
ENDBRANCH  27  28
ENDBRANCH   1  27
TORSDOF 18
ENDMDL
MODEL 7
REMARK VINA RESULT:      -6.9      1.259      1.561
REMARK  Name = 
REMARK  18 active torsions:
REMARK  status: ('A' for Active; 'I' for Inactive)
REMARK    1  A    between atoms: N_2  and  C_4
REMARK    2  A    between atoms: C_7  and  C_8
REMARK    3  A    between atoms: C_8  and  O_9
REMARK    4  A    between atoms: O_9  and  C_10
REMARK    5  A    between atoms: C_10  and  C_11
REMARK    6  A    between atoms: C_10  and  C_23
REMARK    7  A    between atoms: C_11  and  O_12
REMARK    8  A    between atoms: C_11  and  C_13
REMARK    9  A    between atoms: C_13  and  S_14
REMARK   10  A    between atoms: C_16  and  O_17
REMARK   11  A    between atoms: C_18  and  O_19
REMARK   12  A    between atoms: C_20  and  C_21
REMARK   13  A    between atoms: C_21  and  O_22
REMARK   14  A    between atoms: C_23  and  O_24
REMARK   15  A    between atoms: C_23  and  C_25
REMARK   16  A    between atoms: C_25  and  O_26
REMARK   17  A    between atoms: C_25  and  C_27
REMARK   18  A    between atoms: C_27  and  O_28
REMARK                            x       y       z     vdW  Elec       q    Type
REMARK                         _______ _______ _______ _____ _____    ______ ____
ROOT
ATOM      1  C   UNL     1       3.307   4.152  18.746  0.00  0.00    +0.000 C 
ENDROOT
BRANCH   1   2
ATOM      2  C   UNL     1       4.815   3.731  18.689  0.00  0.00    +0.000 C 
BRANCH   2   3
ATOM      3  O   UNL     1       4.883   2.446  19.361  0.00  0.00    +0.000 OA
ATOM      4  H   UNL     1       5.771   2.091  19.170  0.00  0.00    +0.000 HD
ENDBRANCH   2   3
BRANCH   2   5
ATOM      5  C   UNL     1       5.924   4.622  19.312  0.00  0.00    +0.000 C 
BRANCH   5   6
ATOM      6  S   UNL     1       7.339   4.773  18.102  0.00  0.00    +0.000 S 
ATOM      7  C   UNL     1       7.780   6.513  18.316  0.00  0.00    +0.000 C 
ATOM      8  C   UNL     1       6.811   7.390  17.545  0.00  0.00    +0.000 C 
ATOM      9  C   UNL     1       6.356   6.626  16.296  0.00  0.00    +0.000 C 
ATOM     10  C   UNL     1       6.339   5.119  16.581  0.00  0.00    +0.000 C 
BRANCH   9  11
ATOM     11  O   UNL     1       5.045   7.044  15.890  0.00  0.00    +0.000 OA
ATOM     12  H   UNL     1       4.939   7.996  16.064  0.00  0.00    +0.000 HD
ENDBRANCH   9  11
BRANCH   8  13
ATOM     13  O   UNL     1       7.455   8.614  17.171  0.00  0.00    +0.000 OA
ATOM     14  H   UNL     1       6.877   9.099  16.556  0.00  0.00    +0.000 HD
ENDBRANCH   8  13
BRANCH  10  15
ATOM     15  C   UNL     1       6.976   4.362  15.402  0.00  0.00    +0.000 C 
BRANCH  15  16
ATOM     16  O   UNL     1       6.099   3.362  14.895  0.00  0.00    +0.000 OA
ATOM     17  H   UNL     1       5.252   3.450  15.374  0.00  0.00    +0.000 HD
ENDBRANCH  15  16
ENDBRANCH  10  15
ENDBRANCH   5   6
ENDBRANCH   2   5
ENDBRANCH   1   2
BRANCH   1  18
ATOM     18  C   UNL     1       2.321   3.388  17.822  0.00  0.00    +0.000 C 
BRANCH  18  19
ATOM     19  O   UNL     1       1.554   4.344  17.083  0.00  0.00    +0.000 OA
ATOM     20  H   UNL     1       2.108   5.079  16.773  0.00  0.00    +0.000 HD
ENDBRANCH  18  19
BRANCH  18  21
ATOM     21  C   UNL     1       1.456   2.324  18.507  0.00  0.00    +0.000 C 
BRANCH  21  22
ATOM     22  O   UNL     1       2.249   1.344  19.190  0.00  0.00    +0.000 OA
ATOM     23  H   UNL     1       2.425   0.612  18.577  0.00  0.00    +0.000 HD
ENDBRANCH  21  22
BRANCH  21  24
ATOM     24  C   UNL     1       0.508   2.947  19.542  0.00  0.00    +0.000 C 
BRANCH  24  25
ATOM     25  O   UNL     1       1.031   2.698  20.843  0.00  0.00    +0.000 OA
ATOM     26  H   UNL     1       1.384   3.551  21.163  0.00  0.00    +0.000 HD
ENDBRANCH  24  25
ENDBRANCH  21  24
ENDBRANCH  18  21
ENDBRANCH   1  18
BRANCH   1  27
ATOM     27  O   UNL     1       3.171   5.586  18.739  0.00  0.00    +0.000 OA
BRANCH  27  28
ATOM     28  C   UNL     1       2.503   6.175  19.879  0.00  0.00    +0.000 C 
BRANCH  28  32
ATOM     29  C   UNL     1       0.912  10.141  19.261  0.00  0.00    +0.000 A 
ATOM     30  C   UNL     1       0.801   9.527  20.524  0.00  0.00    +0.000 A 
ATOM     31  C   UNL     1       1.369   8.272  20.730  0.00  0.00    +0.000 A 
ATOM     32  C   UNL     1       2.004   7.592  19.681  0.00  0.00    +0.000 A 
ATOM     33  C   UNL     1       2.149   8.236  18.440  0.00  0.00    +0.000 A 
ATOM     34  C   UNL     1       1.605   9.507  18.231  0.00  0.00    +0.000 A 
BRANCH  29  36
ATOM     35  O   UNL     1       0.978  12.340  18.523  0.00  0.00    +0.000 OA
ATOM     36  N   UNL     1       0.292  11.453  19.053  0.00  0.00    +0.000 N 
ATOM     37  O   UNL     1      -0.882  11.599  19.420  0.00  0.00    +0.000 OA
ENDBRANCH  29  36
ENDBRANCH  28  32
ENDBRANCH  27  28
ENDBRANCH   1  27
TORSDOF 18
ENDMDL
MODEL 8
REMARK VINA RESULT:      -6.9      1.735      2.826
REMARK  Name = 
REMARK  18 active torsions:
REMARK  status: ('A' for Active; 'I' for Inactive)
REMARK    1  A    between atoms: N_2  and  C_4
REMARK    2  A    between atoms: C_7  and  C_8
REMARK    3  A    between atoms: C_8  and  O_9
REMARK    4  A    between atoms: O_9  and  C_10
REMARK    5  A    between atoms: C_10  and  C_11
REMARK    6  A    between atoms: C_10  and  C_23
REMARK    7  A    between atoms: C_11  and  O_12
REMARK    8  A    between atoms: C_11  and  C_13
REMARK    9  A    between atoms: C_13  and  S_14
REMARK   10  A    between atoms: C_16  and  O_17
REMARK   11  A    between atoms: C_18  and  O_19
REMARK   12  A    between atoms: C_20  and  C_21
REMARK   13  A    between atoms: C_21  and  O_22
REMARK   14  A    between atoms: C_23  and  O_24
REMARK   15  A    between atoms: C_23  and  C_25
REMARK   16  A    between atoms: C_25  and  O_26
REMARK   17  A    between atoms: C_25  and  C_27
REMARK   18  A    between atoms: C_27  and  O_28
REMARK                            x       y       z     vdW  Elec       q    Type
REMARK                         _______ _______ _______ _____ _____    ______ ____
ROOT
ATOM      1  C   UNL     1       2.833   5.352  19.634  0.00  0.00    +0.000 C 
ENDROOT
BRANCH   1   2
ATOM      2  C   UNL     1       2.744   5.513  18.079  0.00  0.00    +0.000 C 
BRANCH   2   3
ATOM      3  O   UNL     1       1.552   4.787  17.682  0.00  0.00    +0.000 OA
ATOM      4  H   UNL     1       1.218   4.359  18.492  0.00  0.00    +0.000 HD
ENDBRANCH   2   3
BRANCH   2   5
ATOM      5  C   UNL     1       3.893   5.032  17.152  0.00  0.00    +0.000 C 
BRANCH   5   6
ATOM      6  S   UNL     1       4.982   6.486  16.720  0.00  0.00    +0.000 S 
ATOM      7  C   UNL     1       5.558   5.998  15.077  0.00  0.00    +0.000 C 
ATOM      8  C   UNL     1       6.680   4.984  15.203  0.00  0.00    +0.000 C 
ATOM      9  C   UNL     1       7.468   5.292  16.482  0.00  0.00    +0.000 C 
ATOM     10  C   UNL     1       6.535   5.895  17.540  0.00  0.00    +0.000 C 
BRANCH   9  11
ATOM     11  O   UNL     1       8.071   4.101  17.010  0.00  0.00    +0.000 OA
ATOM     12  H   UNL     1       9.036   4.220  17.056  0.00  0.00    +0.000 HD
ENDBRANCH   9  11
BRANCH   8  13
ATOM     13  O   UNL     1       7.540   5.066  14.059  0.00  0.00    +0.000 OA
ATOM     14  H   UNL     1       6.991   5.168  13.261  0.00  0.00    +0.000 HD
ENDBRANCH   8  13
BRANCH  10  15
ATOM     15  C   UNL     1       7.219   7.102  18.205  0.00  0.00    +0.000 C 
BRANCH  15  16
ATOM     16  O   UNL     1       7.662   8.047  17.237  0.00  0.00    +0.000 OA
ATOM     17  H   UNL     1       8.626   8.153  17.357  0.00  0.00    +0.000 HD
ENDBRANCH  15  16
ENDBRANCH  10  15
ENDBRANCH   5   6
ENDBRANCH   2   5
ENDBRANCH   1   2
BRANCH   1  18
ATOM     18  C   UNL     1       2.676   3.919  20.210  0.00  0.00    +0.000 C 
BRANCH  18  19
ATOM     19  O   UNL     1       3.030   2.976  19.194  0.00  0.00    +0.000 OA
ATOM     20  H   UNL     1       2.366   2.272  19.117  0.00  0.00    +0.000 HD
ENDBRANCH  18  19
BRANCH  18  21
ATOM     21  C   UNL     1       1.327   3.612  20.872  0.00  0.00    +0.000 C 
BRANCH  21  22
ATOM     22  O   UNL     1       0.347   3.180  19.919  0.00  0.00    +0.000 OA
ATOM     23  H   UNL     1       0.320   3.826  19.194  0.00  0.00    +0.000 HD
ENDBRANCH  21  22
BRANCH  21  24
ATOM     24  C   UNL     1       1.456   2.506  21.929  0.00  0.00    +0.000 C 
BRANCH  24  25
ATOM     25  O   UNL     1       2.837   2.194  22.092  0.00  0.00    +0.000 OA
ATOM     26  H   UNL     1       2.908   1.223  22.014  0.00  0.00    +0.000 HD
ENDBRANCH  24  25
ENDBRANCH  21  24
ENDBRANCH  18  21
ENDBRANCH   1  18
BRANCH   1  27
ATOM     27  O   UNL     1       2.067   6.372  20.305  0.00  0.00    +0.000 OA
BRANCH  27  28
ATOM     28  C   UNL     1       2.001   7.661  19.654  0.00  0.00    +0.000 C 
BRANCH  28  32
ATOM     29  C   UNL     1      -0.088  10.701  21.897  0.00  0.00    +0.000 A 
ATOM     30  C   UNL     1       0.425   9.568  22.557  0.00  0.00    +0.000 A 
ATOM     31  C   UNL     1       1.148   8.621  21.835  0.00  0.00    +0.000 A 
ATOM     32  C   UNL     1       1.326   8.759  20.451  0.00  0.00    +0.000 A 
ATOM     33  C   UNL     1       0.849   9.918  19.814  0.00  0.00    +0.000 A 
ATOM     34  C   UNL     1       0.144  10.887  20.535  0.00  0.00    +0.000 A 
BRANCH  29  36
ATOM     35  O   UNL     1      -0.494  12.862  22.640  0.00  0.00    +0.000 OA
ATOM     36  N   UNL     1      -0.865  11.678  22.666  0.00  0.00    +0.000 N 
ATOM     37  O   UNL     1      -1.847  11.265  23.297  0.00  0.00    +0.000 OA
ENDBRANCH  29  36
ENDBRANCH  28  32
ENDBRANCH  27  28
ENDBRANCH   1  27
TORSDOF 18
ENDMDL
MODEL 9
REMARK VINA RESULT:      -6.8      1.705      5.490
REMARK  Name = 
REMARK  18 active torsions:
REMARK  status: ('A' for Active; 'I' for Inactive)
REMARK    1  A    between atoms: N_2  and  C_4
REMARK    2  A    between atoms: C_7  and  C_8
REMARK    3  A    between atoms: C_8  and  O_9
REMARK    4  A    between atoms: O_9  and  C_10
REMARK    5  A    between atoms: C_10  and  C_11
REMARK    6  A    between atoms: C_10  and  C_23
REMARK    7  A    between atoms: C_11  and  O_12
REMARK    8  A    between atoms: C_11  and  C_13
REMARK    9  A    between atoms: C_13  and  S_14
REMARK   10  A    between atoms: C_16  and  O_17
REMARK   11  A    between atoms: C_18  and  O_19
REMARK   12  A    between atoms: C_20  and  C_21
REMARK   13  A    between atoms: C_21  and  O_22
REMARK   14  A    between atoms: C_23  and  O_24
REMARK   15  A    between atoms: C_23  and  C_25
REMARK   16  A    between atoms: C_25  and  O_26
REMARK   17  A    between atoms: C_25  and  C_27
REMARK   18  A    between atoms: C_27  and  O_28
REMARK                            x       y       z     vdW  Elec       q    Type
REMARK                         _______ _______ _______ _____ _____    ______ ____
ROOT
ATOM      1  C   UNL     1       4.929   5.891  17.039  0.00  0.00    +0.000 C 
ENDROOT
BRANCH   1   2
ATOM      2  C   UNL     1       4.516   4.574  17.777  0.00  0.00    +0.000 C 
BRANCH   2   3
ATOM      3  O   UNL     1       5.760   3.883  18.060  0.00  0.00    +0.000 OA
ATOM      4  H   UNL     1       5.507   3.028  18.456  0.00  0.00    +0.000 HD
ENDBRANCH   2   3
BRANCH   2   5
ATOM      5  C   UNL     1       3.570   3.539  17.110  0.00  0.00    +0.000 C 
BRANCH   5   6
ATOM      6  S   UNL     1       3.334   2.090  18.265  0.00  0.00    +0.000 S 
ATOM      7  C   UNL     1       1.532   2.064  18.407  0.00  0.00    +0.000 C 
ATOM      8  C   UNL     1       1.076   3.130  19.387  0.00  0.00    +0.000 C 
ATOM      9  C   UNL     1       2.157   3.292  20.463  0.00  0.00    +0.000 C 
ATOM     10  C   UNL     1       3.538   3.002  19.865  0.00  0.00    +0.000 C 
BRANCH   9  11
ATOM     11  O   UNL     1       2.146   4.622  21.001  0.00  0.00    +0.000 OA
ATOM     12  H   UNL     1       3.010   5.042  20.848  0.00  0.00    +0.000 HD
ENDBRANCH   9  11
BRANCH   8  13
ATOM     13  O   UNL     1      -0.166   2.740  19.986  0.00  0.00    +0.000 OA
ATOM     14  H   UNL     1      -0.302   3.264  20.796  0.00  0.00    +0.000 HD
ENDBRANCH   8  13
BRANCH  10  15
ATOM     15  C   UNL     1       4.343   2.112  20.828  0.00  0.00    +0.000 C 
BRANCH  15  16
ATOM     16  O   UNL     1       5.352   1.382  20.138  0.00  0.00    +0.000 OA
ATOM     17  H   UNL     1       5.869   0.898  20.812  0.00  0.00    +0.000 HD
ENDBRANCH  15  16
ENDBRANCH  10  15
ENDBRANCH   5   6
ENDBRANCH   2   5
ENDBRANCH   1   2
BRANCH   1  18
ATOM     18  C   UNL     1       6.447   6.157  16.853  0.00  0.00    +0.000 C 
BRANCH  18  19
ATOM     19  O   UNL     1       6.673   7.569  16.895  0.00  0.00    +0.000 OA
ATOM     20  H   UNL     1       7.594   7.774  17.124  0.00  0.00    +0.000 HD
ENDBRANCH  18  19
BRANCH  18  21
ATOM     21  C   UNL     1       7.098   5.479  15.641  0.00  0.00    +0.000 C 
BRANCH  21  22
ATOM     22  O   UNL     1       7.844   4.313  16.012  0.00  0.00    +0.000 OA
ATOM     23  H   UNL     1       7.518   4.003  16.873  0.00  0.00    +0.000 HD
ENDBRANCH  21  22
BRANCH  21  24
ATOM     24  C   UNL     1       6.048   5.041  14.608  0.00  0.00    +0.000 C 
BRANCH  24  25
ATOM     25  O   UNL     1       6.617   4.023  13.789  0.00  0.00    +0.000 OA
ATOM     26  H   UNL     1       7.454   3.762  14.221  0.00  0.00    +0.000 HD
ENDBRANCH  24  25
ENDBRANCH  21  24
ENDBRANCH  18  21
ENDBRANCH   1  18
BRANCH   1  27
ATOM     27  O   UNL     1       4.163   7.014  17.517  0.00  0.00    +0.000 OA
BRANCH  27  28
ATOM     28  C   UNL     1       3.197   6.739  18.557  0.00  0.00    +0.000 C 
BRANCH  28  32
ATOM     29  C   UNL     1       0.354   9.861  19.454  0.00  0.00    +0.000 A 
ATOM     30  C   UNL     1       0.819   9.018  20.482  0.00  0.00    +0.000 A 
ATOM     31  C   UNL     1       1.780   8.051  20.194  0.00  0.00    +0.000 A 
ATOM     32  C   UNL     1       2.251   7.876  18.884  0.00  0.00    +0.000 A 
ATOM     33  C   UNL     1       1.812   8.756  17.879  0.00  0.00    +0.000 A 
ATOM     34  C   UNL     1       0.867   9.747  18.164  0.00  0.00    +0.000 A 
BRANCH  29  36
ATOM     35  O   UNL     1      -0.684  11.340  20.911  0.00  0.00    +0.000 OA
ATOM     36  N   UNL     1      -0.673  10.860  19.768  0.00  0.00    +0.000 N 
ATOM     37  O   UNL     1      -1.471  11.166  18.871  0.00  0.00    +0.000 OA
ENDBRANCH  29  36
ENDBRANCH  28  32
ENDBRANCH  27  28
ENDBRANCH   1  27
TORSDOF 18
ENDMDL
