MODEL 1
REMARK VINA RESULT:      -7.2      0.000      0.000
REMARK  Name = 
REMARK  9 active torsions:
REMARK  status: ('A' for Active; 'I' for Inactive)
REMARK    1  A    between atoms: C_1  and  C_2
REMARK    2  A    between atoms: C_2  and  C_3
REMARK    3  A    between atoms: C_3  and  C_4
REMARK    4  A    between atoms: C_4  and  C_5
REMARK    5  A    between atoms: C_5  and  N_6
REMARK    6  A    between atoms: N_9  and  O_10
REMARK    7  A    between atoms: N_17  and  C_18
REMARK    8  A    between atoms: C_18  and  C_19
REMARK    9  A    between atoms: C_19  and  C_20
REMARK                            x       y       z     vdW  Elec       q    Type
REMARK                         _______ _______ _______ _____ _____    ______ ____
ROOT
ATOM      1  N   UNL     1       6.118   4.191  15.259  0.00  0.00    +0.000 N 
ATOM      2  C   UNL     1       7.013   5.260  15.325  0.00  0.00    +0.000 A 
ATOM      3  O   UNL     1       7.768   5.582  14.400  0.00  0.00    +0.000 OA
ATOM      4  N   UNL     1       7.026   5.991  16.517  0.00  0.00    +0.000 N 
ATOM      5  C   UNL     1       6.221   5.822  17.644  0.00  0.00    +0.000 A 
ATOM      6  O   UNL     1       6.230   6.543  18.636  0.00  0.00    +0.000 OA
ATOM      7  C   UNL     1       5.357   4.692  17.499  0.00  0.00    +0.000 A 
ATOM      8  C   UNL     1       5.330   3.928  16.360  0.00  0.00    +0.000 A 
ATOM      9  N   UNL     1       4.422   2.920  16.449  0.00  0.00    +0.000 NA
ATOM     10  C   UNL     1       3.863   3.080  17.627  0.00  0.00    +0.000 A 
ATOM     11  N   UNL     1       4.419   4.127  18.322  0.00  0.00    +0.000 N 
ENDROOT
BRANCH   4  12
ATOM     12  O   UNL     1       7.927   7.083  16.541  0.00  0.00    +0.000 OA
ATOM     13  H   UNL     1       7.806   7.423  17.452  0.00  0.00    +0.000 HD
ENDBRANCH   4  12
BRANCH   1  14
ATOM     14  C   UNL     1       6.014   3.385  14.044  0.00  0.00    +0.000 C 
BRANCH  14  15
ATOM     15  C   UNL     1       5.002   3.957  13.047  0.00  0.00    +0.000 C 
BRANCH  15  16
ATOM     16  C   UNL     1       5.083   3.253  11.694  0.00  0.00    +0.000 C 
BRANCH  16  18
ATOM     17  C   UNL     1       3.379   3.934   9.969  0.00  0.00    +0.000 C 
ATOM     18  C   UNL     1       3.686   3.002  11.128  0.00  0.00    +0.000 C 
ENDBRANCH  16  18
ENDBRANCH  15  16
ENDBRANCH  14  15
ENDBRANCH   1  14
BRANCH  11  19
ATOM     19  C   UNL     1       4.028   4.507  19.673  0.00  0.00    +0.000 C 
BRANCH  19  20
ATOM     20  C   UNL     1       2.559   4.941  19.732  0.00  0.00    +0.000 C 
BRANCH  20  21
ATOM     21  C   UNL     1       2.229   6.396  19.493  0.00  0.00    +0.000 A 
ATOM     22  C   UNL     1       1.717   7.260  20.468  0.00  0.00    +0.000 A 
ATOM     23  C   UNL     1       1.439   8.596  20.155  0.00  0.00    +0.000 A 
ATOM     24  C   UNL     1       1.670   9.085  18.870  0.00  0.00    +0.000 A 
ATOM     25  C   UNL     1       2.184   8.238  17.893  0.00  0.00    +0.000 A 
ATOM     26  C   UNL     1       2.461   6.907  18.204  0.00  0.00    +0.000 A 
ENDBRANCH  20  21
ENDBRANCH  19  20
ENDBRANCH  11  19
TORSDOF 8
ENDMDL
MODEL 2
REMARK VINA RESULT:      -7.2      1.077      1.582
REMARK  Name = 
REMARK  9 active torsions:
REMARK  status: ('A' for Active; 'I' for Inactive)
REMARK    1  A    between atoms: C_1  and  C_2
REMARK    2  A    between atoms: C_2  and  C_3
REMARK    3  A    between atoms: C_3  and  C_4
REMARK    4  A    between atoms: C_4  and  C_5
REMARK    5  A    between atoms: C_5  and  N_6
REMARK    6  A    between atoms: N_9  and  O_10
REMARK    7  A    between atoms: N_17  and  C_18
REMARK    8  A    between atoms: C_18  and  C_19
REMARK    9  A    between atoms: C_19  and  C_20
REMARK                            x       y       z     vdW  Elec       q    Type
REMARK                         _______ _______ _______ _____ _____    ______ ____
ROOT
ATOM      1  N   UNL     1       5.747   4.935  15.845  0.00  0.00    +0.000 N 
ATOM      2  C   UNL     1       6.827   5.628  16.396  0.00  0.00    +0.000 A 
ATOM      3  O   UNL     1       7.725   6.147  15.723  0.00  0.00    +0.000 OA
ATOM      4  N   UNL     1       6.860   5.724  17.791  0.00  0.00    +0.000 N 
ATOM      5  C   UNL     1       5.924   5.258  18.713  0.00  0.00    +0.000 A 
ATOM      6  O   UNL     1       5.973   5.437  19.926  0.00  0.00    +0.000 OA
ATOM      7  C   UNL     1       4.870   4.542  18.064  0.00  0.00    +0.000 A 
ATOM      8  C   UNL     1       4.810   4.395  16.702  0.00  0.00    +0.000 A 
ATOM      9  N   UNL     1       3.714   3.689  16.316  0.00  0.00    +0.000 NA
ATOM     10  C   UNL     1       3.077   3.429  17.436  0.00  0.00    +0.000 A 
ATOM     11  N   UNL     1       3.755   3.898  18.534  0.00  0.00    +0.000 N 
ENDROOT
BRANCH   4  12
ATOM     12  O   UNL     1       7.955   6.454  18.314  0.00  0.00    +0.000 OA
ATOM     13  H   UNL     1       8.012   7.205  17.688  0.00  0.00    +0.000 HD
ENDBRANCH   4  12
BRANCH   1  14
ATOM     14  C   UNL     1       5.612   4.804  14.396  0.00  0.00    +0.000 C 
BRANCH  14  15
ATOM     15  C   UNL     1       6.314   3.555  13.853  0.00  0.00    +0.000 C 
BRANCH  15  16
ATOM     16  C   UNL     1       6.448   3.600  12.333  0.00  0.00    +0.000 C 
BRANCH  16  18
ATOM     17  C   UNL     1       4.184   3.161  11.319  0.00  0.00    +0.000 C 
ATOM     18  C   UNL     1       5.534   2.565  11.677  0.00  0.00    +0.000 C 
ENDBRANCH  16  18
ENDBRANCH  15  16
ENDBRANCH  14  15
ENDBRANCH   1  14
BRANCH  11  19
ATOM     19  C   UNL     1       3.308   3.713  19.908  0.00  0.00    +0.000 C 
BRANCH  19  20
ATOM     20  C   UNL     1       1.959   4.397  20.157  0.00  0.00    +0.000 C 
BRANCH  20  21
ATOM     21  C   UNL     1       1.879   5.900  20.019  0.00  0.00    +0.000 A 
ATOM     22  C   UNL     1       2.308   6.614  18.894  0.00  0.00    +0.000 A 
ATOM     23  C   UNL     1       2.196   8.009  18.855  0.00  0.00    +0.000 A 
ATOM     24  C   UNL     1       1.655   8.705  19.934  0.00  0.00    +0.000 A 
ATOM     25  C   UNL     1       1.219   8.008  21.056  0.00  0.00    +0.000 A 
ATOM     26  C   UNL     1       1.329   6.618  21.095  0.00  0.00    +0.000 A 
ENDBRANCH  20  21
ENDBRANCH  19  20
ENDBRANCH  11  19
TORSDOF 8
ENDMDL
MODEL 3
REMARK VINA RESULT:      -7.1      2.502      6.874
REMARK  Name = 
REMARK  9 active torsions:
REMARK  status: ('A' for Active; 'I' for Inactive)
REMARK    1  A    between atoms: C_1  and  C_2
REMARK    2  A    between atoms: C_2  and  C_3
REMARK    3  A    between atoms: C_3  and  C_4
REMARK    4  A    between atoms: C_4  and  C_5
REMARK    5  A    between atoms: C_5  and  N_6
REMARK    6  A    between atoms: N_9  and  O_10
REMARK    7  A    between atoms: N_17  and  C_18
REMARK    8  A    between atoms: C_18  and  C_19
REMARK    9  A    between atoms: C_19  and  C_20
REMARK                            x       y       z     vdW  Elec       q    Type
REMARK                         _______ _______ _______ _____ _____    ______ ____
ROOT
ATOM      1  N   UNL     1       2.710   5.503  20.144  0.00  0.00    +0.000 N 
ATOM      2  C   UNL     1       1.954   6.676  20.122  0.00  0.00    +0.000 A 
ATOM      3  O   UNL     1       1.080   6.946  20.955  0.00  0.00    +0.000 OA
ATOM      4  N   UNL     1       2.229   7.577  19.088  0.00  0.00    +0.000 N 
ATOM      5  C   UNL     1       3.202   7.482  18.094  0.00  0.00    +0.000 A 
ATOM      6  O   UNL     1       3.443   8.342  17.253  0.00  0.00    +0.000 OA
ATOM      7  C   UNL     1       3.908   6.241  18.177  0.00  0.00    +0.000 A 
ATOM      8  C   UNL     1       3.653   5.314  19.154  0.00  0.00    +0.000 A 
ATOM      9  N   UNL     1       4.456   4.223  19.039  0.00  0.00    +0.000 NA
ATOM     10  C   UNL     1       5.231   4.489  18.011  0.00  0.00    +0.000 A 
ATOM     11  N   UNL     1       4.917   5.693  17.429  0.00  0.00    +0.000 N 
ENDROOT
BRANCH   4  12
ATOM     12  O   UNL     1       1.461   8.766  19.111  0.00  0.00    +0.000 OA
ATOM     13  H   UNL     1       1.542   9.039  20.048  0.00  0.00    +0.000 HD
ENDBRANCH   4  12
BRANCH   1  14
ATOM     14  C   UNL     1       2.513   4.512  21.200  0.00  0.00    +0.000 C 
BRANCH  14  15
ATOM     15  C   UNL     1       1.284   3.632  20.955  0.00  0.00    +0.000 C 
BRANCH  15  16
ATOM     16  C   UNL     1       1.644   2.366  20.181  0.00  0.00    +0.000 C 
BRANCH  16  18
ATOM     17  C   UNL     1       2.242   2.153  17.743  0.00  0.00    +0.000 C 
ATOM     18  C   UNL     1       1.136   2.447  18.741  0.00  0.00    +0.000 C 
ENDBRANCH  16  18
ENDBRANCH  15  16
ENDBRANCH  14  15
ENDBRANCH   1  14
BRANCH  11  19
ATOM     19  C   UNL     1       5.581   6.223  16.246  0.00  0.00    +0.000 C 
BRANCH  19  20
ATOM     20  C   UNL     1       6.738   5.322  15.800  0.00  0.00    +0.000 C 
BRANCH  20  21
ATOM     21  C   UNL     1       6.722   4.777  14.391  0.00  0.00    +0.000 A 
ATOM     22  C   UNL     1       5.838   3.793  13.934  0.00  0.00    +0.000 A 
ATOM     23  C   UNL     1       5.897   3.345  12.609  0.00  0.00    +0.000 A 
ATOM     24  C   UNL     1       6.836   3.875  11.726  0.00  0.00    +0.000 A 
ATOM     25  C   UNL     1       7.718   4.858  12.164  0.00  0.00    +0.000 A 
ATOM     26  C   UNL     1       7.659   5.304  13.484  0.00  0.00    +0.000 A 
ENDBRANCH  20  21
ENDBRANCH  19  20
ENDBRANCH  11  19
TORSDOF 8
ENDMDL
MODEL 4
REMARK VINA RESULT:      -7.1      3.584      5.636
REMARK  Name = 
REMARK  9 active torsions:
REMARK  status: ('A' for Active; 'I' for Inactive)
REMARK    1  A    between atoms: C_1  and  C_2
REMARK    2  A    between atoms: C_2  and  C_3
REMARK    3  A    between atoms: C_3  and  C_4
REMARK    4  A    between atoms: C_4  and  C_5
REMARK    5  A    between atoms: C_5  and  N_6
REMARK    6  A    between atoms: N_9  and  O_10
REMARK    7  A    between atoms: N_17  and  C_18
REMARK    8  A    between atoms: C_18  and  C_19
REMARK    9  A    between atoms: C_19  and  C_20
REMARK                            x       y       z     vdW  Elec       q    Type
REMARK                         _______ _______ _______ _____ _____    ______ ____
ROOT
ATOM      1  N   UNL     1       4.684   5.040  18.295  0.00  0.00    +0.000 N 
ATOM      2  C   UNL     1       4.323   4.084  19.245  0.00  0.00    +0.000 A 
ATOM      3  O   UNL     1       4.922   3.013  19.404  0.00  0.00    +0.000 OA
ATOM      4  N   UNL     1       3.219   4.388  20.048  0.00  0.00    +0.000 N 
ATOM      5  C   UNL     1       2.453   5.553  20.060  0.00  0.00    +0.000 A 
ATOM      6  O   UNL     1       1.536   5.791  20.840  0.00  0.00    +0.000 OA
ATOM      7  C   UNL     1       2.875   6.462  19.041  0.00  0.00    +0.000 A 
ATOM      8  C   UNL     1       3.934   6.195  18.210  0.00  0.00    +0.000 A 
ATOM      9  N   UNL     1       4.157   7.209  17.333  0.00  0.00    +0.000 NA
ATOM     10  C   UNL     1       3.260   8.119  17.642  0.00  0.00    +0.000 A 
ATOM     11  N   UNL     1       2.433   7.700  18.656  0.00  0.00    +0.000 N 
ENDROOT
BRANCH   4  12
ATOM     12  O   UNL     1       2.895   3.407  21.016  0.00  0.00    +0.000 OA
ATOM     13  H   UNL     1       2.204   3.863  21.540  0.00  0.00    +0.000 HD
ENDBRANCH   4  12
BRANCH   1  14
ATOM     14  C   UNL     1       5.841   4.824  17.427  0.00  0.00    +0.000 C 
BRANCH  14  15
ATOM     15  C   UNL     1       7.161   4.810  18.204  0.00  0.00    +0.000 C 
BRANCH  15  16
ATOM     16  C   UNL     1       7.596   6.219  18.599  0.00  0.00    +0.000 C 
BRANCH  16  18
ATOM     17  C   UNL     1       7.925   8.578  17.777  0.00  0.00    +0.000 C 
ATOM     18  C   UNL     1       7.585   7.151  17.387  0.00  0.00    +0.000 C 
ENDBRANCH  16  18
ENDBRANCH  15  16
ENDBRANCH  14  15
ENDBRANCH   1  14
BRANCH  11  19
ATOM     19  C   UNL     1       1.319   8.483  19.174  0.00  0.00    +0.000 C 
BRANCH  19  20
ATOM     20  C   UNL     1       1.028   9.701  18.289  0.00  0.00    +0.000 C 
BRANCH  20  21
ATOM     21  C   UNL     1      -0.377  10.255  18.267  0.00  0.00    +0.000 A 
ATOM     22  C   UNL     1      -1.394   9.796  17.422  0.00  0.00    +0.000 A 
ATOM     23  C   UNL     1      -2.669  10.372  17.470  0.00  0.00    +0.000 A 
ATOM     24  C   UNL     1      -2.944  11.407  18.361  0.00  0.00    +0.000 A 
ATOM     25  C   UNL     1      -1.945  11.869  19.212  0.00  0.00    +0.000 A 
ATOM     26  C   UNL     1      -0.674  11.296  19.164  0.00  0.00    +0.000 A 
ENDBRANCH  20  21
ENDBRANCH  19  20
ENDBRANCH  11  19
TORSDOF 8
ENDMDL
MODEL 5
REMARK VINA RESULT:      -7.1      5.386      8.570
REMARK  Name = 
REMARK  9 active torsions:
REMARK  status: ('A' for Active; 'I' for Inactive)
REMARK    1  A    between atoms: C_1  and  C_2
REMARK    2  A    between atoms: C_2  and  C_3
REMARK    3  A    between atoms: C_3  and  C_4
REMARK    4  A    between atoms: C_4  and  C_5
REMARK    5  A    between atoms: C_5  and  N_6
REMARK    6  A    between atoms: N_9  and  O_10
REMARK    7  A    between atoms: N_17  and  C_18
REMARK    8  A    between atoms: C_18  and  C_19
REMARK    9  A    between atoms: C_19  and  C_20
REMARK                            x       y       z     vdW  Elec       q    Type
REMARK                         _______ _______ _______ _____ _____    ______ ____
ROOT
ATOM      1  N   UNL     1      -0.434  11.253  19.553  0.00  0.00    +0.000 N 
ATOM      2  C   UNL     1      -0.658  11.396  20.924  0.00  0.00    +0.000 A 
ATOM      3  O   UNL     1      -1.394  12.261  21.413  0.00  0.00    +0.000 OA
ATOM      4  N   UNL     1       0.001  10.490  21.761  0.00  0.00    +0.000 N 
ATOM      5  C   UNL     1       0.821   9.420  21.404  0.00  0.00    +0.000 A 
ATOM      6  O   UNL     1       1.314   8.613  22.185  0.00  0.00    +0.000 OA
ATOM      7  C   UNL     1       1.015   9.366  19.989  0.00  0.00    +0.000 A 
ATOM      8  C   UNL     1       0.414  10.250  19.129  0.00  0.00    +0.000 A 
ATOM      9  N   UNL     1       0.735   9.995  17.833  0.00  0.00    +0.000 NA
ATOM     10  C   UNL     1       1.506   8.931  17.886  0.00  0.00    +0.000 A 
ATOM     11  N   UNL     1       1.734   8.526  19.179  0.00  0.00    +0.000 N 
ENDROOT
BRANCH   4  12
ATOM     12  O   UNL     1      -0.268  10.648  23.142  0.00  0.00    +0.000 OA
ATOM     13  H   UNL     1       0.561  10.317  23.547  0.00  0.00    +0.000 HD
ENDBRANCH   4  12
BRANCH   1  14
ATOM     14  C   UNL     1      -1.099  12.137  18.597  0.00  0.00    +0.000 C 
BRANCH  14  15
ATOM     15  C   UNL     1      -2.565  11.756  18.370  0.00  0.00    +0.000 C 
BRANCH  15  16
ATOM     16  C   UNL     1      -2.700  10.343  17.807  0.00  0.00    +0.000 C 
BRANCH  16  18
ATOM     17  C   UNL     1      -2.879  10.670  15.315  0.00  0.00    +0.000 C 
ATOM     18  C   UNL     1      -3.627  10.330  16.591  0.00  0.00    +0.000 C 
ENDBRANCH  16  18
ENDBRANCH  15  16
ENDBRANCH  14  15
ENDBRANCH   1  14
BRANCH  11  19
ATOM     19  C   UNL     1       2.588   7.404  19.542  0.00  0.00    +0.000 C 
BRANCH  19  20
ATOM     20  C   UNL     1       2.540   6.296  18.483  0.00  0.00    +0.000 C 
BRANCH  20  21
ATOM     21  C   UNL     1       2.000   4.943  18.882  0.00  0.00    +0.000 A 
ATOM     22  C   UNL     1       1.809   3.875  17.997  0.00  0.00    +0.000 A 
ATOM     23  C   UNL     1       1.300   2.655  18.457  0.00  0.00    +0.000 A 
ATOM     24  C   UNL     1       0.978   2.486  19.803  0.00  0.00    +0.000 A 
ATOM     25  C   UNL     1       1.168   3.536  20.695  0.00  0.00    +0.000 A 
ATOM     26  C   UNL     1       1.676   4.752  20.237  0.00  0.00    +0.000 A 
ENDBRANCH  20  21
ENDBRANCH  19  20
ENDBRANCH  11  19
TORSDOF 8
ENDMDL
MODEL 6
REMARK VINA RESULT:      -7.1      3.647      6.239
REMARK  Name = 
REMARK  9 active torsions:
REMARK  status: ('A' for Active; 'I' for Inactive)
REMARK    1  A    between atoms: C_1  and  C_2
REMARK    2  A    between atoms: C_2  and  C_3
REMARK    3  A    between atoms: C_3  and  C_4
REMARK    4  A    between atoms: C_4  and  C_5
REMARK    5  A    between atoms: C_5  and  N_6
REMARK    6  A    between atoms: N_9  and  O_10
REMARK    7  A    between atoms: N_17  and  C_18
REMARK    8  A    between atoms: C_18  and  C_19
REMARK    9  A    between atoms: C_19  and  C_20
REMARK                            x       y       z     vdW  Elec       q    Type
REMARK                         _______ _______ _______ _____ _____    ______ ____
ROOT
ATOM      1  N   UNL     1       3.540   6.523  18.111  0.00  0.00    +0.000 N 
ATOM      2  C   UNL     1       3.437   5.591  19.144  0.00  0.00    +0.000 A 
ATOM      3  O   UNL     1       4.058   4.522  19.169  0.00  0.00    +0.000 OA
ATOM      4  N   UNL     1       2.577   5.918  20.197  0.00  0.00    +0.000 N 
ATOM      5  C   UNL     1       1.838   7.086  20.379  0.00  0.00    +0.000 A 
ATOM      6  O   UNL     1       1.154   7.347  21.363  0.00  0.00    +0.000 OA
ATOM      7  C   UNL     1       1.982   7.970  19.264  0.00  0.00    +0.000 A 
ATOM      8  C   UNL     1       2.790   7.679  18.195  0.00  0.00    +0.000 A 
ATOM      9  N   UNL     1       2.778   8.672  17.266  0.00  0.00    +0.000 NA
ATOM     10  C   UNL     1       1.990   9.592  17.775  0.00  0.00    +0.000 A 
ATOM     11  N   UNL     1       1.453   9.201  18.978  0.00  0.00    +0.000 N 
ENDROOT
BRANCH   4  12
ATOM     12  O   UNL     1       2.516   4.961  21.239  0.00  0.00    +0.000 OA
ATOM     13  H   UNL     1       2.050   5.461  21.942  0.00  0.00    +0.000 HD
ENDBRANCH   4  12
BRANCH   1  14
ATOM     14  C   UNL     1       4.433   6.282  16.979  0.00  0.00    +0.000 C 
BRANCH  14  15
ATOM     15  C   UNL     1       5.883   6.669  17.285  0.00  0.00    +0.000 C 
BRANCH  15  16
ATOM     16  C   UNL     1       6.867   5.629  16.754  0.00  0.00    +0.000 C 
BRANCH  16  18
ATOM     17  C   UNL     1       7.525   5.734  19.183  0.00  0.00    +0.000 C 
ATOM     18  C   UNL     1       7.578   4.917  17.905  0.00  0.00    +0.000 C 
ENDBRANCH  16  18
ENDBRANCH  15  16
ENDBRANCH  14  15
ENDBRANCH   1  14
BRANCH  11  19
ATOM     19  C   UNL     1       0.509  10.001  19.746  0.00  0.00    +0.000 C 
BRANCH  19  20
ATOM     20  C   UNL     1      -0.098  11.124  18.898  0.00  0.00    +0.000 C 
BRANCH  20  21
ATOM     21  C   UNL     1      -1.465  10.909  18.291  0.00  0.00    +0.000 A 
ATOM     22  C   UNL     1      -1.740   9.996  17.267  0.00  0.00    +0.000 A 
ATOM     23  C   UNL     1      -3.040   9.865  16.764  0.00  0.00    +0.000 A 
ATOM     24  C   UNL     1      -4.078  10.640  17.278  0.00  0.00    +0.000 A 
ATOM     25  C   UNL     1      -3.820  11.548  18.300  0.00  0.00    +0.000 A 
ATOM     26  C   UNL     1      -2.525  11.678  18.802  0.00  0.00    +0.000 A 
ENDBRANCH  20  21
ENDBRANCH  19  20
ENDBRANCH  11  19
TORSDOF 8
ENDMDL
MODEL 7
REMARK VINA RESULT:      -7.0      5.740     10.268
REMARK  Name = 
REMARK  9 active torsions:
REMARK  status: ('A' for Active; 'I' for Inactive)
REMARK    1  A    between atoms: C_1  and  C_2
REMARK    2  A    between atoms: C_2  and  C_3
REMARK    3  A    between atoms: C_3  and  C_4
REMARK    4  A    between atoms: C_4  and  C_5
REMARK    5  A    between atoms: C_5  and  N_6
REMARK    6  A    between atoms: N_9  and  O_10
REMARK    7  A    between atoms: N_17  and  C_18
REMARK    8  A    between atoms: C_18  and  C_19
REMARK    9  A    between atoms: C_19  and  C_20
REMARK                            x       y       z     vdW  Elec       q    Type
REMARK                         _______ _______ _______ _____ _____    ______ ____
ROOT
ATOM      1  N   UNL     1      -0.660  11.660  21.203  0.00  0.00    +0.000 N 
ATOM      2  C   UNL     1      -1.096  12.072  19.942  0.00  0.00    +0.000 A 
ATOM      3  O   UNL     1      -1.788  13.078  19.750  0.00  0.00    +0.000 OA
ATOM      4  N   UNL     1      -0.705  11.280  18.858  0.00  0.00    +0.000 N 
ATOM      5  C   UNL     1       0.111  10.150  18.861  0.00  0.00    +0.000 A 
ATOM      6  O   UNL     1       0.479   9.537  17.864  0.00  0.00    +0.000 OA
ATOM      7  C   UNL     1       0.488   9.787  20.192  0.00  0.00    +0.000 A 
ATOM      8  C   UNL     1       0.104  10.515  21.289  0.00  0.00    +0.000 A 
ATOM      9  N   UNL     1       0.592   9.986  22.443  0.00  0.00    +0.000 NA
ATOM     10  C   UNL     1       1.306   8.952  22.058  0.00  0.00    +0.000 A 
ATOM     11  N   UNL     1       1.250   8.766  20.698  0.00  0.00    +0.000 N 
ENDROOT
BRANCH   4  12
ATOM     12  O   UNL     1      -1.144  11.740  17.592  0.00  0.00    +0.000 OA
ATOM     13  H   UNL     1      -1.758  12.462  17.843  0.00  0.00    +0.000 HD
ENDBRANCH   4  12
BRANCH   1  14
ATOM     14  C   UNL     1      -0.996  12.437  22.394  0.00  0.00    +0.000 C 
BRANCH  14  15
ATOM     15  C   UNL     1      -2.245  11.907  23.106  0.00  0.00    +0.000 C 
BRANCH  15  16
ATOM     16  C   UNL     1      -3.082  13.040  23.694  0.00  0.00    +0.000 C 
BRANCH  16  18
ATOM     17  C   UNL     1      -5.583  12.852  23.930  0.00  0.00    +0.000 C 
ATOM     18  C   UNL     1      -4.237  12.485  24.529  0.00  0.00    +0.000 C 
ENDBRANCH  16  18
ENDBRANCH  15  16
ENDBRANCH  14  15
ENDBRANCH   1  14
BRANCH  11  19
ATOM     19  C   UNL     1       1.906   7.671  19.998  0.00  0.00    +0.000 C 
BRANCH  19  20
ATOM     20  C   UNL     1       1.756   6.348  20.757  0.00  0.00    +0.000 C 
BRANCH  20  21
ATOM     21  C   UNL     1       1.642   5.070  19.959  0.00  0.00    +0.000 A 
ATOM     22  C   UNL     1       1.095   3.878  20.448  0.00  0.00    +0.000 A 
ATOM     23  C   UNL     1       1.033   2.740  19.635  0.00  0.00    +0.000 A 
ATOM     24  C   UNL     1       1.513   2.779  18.327  0.00  0.00    +0.000 A 
ATOM     25  C   UNL     1       2.054   3.958  17.826  0.00  0.00    +0.000 A 
ATOM     26  C   UNL     1       2.116   5.092  18.635  0.00  0.00    +0.000 A 
ENDBRANCH  20  21
ENDBRANCH  19  20
ENDBRANCH  11  19
TORSDOF 8
ENDMDL
MODEL 8
REMARK VINA RESULT:      -7.0      3.334      5.341
REMARK  Name = 
REMARK  9 active torsions:
REMARK  status: ('A' for Active; 'I' for Inactive)
REMARK    1  A    between atoms: C_1  and  C_2
REMARK    2  A    between atoms: C_2  and  C_3
REMARK    3  A    between atoms: C_3  and  C_4
REMARK    4  A    between atoms: C_4  and  C_5
REMARK    5  A    between atoms: C_5  and  N_6
REMARK    6  A    between atoms: N_9  and  O_10
REMARK    7  A    between atoms: N_17  and  C_18
REMARK    8  A    between atoms: C_18  and  C_19
REMARK    9  A    between atoms: C_19  and  C_20
REMARK                            x       y       z     vdW  Elec       q    Type
REMARK                         _______ _______ _______ _____ _____    ______ ____
ROOT
ATOM      1  N   UNL     1       3.723   4.220  17.510  0.00  0.00    +0.000 N 
ATOM      2  C   UNL     1       3.228   3.024  18.033  0.00  0.00    +0.000 A 
ATOM      3  O   UNL     1       3.535   1.906  17.601  0.00  0.00    +0.000 OA
ATOM      4  N   UNL     1       2.340   3.134  19.108  0.00  0.00    +0.000 N 
ATOM      5  C   UNL     1       1.918   4.288  19.766  0.00  0.00    +0.000 A 
ATOM      6  O   UNL     1       1.190   4.315  20.754  0.00  0.00    +0.000 OA
ATOM      7  C   UNL     1       2.452   5.462  19.149  0.00  0.00    +0.000 A 
ATOM      8  C   UNL     1       3.302   5.406  18.074  0.00  0.00    +0.000 A 
ATOM      9  N   UNL     1       3.688   6.645  17.669  0.00  0.00    +0.000 NA
ATOM     10  C   UNL     1       3.106   7.466  18.514  0.00  0.00    +0.000 A 
ATOM     11  N   UNL     1       2.314   6.799  19.417  0.00  0.00    +0.000 N 
ENDROOT
BRANCH   4  12
ATOM     12  O   UNL     1       1.877   1.902  19.629  0.00  0.00    +0.000 OA
ATOM     13  H   UNL     1       0.998   2.152  19.983  0.00  0.00    +0.000 HD
ENDBRANCH   4  12
BRANCH   1  14
ATOM     14  C   UNL     1       4.677   4.206  16.401  0.00  0.00    +0.000 C 
BRANCH  14  15
ATOM     15  C   UNL     1       6.124   4.385  16.872  0.00  0.00    +0.000 C 
BRANCH  15  16
ATOM     16  C   UNL     1       6.774   5.612  16.238  0.00  0.00    +0.000 C 
BRANCH  16  18
ATOM     17  C   UNL     1       7.547   5.829  18.626  0.00  0.00    +0.000 C 
ATOM     18  C   UNL     1       7.318   6.555  17.312  0.00  0.00    +0.000 C 
ENDBRANCH  16  18
ENDBRANCH  15  16
ENDBRANCH  14  15
ENDBRANCH   1  14
BRANCH  11  19
ATOM     19  C   UNL     1       1.513   7.457  20.440  0.00  0.00    +0.000 C 
BRANCH  19  20
ATOM     20  C   UNL     1       1.357   8.955  20.154  0.00  0.00    +0.000 C 
BRANCH  20  21
ATOM     21  C   UNL     1       0.427   9.761  21.031  0.00  0.00    +0.000 A 
ATOM     22  C   UNL     1      -0.323  10.857  20.589  0.00  0.00    +0.000 A 
ATOM     23  C   UNL     1      -1.160  11.546  21.475  0.00  0.00    +0.000 A 
ATOM     24  C   UNL     1      -1.259  11.150  22.808  0.00  0.00    +0.000 A 
ATOM     25  C   UNL     1      -0.524  10.058  23.259  0.00  0.00    +0.000 A 
ATOM     26  C   UNL     1       0.309   9.370  22.377  0.00  0.00    +0.000 A 
ENDBRANCH  20  21
ENDBRANCH  19  20
ENDBRANCH  11  19
TORSDOF 8
ENDMDL
MODEL 9
REMARK VINA RESULT:      -7.0      2.927      4.776
REMARK  Name = 
REMARK  9 active torsions:
REMARK  status: ('A' for Active; 'I' for Inactive)
REMARK    1  A    between atoms: C_1  and  C_2
REMARK    2  A    between atoms: C_2  and  C_3
REMARK    3  A    between atoms: C_3  and  C_4
REMARK    4  A    between atoms: C_4  and  C_5
REMARK    5  A    between atoms: C_5  and  N_6
REMARK    6  A    between atoms: N_9  and  O_10
REMARK    7  A    between atoms: N_17  and  C_18
REMARK    8  A    between atoms: C_18  and  C_19
REMARK    9  A    between atoms: C_19  and  C_20
REMARK                            x       y       z     vdW  Elec       q    Type
REMARK                         _______ _______ _______ _____ _____    ______ ____
ROOT
ATOM      1  N   UNL     1       3.550   4.178  17.517  0.00  0.00    +0.000 N 
ATOM      2  C   UNL     1       3.134   3.027  18.187  0.00  0.00    +0.000 A 
ATOM      3  O   UNL     1       3.378   1.879  17.796  0.00  0.00    +0.000 OA
ATOM      4  N   UNL     1       2.406   3.219  19.365  0.00  0.00    +0.000 N 
ATOM      5  C   UNL     1       2.078   4.420  19.993  0.00  0.00    +0.000 A 
ATOM      6  O   UNL     1       1.496   4.523  21.068  0.00  0.00    +0.000 OA
ATOM      7  C   UNL     1       2.519   5.543  19.226  0.00  0.00    +0.000 A 
ATOM      8  C   UNL     1       3.211   5.405  18.050  0.00  0.00    +0.000 A 
ATOM      9  N   UNL     1       3.535   6.609  17.508  0.00  0.00    +0.000 NA
ATOM     10  C   UNL     1       3.076   7.492  18.366  0.00  0.00    +0.000 A 
ATOM     11  N   UNL     1       2.419   6.896  19.416  0.00  0.00    +0.000 N 
ENDROOT
BRANCH   4  12
ATOM     12  O   UNL     1       2.021   2.030  20.031  0.00  0.00    +0.000 OA
ATOM     13  H   UNL     1       2.842   1.498  19.980  0.00  0.00    +0.000 HD
ENDBRANCH   4  12
BRANCH   1  14
ATOM     14  C   UNL     1       4.339   4.079  16.290  0.00  0.00    +0.000 C 
BRANCH  14  15
ATOM     15  C   UNL     1       5.846   4.159  16.555  0.00  0.00    +0.000 C 
BRANCH  15  16
ATOM     16  C   UNL     1       6.646   4.179  15.254  0.00  0.00    +0.000 C 
BRANCH  16  18
ATOM     17  C   UNL     1       6.255   3.594  12.836  0.00  0.00    +0.000 C 
ATOM     18  C   UNL     1       5.718   4.332  14.049  0.00  0.00    +0.000 C 
ENDBRANCH  16  18
ENDBRANCH  15  16
ENDBRANCH  14  15
ENDBRANCH   1  14
BRANCH  11  19
ATOM     19  C   UNL     1       1.769   7.631  20.492  0.00  0.00    +0.000 C 
BRANCH  19  20
ATOM     20  C   UNL     1       1.109   8.916  19.977  0.00  0.00    +0.000 C 
BRANCH  20  21
ATOM     21  C   UNL     1       0.375   9.793  20.964  0.00  0.00    +0.000 A 
ATOM     22  C   UNL     1       0.091  11.148  20.759  0.00  0.00    +0.000 A 
ATOM     23  C   UNL     1      -0.594  11.884  21.732  0.00  0.00    +0.000 A 
ATOM     24  C   UNL     1      -1.005  11.278  22.918  0.00  0.00    +0.000 A 
ATOM     25  C   UNL     1      -0.735   9.930  23.133  0.00  0.00    +0.000 A 
ATOM     26  C   UNL     1      -0.052   9.196  22.163  0.00  0.00    +0.000 A 
ENDBRANCH  20  21
ENDBRANCH  19  20
ENDBRANCH  11  19
TORSDOF 8
ENDMDL
