MODEL 1
REMARK VINA RESULT:      -8.3      0.000      0.000
REMARK  Name = 
REMARK  4 active torsions:
REMARK  status: ('A' for Active; 'I' for Inactive)
REMARK    1  A    between atoms: C_1  and  N_2
REMARK    2  A    between atoms: N_9  and  C_10
REMARK    3  A    between atoms: C_14  and  S_15
REMARK    4  A    between atoms: S_15  and  C_18
REMARK                            x       y       z     vdW  Elec       q    Type
REMARK                         _______ _______ _______ _____ _____    ______ ____
ROOT
ATOM      1  C   UNL     1       6.435   5.821  18.663  0.00  0.00    +0.000 C 
ATOM      2  N   UNL     1       6.059   5.692  17.274  0.00  0.00    +0.000 NA
ATOM      3  C   UNL     1       5.700   4.313  16.838  0.00  0.00    +0.000 C 
ATOM      4  C   UNL     1       5.533   4.602  15.340  0.00  0.00    +0.000 C 
ATOM      5  C   UNL     1       5.246   6.106  15.296  0.00  0.00    +0.000 C 
ATOM      6  C   UNL     1       4.954   6.535  16.735  0.00  0.00    +0.000 C 
ATOM      7  C   UNL     1       3.708   6.136  17.518  0.00  0.00    +0.000 A 
ATOM      8  C   UNL     1       3.544   4.836  17.985  0.00  0.00    +0.000 A 
ATOM      9  N   UNL     1       2.894   4.906  19.196  0.00  0.00    +0.000 N 
ATOM     10  C   UNL     1       2.969   3.931  20.270  0.00  0.00    +0.000 C 
ATOM     11  C   UNL     1       2.381   6.188  19.372  0.00  0.00    +0.000 A 
ATOM     12  C   UNL     1       1.680   6.766  20.454  0.00  0.00    +0.000 A 
ATOM     13  C   UNL     1       1.323   8.118  20.385  0.00  0.00    +0.000 A 
ATOM     14  C   UNL     1       1.668   8.870  19.265  0.00  0.00    +0.000 A 
ATOM     15  C   UNL     1       2.470   8.341  18.250  0.00  0.00    +0.000 A 
ATOM     16  C   UNL     1       2.824   6.967  18.280  0.00  0.00    +0.000 A 
ATOM     17  C   UNL     1       4.373   3.719  17.437  0.00  0.00    +0.000 C 
ENDROOT
BRANCH  14  18
ATOM     18  S   UNL     1       1.206  10.573  19.207  0.00  0.00    +0.000 S 
ATOM     19  O   UNL     1       1.099  11.077  20.565  0.00  0.00    +0.000 OA
ATOM     20  O   UNL     1       2.005  11.253  18.206  0.00  0.00    +0.000 OA
BRANCH  18  21
ATOM     21  C   UNL     1      -0.401  10.643  18.562  0.00  0.00    +0.000 A 
ATOM     22  C   UNL     1      -0.904   9.728  17.586  0.00  0.00    +0.000 A 
ATOM     23  C   UNL     1      -2.199  10.027  17.223  0.00  0.00    +0.000 A 
ATOM     24  S   UNL     1      -2.797  11.408  18.040  0.00  0.00    +0.000 S 
ATOM     25  C   UNL     1      -1.326  11.611  18.897  0.00  0.00    +0.000 A 
ENDBRANCH  18  21
ENDBRANCH  14  18
TORSDOF 2
ENDMDL
MODEL 2
REMARK VINA RESULT:      -8.3      1.356      3.381
REMARK  Name = 
REMARK  4 active torsions:
REMARK  status: ('A' for Active; 'I' for Inactive)
REMARK    1  A    between atoms: C_1  and  N_2
REMARK    2  A    between atoms: N_9  and  C_10
REMARK    3  A    between atoms: C_14  and  S_15
REMARK    4  A    between atoms: S_15  and  C_18
REMARK                            x       y       z     vdW  Elec       q    Type
REMARK                         _______ _______ _______ _____ _____    ______ ____
ROOT
ATOM      1  C   UNL     1       1.170   3.455  18.269  0.00  0.00    +0.000 C 
ATOM      2  N   UNL     1       1.668   3.264  19.611  0.00  0.00    +0.000 NA
ATOM      3  C   UNL     1       3.042   2.693  19.704  0.00  0.00    +0.000 C 
ATOM      4  C   UNL     1       3.096   2.521  21.228  0.00  0.00    +0.000 C 
ATOM      5  C   UNL     1       2.057   3.525  21.739  0.00  0.00    +0.000 C 
ATOM      6  C   UNL     1       1.698   4.420  20.552  0.00  0.00    +0.000 C 
ATOM      7  C   UNL     1       2.643   5.440  19.925  0.00  0.00    +0.000 A 
ATOM      8  C   UNL     1       3.725   5.031  19.153  0.00  0.00    +0.000 A 
ATOM      9  N   UNL     1       3.892   5.954  18.145  0.00  0.00    +0.000 N 
ATOM     10  C   UNL     1       4.497   5.710  16.847  0.00  0.00    +0.000 C 
ATOM     11  C   UNL     1       3.135   7.087  18.426  0.00  0.00    +0.000 A 
ATOM     12  C   UNL     1       2.938   8.277  17.691  0.00  0.00    +0.000 A 
ATOM     13  C   UNL     1       2.066   9.249  18.194  0.00  0.00    +0.000 A 
ATOM     14  C   UNL     1       1.403   9.028  19.398  0.00  0.00    +0.000 A 
ATOM     15  C   UNL     1       1.493   7.803  20.067  0.00  0.00    +0.000 A 
ATOM     16  C   UNL     1       2.389   6.811  19.594  0.00  0.00    +0.000 A 
ATOM     17  C   UNL     1       4.214   3.619  19.212  0.00  0.00    +0.000 C 
ENDROOT
BRANCH  14  18
ATOM     18  S   UNL     1       0.306  10.271  20.008  0.00  0.00    +0.000 S 
ATOM     19  O   UNL     1      -0.351   9.772  21.202  0.00  0.00    +0.000 OA
ATOM     20  O   UNL     1       0.981  11.554  19.993  0.00  0.00    +0.000 OA
BRANCH  18  21
ATOM     21  C   UNL     1      -0.954  10.459  18.832  0.00  0.00    +0.000 A 
ATOM     22  C   UNL     1      -1.044   9.682  17.636  0.00  0.00    +0.000 A 
ATOM     23  C   UNL     1      -2.122  10.056  16.864  0.00  0.00    +0.000 A 
ATOM     24  S   UNL     1      -3.006  11.343  17.566  0.00  0.00    +0.000 S 
ATOM     25  C   UNL     1      -1.957  11.403  18.920  0.00  0.00    +0.000 A 
ENDBRANCH  18  21
ENDBRANCH  14  18
TORSDOF 2
ENDMDL
MODEL 3
REMARK VINA RESULT:      -8.1      1.585      3.610
REMARK  Name = 
REMARK  4 active torsions:
REMARK  status: ('A' for Active; 'I' for Inactive)
REMARK    1  A    between atoms: C_1  and  N_2
REMARK    2  A    between atoms: N_9  and  C_10
REMARK    3  A    between atoms: C_14  and  S_15
REMARK    4  A    between atoms: S_15  and  C_18
REMARK                            x       y       z     vdW  Elec       q    Type
REMARK                         _______ _______ _______ _____ _____    ______ ____
ROOT
ATOM      1  C   UNL     1       1.023   3.292  18.530  0.00  0.00    +0.000 C 
ATOM      2  N   UNL     1       1.636   3.032  19.812  0.00  0.00    +0.000 NA
ATOM      3  C   UNL     1       3.011   2.458  19.754  0.00  0.00    +0.000 C 
ATOM      4  C   UNL     1       3.198   2.207  21.256  0.00  0.00    +0.000 C 
ATOM      5  C   UNL     1       2.212   3.183  21.908  0.00  0.00    +0.000 C 
ATOM      6  C   UNL     1       1.754   4.138  20.804  0.00  0.00    +0.000 C 
ATOM      7  C   UNL     1       2.643   5.190  20.150  0.00  0.00    +0.000 A 
ATOM      8  C   UNL     1       3.651   4.822  19.266  0.00  0.00    +0.000 A 
ATOM      9  N   UNL     1       3.733   5.796  18.296  0.00  0.00    +0.000 N 
ATOM     10  C   UNL     1       4.221   5.620  16.939  0.00  0.00    +0.000 C 
ATOM     11  C   UNL     1       3.008   6.912  18.700  0.00  0.00    +0.000 A 
ATOM     12  C   UNL     1       2.752   8.139  18.048  0.00  0.00    +0.000 A 
ATOM     13  C   UNL     1       1.931   9.082  18.676  0.00  0.00    +0.000 A 
ATOM     14  C   UNL     1       1.375   8.799  19.920  0.00  0.00    +0.000 A 
ATOM     15  C   UNL     1       1.519   7.542  20.514  0.00  0.00    +0.000 A 
ATOM     16  C   UNL     1       2.367   6.575  19.913  0.00  0.00    +0.000 A 
ATOM     17  C   UNL     1       4.138   3.409  19.209  0.00  0.00    +0.000 C 
ENDROOT
BRANCH  14  18
ATOM     18  S   UNL     1       0.342  10.008  20.687  0.00  0.00    +0.000 S 
ATOM     19  O   UNL     1      -0.696   9.328  21.440  0.00  0.00    +0.000 OA
ATOM     20  O   UNL     1       1.170  11.034  21.291  0.00  0.00    +0.000 OA
BRANCH  18  21
ATOM     21  C   UNL     1      -0.486  10.849  19.417  0.00  0.00    +0.000 A 
ATOM     22  C   UNL     1      -0.193  12.194  19.035  0.00  0.00    +0.000 A 
ATOM     23  C   UNL     1      -1.019  12.629  18.021  0.00  0.00    +0.000 A 
ATOM     24  S   UNL     1      -2.148  11.433  17.548  0.00  0.00    +0.000 S 
ATOM     25  C   UNL     1      -1.532  10.314  18.691  0.00  0.00    +0.000 A 
ENDBRANCH  18  21
ENDBRANCH  14  18
TORSDOF 2
ENDMDL
MODEL 4
REMARK VINA RESULT:      -7.9      2.024      3.932
REMARK  Name = 
REMARK  4 active torsions:
REMARK  status: ('A' for Active; 'I' for Inactive)
REMARK    1  A    between atoms: C_1  and  N_2
REMARK    2  A    between atoms: N_9  and  C_10
REMARK    3  A    between atoms: C_14  and  S_15
REMARK    4  A    between atoms: S_15  and  C_18
REMARK                            x       y       z     vdW  Elec       q    Type
REMARK                         _______ _______ _______ _____ _____    ______ ____
ROOT
ATOM      1  C   UNL     1       1.237   3.485  18.250  0.00  0.00    +0.000 C 
ATOM      2  N   UNL     1       1.730   3.289  19.594  0.00  0.00    +0.000 NA
ATOM      3  C   UNL     1       3.126   2.777  19.690  0.00  0.00    +0.000 C 
ATOM      4  C   UNL     1       3.172   2.577  21.211  0.00  0.00    +0.000 C 
ATOM      5  C   UNL     1       2.086   3.525  21.730  0.00  0.00    +0.000 C 
ATOM      6  C   UNL     1       1.701   4.427  20.556  0.00  0.00    +0.000 C 
ATOM      7  C   UNL     1       2.606   5.499  19.959  0.00  0.00    +0.000 A 
ATOM      8  C   UNL     1       3.712   5.152  19.191  0.00  0.00    +0.000 A 
ATOM      9  N   UNL     1       3.848   6.101  18.202  0.00  0.00    +0.000 N 
ATOM     10  C   UNL     1       4.476   5.909  16.907  0.00  0.00    +0.000 C 
ATOM     11  C   UNL     1       3.040   7.195  18.497  0.00  0.00    +0.000 A 
ATOM     12  C   UNL     1       2.800   8.389  17.782  0.00  0.00    +0.000 A 
ATOM     13  C   UNL     1       1.881   9.312  18.295  0.00  0.00    +0.000 A 
ATOM     14  C   UNL     1       1.216   9.040  19.488  0.00  0.00    +0.000 A 
ATOM     15  C   UNL     1       1.353   7.807  20.134  0.00  0.00    +0.000 A 
ATOM     16  C   UNL     1       2.296   6.863  19.651  0.00  0.00    +0.000 A 
ATOM     17  C   UNL     1       4.261   3.761  19.227  0.00  0.00    +0.000 C 
ENDROOT
BRANCH  14  18
ATOM     18  S   UNL     1       0.061  10.222  20.110  0.00  0.00    +0.000 S 
ATOM     19  O   UNL     1      -1.156  10.148  19.322  0.00  0.00    +0.000 OA
ATOM     20  O   UNL     1       0.034  10.150  21.558  0.00  0.00    +0.000 OA
BRANCH  18  21
ATOM     21  C   UNL     1       0.721  11.793  19.792  0.00  0.00    +0.000 A 
ATOM     22  C   UNL     1       0.319  12.614  18.693  0.00  0.00    +0.000 A 
ATOM     23  C   UNL     1       1.023  13.798  18.656  0.00  0.00    +0.000 A 
ATOM     24  S   UNL     1       2.169  13.911  19.923  0.00  0.00    +0.000 S 
ATOM     25  C   UNL     1       1.723  12.375  20.541  0.00  0.00    +0.000 A 
ENDBRANCH  18  21
ENDBRANCH  14  18
TORSDOF 2
ENDMDL
MODEL 5
REMARK VINA RESULT:      -7.6      1.971      4.039
REMARK  Name = 
REMARK  4 active torsions:
REMARK  status: ('A' for Active; 'I' for Inactive)
REMARK    1  A    between atoms: C_1  and  N_2
REMARK    2  A    between atoms: N_9  and  C_10
REMARK    3  A    between atoms: C_14  and  S_15
REMARK    4  A    between atoms: S_15  and  C_18
REMARK                            x       y       z     vdW  Elec       q    Type
REMARK                         _______ _______ _______ _____ _____    ______ ____
ROOT
ATOM      1  C   UNL     1       1.278   3.163  18.227  0.00  0.00    +0.000 C 
ATOM      2  N   UNL     1       1.612   3.087  19.631  0.00  0.00    +0.000 NA
ATOM      3  C   UNL     1       2.920   2.444  19.939  0.00  0.00    +0.000 C 
ATOM      4  C   UNL     1       2.795   2.435  21.468  0.00  0.00    +0.000 C 
ATOM      5  C   UNL     1       1.786   3.553  21.752  0.00  0.00    +0.000 C 
ATOM      6  C   UNL     1       1.627   4.335  20.447  0.00  0.00    +0.000 C 
ATOM      7  C   UNL     1       2.709   5.218  19.834  0.00  0.00    +0.000 A 
ATOM      8  C   UNL     1       3.834   4.659  19.237  0.00  0.00    +0.000 A 
ATOM      9  N   UNL     1       4.178   5.455  18.168  0.00  0.00    +0.000 N 
ATOM     10  C   UNL     1       4.900   5.033  16.980  0.00  0.00    +0.000 C 
ATOM     11  C   UNL     1       3.483   6.658  18.243  0.00  0.00    +0.000 A 
ATOM     12  C   UNL     1       3.459   7.771  17.374  0.00  0.00    +0.000 A 
ATOM     13  C   UNL     1       2.613   8.845  17.673  0.00  0.00    +0.000 A 
ATOM     14  C   UNL     1       1.808   8.800  18.808  0.00  0.00    +0.000 A 
ATOM     15  C   UNL     1       1.732   7.652  19.602  0.00  0.00    +0.000 A 
ATOM     16  C   UNL     1       2.597   6.558  19.339  0.00  0.00    +0.000 A 
ATOM     17  C   UNL     1       4.205   3.234  19.494  0.00  0.00    +0.000 C 
ENDROOT
BRANCH  14  18
ATOM     18  S   UNL     1       0.750  10.169  19.158  0.00  0.00    +0.000 S 
ATOM     19  O   UNL     1       1.505  11.399  18.999  0.00  0.00    +0.000 OA
ATOM     20  O   UNL     1      -0.526   9.971  18.499  0.00  0.00    +0.000 OA
BRANCH  18  21
ATOM     21  C   UNL     1       0.354  10.087  20.844  0.00  0.00    +0.000 A 
ATOM     22  C   UNL     1       1.086   9.309  21.793  0.00  0.00    +0.000 A 
ATOM     23  C   UNL     1       0.541   9.397  23.056  0.00  0.00    +0.000 A 
ATOM     24  S   UNL     1      -0.850  10.395  23.092  0.00  0.00    +0.000 S 
ATOM     25  C   UNL     1      -0.727  10.728  21.415  0.00  0.00    +0.000 A 
ENDBRANCH  18  21
ENDBRANCH  14  18
TORSDOF 2
ENDMDL
MODEL 6
REMARK VINA RESULT:      -7.3      1.599      1.970
REMARK  Name = 
REMARK  4 active torsions:
REMARK  status: ('A' for Active; 'I' for Inactive)
REMARK    1  A    between atoms: C_1  and  N_2
REMARK    2  A    between atoms: N_9  and  C_10
REMARK    3  A    between atoms: C_14  and  S_15
REMARK    4  A    between atoms: S_15  and  C_18
REMARK                            x       y       z     vdW  Elec       q    Type
REMARK                         _______ _______ _______ _____ _____    ______ ____
ROOT
ATOM      1  C   UNL     1       6.291   5.216  18.781  0.00  0.00    +0.000 C 
ATOM      2  N   UNL     1       5.931   5.779  17.500  0.00  0.00    +0.000 NA
ATOM      3  C   UNL     1       5.638   4.785  16.429  0.00  0.00    +0.000 C 
ATOM      4  C   UNL     1       5.469   5.772  15.266  0.00  0.00    +0.000 C 
ATOM      5  C   UNL     1       5.114   7.089  15.963  0.00  0.00    +0.000 C 
ATOM      6  C   UNL     1       4.793   6.737  17.417  0.00  0.00    +0.000 C 
ATOM      7  C   UNL     1       3.560   5.958  17.864  0.00  0.00    +0.000 A 
ATOM      8  C   UNL     1       3.453   4.593  17.621  0.00  0.00    +0.000 A 
ATOM      9  N   UNL     1       2.791   4.030  18.689  0.00  0.00    +0.000 N 
ATOM     10  C   UNL     1       2.903   2.654  19.142  0.00  0.00    +0.000 C 
ATOM     11  C   UNL     1       2.220   5.036  19.462  0.00  0.00    +0.000 A 
ATOM     12  C   UNL     1       1.486   4.977  20.667  0.00  0.00    +0.000 A 
ATOM     13  C   UNL     1       1.068   6.171  21.266  0.00  0.00    +0.000 A 
ATOM     14  C   UNL     1       1.386   7.391  20.675  0.00  0.00    +0.000 A 
ATOM     15  C   UNL     1       2.218   7.464  19.555  0.00  0.00    +0.000 A 
ATOM     16  C   UNL     1       2.635   6.270  18.912  0.00  0.00    +0.000 A 
ATOM     17  C   UNL     1       4.336   3.924  16.616  0.00  0.00    +0.000 C 
ENDROOT
BRANCH  14  18
ATOM     18  S   UNL     1       0.847   8.881  21.454  0.00  0.00    +0.000 S 
ATOM     19  O   UNL     1      -0.437   8.642  22.088  0.00  0.00    +0.000 OA
ATOM     20  O   UNL     1       1.954   9.470  22.182  0.00  0.00    +0.000 OA
BRANCH  18  21
ATOM     21  C   UNL     1       0.532  10.029  20.194  0.00  0.00    +0.000 A 
ATOM     22  C   UNL     1      -0.537   9.899  19.254  0.00  0.00    +0.000 A 
ATOM     23  C   UNL     1      -0.542  10.931  18.341  0.00  0.00    +0.000 A 
ATOM     24  S   UNL     1       0.739  12.036  18.605  0.00  0.00    +0.000 S 
ATOM     25  C   UNL     1       1.307  11.145  19.955  0.00  0.00    +0.000 A 
ENDBRANCH  18  21
ENDBRANCH  14  18
TORSDOF 2
ENDMDL
MODEL 7
REMARK VINA RESULT:      -7.0      1.613      2.084
REMARK  Name = 
REMARK  4 active torsions:
REMARK  status: ('A' for Active; 'I' for Inactive)
REMARK    1  A    between atoms: C_1  and  N_2
REMARK    2  A    between atoms: N_9  and  C_10
REMARK    3  A    between atoms: C_14  and  S_15
REMARK    4  A    between atoms: S_15  and  C_18
REMARK                            x       y       z     vdW  Elec       q    Type
REMARK                         _______ _______ _______ _____ _____    ______ ____
ROOT
ATOM      1  C   UNL     1       6.617   6.043  18.508  0.00  0.00    +0.000 C 
ATOM      2  N   UNL     1       6.199   5.888  17.134  0.00  0.00    +0.000 NA
ATOM      3  C   UNL     1       5.998   4.481  16.687  0.00  0.00    +0.000 C 
ATOM      4  C   UNL     1       5.730   4.768  15.203  0.00  0.00    +0.000 C 
ATOM      5  C   UNL     1       5.252   6.223  15.201  0.00  0.00    +0.000 C 
ATOM      6  C   UNL     1       4.973   6.590  16.660  0.00  0.00    +0.000 C 
ATOM      7  C   UNL     1       3.823   6.024  17.486  0.00  0.00    +0.000 A 
ATOM      8  C   UNL     1       3.847   4.708  17.934  0.00  0.00    +0.000 A 
ATOM      9  N   UNL     1       3.247   4.676  19.173  0.00  0.00    +0.000 N 
ATOM     10  C   UNL     1       3.493   3.703  20.223  0.00  0.00    +0.000 C 
ATOM     11  C   UNL     1       2.585   5.879  19.396  0.00  0.00    +0.000 A 
ATOM     12  C   UNL     1       1.865   6.348  20.518  0.00  0.00    +0.000 A 
ATOM     13  C   UNL     1       1.337   7.643  20.491  0.00  0.00    +0.000 A 
ATOM     14  C   UNL     1       1.533   8.449  19.373  0.00  0.00    +0.000 A 
ATOM     15  C   UNL     1       2.349   8.042  18.314  0.00  0.00    +0.000 A 
ATOM     16  C   UNL     1       2.876   6.725  18.302  0.00  0.00    +0.000 A 
ATOM     17  C   UNL     1       4.785   3.713  17.329  0.00  0.00    +0.000 C 
ENDROOT
BRANCH  14  18
ATOM     18  S   UNL     1       0.856  10.081  19.369  0.00  0.00    +0.000 S 
ATOM     19  O   UNL     1       1.943  11.039  19.278  0.00  0.00    +0.000 OA
ATOM     20  O   UNL     1      -0.276  10.128  18.465  0.00  0.00    +0.000 OA
BRANCH  18  21
ATOM     21  C   UNL     1       0.144  10.340  20.928  0.00  0.00    +0.000 A 
ATOM     22  C   UNL     1       0.303   9.445  22.031  0.00  0.00    +0.000 A 
ATOM     23  C   UNL     1      -0.392   9.872  23.141  0.00  0.00    +0.000 A 
ATOM     24  S   UNL     1      -1.244  11.329  22.850  0.00  0.00    +0.000 S 
ATOM     25  C   UNL     1      -0.677  11.406  21.234  0.00  0.00    +0.000 A 
ENDBRANCH  18  21
ENDBRANCH  14  18
TORSDOF 2
ENDMDL
MODEL 8
REMARK VINA RESULT:      -6.7      3.750      7.062
REMARK  Name = 
REMARK  4 active torsions:
REMARK  status: ('A' for Active; 'I' for Inactive)
REMARK    1  A    between atoms: C_1  and  N_2
REMARK    2  A    between atoms: N_9  and  C_10
REMARK    3  A    between atoms: C_14  and  S_15
REMARK    4  A    between atoms: S_15  and  C_18
REMARK                            x       y       z     vdW  Elec       q    Type
REMARK                         _______ _______ _______ _____ _____    ______ ____
ROOT
ATOM      1  C   UNL     1      -0.998  10.022  18.290  0.00  0.00    +0.000 C 
ATOM      2  N   UNL     1       0.150  10.901  18.284  0.00  0.00    +0.000 NA
ATOM      3  C   UNL     1       0.198  11.892  19.396  0.00  0.00    +0.000 C 
ATOM      4  C   UNL     1       1.430  12.676  18.926  0.00  0.00    +0.000 C 
ATOM      5  C   UNL     1       2.169  11.677  18.029  0.00  0.00    +0.000 C 
ATOM      6  C   UNL     1       1.520  10.313  18.271  0.00  0.00    +0.000 C 
ATOM      7  C   UNL     1       1.642   9.517  19.566  0.00  0.00    +0.000 A 
ATOM      8  C   UNL     1       0.975   9.920  20.717  0.00  0.00    +0.000 A 
ATOM      9  N   UNL     1       0.586   8.786  21.394  0.00  0.00    +0.000 N 
ATOM     10  C   UNL     1      -0.538   8.673  22.308  0.00  0.00    +0.000 C 
ATOM     11  C   UNL     1       1.239   7.681  20.857  0.00  0.00    +0.000 A 
ATOM     12  C   UNL     1       1.149   6.307  21.171  0.00  0.00    +0.000 A 
ATOM     13  C   UNL     1       1.895   5.390  20.423  0.00  0.00    +0.000 A 
ATOM     14  C   UNL     1       2.703   5.839  19.382  0.00  0.00    +0.000 A 
ATOM     15  C   UNL     1       2.701   7.179  18.983  0.00  0.00    +0.000 A 
ATOM     16  C   UNL     1       1.975   8.135  19.740  0.00  0.00    +0.000 A 
ATOM     17  C   UNL     1       0.430  11.308  20.837  0.00  0.00    +0.000 C 
ENDROOT
BRANCH  14  18
ATOM     18  S   UNL     1       3.632   4.659  18.453  0.00  0.00    +0.000 S 
ATOM     19  O   UNL     1       3.831   3.474  19.267  0.00  0.00    +0.000 OA
ATOM     20  O   UNL     1       3.094   4.575  17.109  0.00  0.00    +0.000 OA
BRANCH  18  21
ATOM     21  C   UNL     1       5.214   5.328  18.218  0.00  0.00    +0.000 A 
ATOM     22  C   UNL     1       5.679   5.843  16.968  0.00  0.00    +0.000 A 
ATOM     23  C   UNL     1       6.982   6.284  17.050  0.00  0.00    +0.000 A 
ATOM     24  S   UNL     1       7.643   6.063  18.614  0.00  0.00    +0.000 S 
ATOM     25  C   UNL     1       6.183   5.383  19.200  0.00  0.00    +0.000 A 
ENDBRANCH  18  21
ENDBRANCH  14  18
TORSDOF 2
ENDMDL
MODEL 9
REMARK VINA RESULT:      -6.6      6.183     10.294
REMARK  Name = 
REMARK  4 active torsions:
REMARK  status: ('A' for Active; 'I' for Inactive)
REMARK    1  A    between atoms: C_1  and  N_2
REMARK    2  A    between atoms: N_9  and  C_10
REMARK    3  A    between atoms: C_14  and  S_15
REMARK    4  A    between atoms: S_15  and  C_18
REMARK                            x       y       z     vdW  Elec       q    Type
REMARK                         _______ _______ _______ _____ _____    ______ ____
ROOT
ATOM      1  C   UNL     1      -7.062  10.349  19.639  0.00  0.00    +0.000 C 
ATOM      2  N   UNL     1      -6.669  11.232  18.566  0.00  0.00    +0.000 NA
ATOM      3  C   UNL     1      -7.611  12.353  18.289  0.00  0.00    +0.000 C 
ATOM      4  C   UNL     1      -6.915  12.909  17.039  0.00  0.00    +0.000 C 
ATOM      5  C   UNL     1      -5.471  12.417  17.185  0.00  0.00    +0.000 C 
ATOM      6  C   UNL     1      -5.334  11.893  18.616  0.00  0.00    +0.000 C 
ATOM      7  C   UNL     1      -5.352  12.773  19.861  0.00  0.00    +0.000 A 
ATOM      8  C   UNL     1      -6.532  13.360  20.303  0.00  0.00    +0.000 A 
ATOM      9  N   UNL     1      -6.500  13.380  21.679  0.00  0.00    +0.000 N 
ATOM     10  C   UNL     1      -7.650  13.391  22.567  0.00  0.00    +0.000 C 
ATOM     11  C   UNL     1      -5.210  13.090  22.115  0.00  0.00    +0.000 A 
ATOM     12  C   UNL     1      -4.681  12.950  23.417  0.00  0.00    +0.000 A 
ATOM     13  C   UNL     1      -3.335  12.597  23.567  0.00  0.00    +0.000 A 
ATOM     14  C   UNL     1      -2.545  12.381  22.442  0.00  0.00    +0.000 A 
ATOM     15  C   UNL     1      -3.091  12.393  21.154  0.00  0.00    +0.000 A 
ATOM     16  C   UNL     1      -4.445  12.774  20.971  0.00  0.00    +0.000 A 
ATOM     17  C   UNL     1      -7.719  13.461  19.399  0.00  0.00    +0.000 C 
ENDROOT
BRANCH  14  18
ATOM     18  S   UNL     1      -0.851  11.935  22.662  0.00  0.00    +0.000 S 
ATOM     19  O   UNL     1      -0.099  13.117  23.042  0.00  0.00    +0.000 OA
ATOM     20  O   UNL     1      -0.774  10.707  23.429  0.00  0.00    +0.000 OA
BRANCH  18  21
ATOM     21  C   UNL     1      -0.238  11.481  21.105  0.00  0.00    +0.000 A 
ATOM     22  C   UNL     1      -0.404  10.180  20.537  0.00  0.00    +0.000 A 
ATOM     23  C   UNL     1       0.206  10.078  19.305  0.00  0.00    +0.000 A 
ATOM     24  S   UNL     1       0.986  11.532  18.847  0.00  0.00    +0.000 S 
ATOM     25  C   UNL     1       0.502  12.316  20.293  0.00  0.00    +0.000 A 
ENDBRANCH  18  21
ENDBRANCH  14  18
TORSDOF 2
ENDMDL
