MODEL 1
REMARK VINA RESULT:      -7.6      0.000      0.000
REMARK  Name = 
REMARK  9 active torsions:
REMARK  status: ('A' for Active; 'I' for Inactive)
REMARK    1  A    between atoms: C_1  and  O_2
REMARK    2  A    between atoms: O_2  and  C_3
REMARK    3  A    between atoms: C_6  and  O_7
REMARK    4  A    between atoms: O_7  and  C_8
REMARK    5  A    between atoms: C_8  and  C_9
REMARK    6  A    between atoms: C_22  and  O_23
REMARK    7  A    between atoms: O_23  and  C_24
REMARK    8  A    between atoms: C_25  and  O_26
REMARK    9  A    between atoms: O_26  and  C_27
REMARK                            x       y       z     vdW  Elec       q    Type
REMARK                         _______ _______ _______ _____ _____    ______ ____
ROOT
ATOM      1  C   UNL     1       3.166   6.497  18.212  0.00  0.00    +0.000 A 
ATOM      2  C   UNL     1       4.437   6.953  17.833  0.00  0.00    +0.000 A 
ATOM      3  C   UNL     1       5.330   6.114  17.129  0.00  0.00    +0.000 A 
ATOM      4  C   UNL     1       6.585   6.503  16.624  0.00  0.00    +0.000 A 
ATOM      5  N   UNL     1       7.390   5.682  15.923  0.00  0.00    +0.000 NA
ATOM      6  C   UNL     1       6.944   4.443  15.742  0.00  0.00    +0.000 A 
ATOM      7  N   UNL     1       5.793   3.955  16.200  0.00  0.00    +0.000 NA
ATOM      8  C   UNL     1       4.977   4.781  16.879  0.00  0.00    +0.000 A 
ATOM      9  C   UNL     1       3.735   4.309  17.347  0.00  0.00    +0.000 A 
ATOM     10  C   UNL     1       2.811   5.155  17.998  0.00  0.00    +0.000 A 
ENDROOT
BRANCH   1  12
ATOM     11  C   UNL     1       2.097   8.604  18.135  0.00  0.00    +0.000 C 
ATOM     12  O   UNL     1       2.261   7.346  18.791  0.00  0.00    +0.000 OA
ENDBRANCH   1  12
BRANCH   9  13
ATOM     13  O   UNL     1       3.449   2.995  17.007  0.00  0.00    +0.000 OA
ATOM     14  C   UNL     1       3.638   2.021  18.028  0.00  0.00    +0.000 C 
ENDBRANCH   9  13
BRANCH  10  15
ATOM     15  O   UNL     1       1.573   4.614  18.234  0.00  0.00    +0.000 OA
ATOM     16  C   UNL     1       1.254   4.166  19.544  0.00  0.00    +0.000 C 
ENDBRANCH  10  15
BRANCH   4  17
ATOM     17  O   UNL     1       7.008   7.823  16.781  0.00  0.00    +0.000 OA
BRANCH  17  18
ATOM     18  C   UNL     1       7.946   7.932  17.869  0.00  0.00    +0.000 C 
BRANCH  18  19
ATOM     19  C   UNL     1       8.326   9.353  18.241  0.00  0.00    +0.000 A 
ATOM     20  C   UNL     1       9.286   9.550  19.268  0.00  0.00    +0.000 A 
ATOM     21  C   UNL     1       9.794  10.819  19.560  0.00  0.00    +0.000 A 
ATOM     22  C   UNL     1       9.333  11.877  18.809  0.00  0.00    +0.000 A 
ATOM     23  C   UNL     1       8.409  11.702  17.805  0.00  0.00    +0.000 A 
ATOM     24  C   UNL     1       7.891  10.457  17.491  0.00  0.00    +0.000 A 
ATOM     25  O   UNL     1       8.111  12.872  17.175  0.00  0.00    +0.000 OA
ATOM     26  C   UNL     1       8.906  13.805  17.940  0.00  0.00    +0.000 C 
ATOM     27  O   UNL     1       9.726  13.171  18.941  0.00  0.00    +0.000 OA
ENDBRANCH  18  19
ENDBRANCH  17  18
ENDBRANCH   4  17
TORSDOF 6
ENDMDL
MODEL 2
REMARK VINA RESULT:      -7.4      0.854      1.488
REMARK  Name = 
REMARK  9 active torsions:
REMARK  status: ('A' for Active; 'I' for Inactive)
REMARK    1  A    between atoms: C_1  and  O_2
REMARK    2  A    between atoms: O_2  and  C_3
REMARK    3  A    between atoms: C_6  and  O_7
REMARK    4  A    between atoms: O_7  and  C_8
REMARK    5  A    between atoms: C_8  and  C_9
REMARK    6  A    between atoms: C_22  and  O_23
REMARK    7  A    between atoms: O_23  and  C_24
REMARK    8  A    between atoms: C_25  and  O_26
REMARK    9  A    between atoms: O_26  and  C_27
REMARK                            x       y       z     vdW  Elec       q    Type
REMARK                         _______ _______ _______ _____ _____    ______ ____
ROOT
ATOM      1  C   UNL     1       3.058   6.602  18.227  0.00  0.00    +0.000 A 
ATOM      2  C   UNL     1       4.344   7.105  17.979  0.00  0.00    +0.000 A 
ATOM      3  C   UNL     1       5.326   6.311  17.344  0.00  0.00    +0.000 A 
ATOM      4  C   UNL     1       6.608   6.750  16.967  0.00  0.00    +0.000 A 
ATOM      5  N   UNL     1       7.501   5.971  16.328  0.00  0.00    +0.000 NA
ATOM      6  C   UNL     1       7.115   4.723  16.080  0.00  0.00    +0.000 A 
ATOM      7  N   UNL     1       5.943   4.189  16.418  0.00  0.00    +0.000 NA
ATOM      8  C   UNL     1       5.040   4.974  17.035  0.00  0.00    +0.000 A 
ATOM      9  C   UNL     1       3.777   4.453  17.375  0.00  0.00    +0.000 A 
ATOM     10  C   UNL     1       2.769   5.255  17.954  0.00  0.00    +0.000 A 
ENDROOT
BRANCH   1  12
ATOM     11  C   UNL     1       2.038   7.497  20.162  0.00  0.00    +0.000 C 
ATOM     12  O   UNL     1       2.076   7.409  18.737  0.00  0.00    +0.000 OA
ENDBRANCH   1  12
BRANCH   9  13
ATOM     13  O   UNL     1       3.567   3.139  16.982  0.00  0.00    +0.000 OA
ATOM     14  C   UNL     1       3.751   2.143  17.981  0.00  0.00    +0.000 C 
ENDBRANCH   9  13
BRANCH  10  15
ATOM     15  O   UNL     1       1.533   4.671  18.062  0.00  0.00    +0.000 OA
ATOM     16  C   UNL     1       1.179   4.025  19.276  0.00  0.00    +0.000 C 
ENDBRANCH  10  15
BRANCH   4  17
ATOM     17  O   UNL     1       6.972   8.078  17.190  0.00  0.00    +0.000 OA
BRANCH  17  18
ATOM     18  C   UNL     1       8.124   8.153  18.051  0.00  0.00    +0.000 C 
BRANCH  18  19
ATOM     19  C   UNL     1       8.614   9.561  18.336  0.00  0.00    +0.000 A 
ATOM     20  C   UNL     1       8.211  10.607  17.466  0.00  0.00    +0.000 A 
ATOM     21  C   UNL     1       8.499  11.945  17.750  0.00  0.00    +0.000 A 
ATOM     22  C   UNL     1       9.186  12.216  18.911  0.00  0.00    +0.000 A 
ATOM     23  C   UNL     1       9.577  11.214  19.769  0.00  0.00    +0.000 A 
ATOM     24  C   UNL     1       9.303   9.882  19.517  0.00  0.00    +0.000 A 
ATOM     25  O   UNL     1      10.219  11.703  20.866  0.00  0.00    +0.000 OA
ATOM     26  C   UNL     1      10.240  13.116  20.564  0.00  0.00    +0.000 C 
ATOM     27  O   UNL     1       9.536  13.453  19.353  0.00  0.00    +0.000 OA
ENDBRANCH  18  19
ENDBRANCH  17  18
ENDBRANCH   4  17
TORSDOF 6
ENDMDL
MODEL 3
REMARK VINA RESULT:      -7.1      3.753      7.053
REMARK  Name = 
REMARK  9 active torsions:
REMARK  status: ('A' for Active; 'I' for Inactive)
REMARK    1  A    between atoms: C_1  and  O_2
REMARK    2  A    between atoms: O_2  and  C_3
REMARK    3  A    between atoms: C_6  and  O_7
REMARK    4  A    between atoms: O_7  and  C_8
REMARK    5  A    between atoms: C_8  and  C_9
REMARK    6  A    between atoms: C_22  and  O_23
REMARK    7  A    between atoms: O_23  and  C_24
REMARK    8  A    between atoms: C_25  and  O_26
REMARK    9  A    between atoms: O_26  and  C_27
REMARK                            x       y       z     vdW  Elec       q    Type
REMARK                         _______ _______ _______ _____ _____    ______ ____
ROOT
ATOM      1  C   UNL     1       4.860   6.212  17.432  0.00  0.00    +0.000 A 
ATOM      2  C   UNL     1       3.846   6.803  18.201  0.00  0.00    +0.000 A 
ATOM      3  C   UNL     1       3.077   6.035  19.104  0.00  0.00    +0.000 A 
ATOM      4  C   UNL     1       2.106   6.546  19.985  0.00  0.00    +0.000 A 
ATOM      5  N   UNL     1       1.422   5.784  20.860  0.00  0.00    +0.000 NA
ATOM      6  C   UNL     1       1.697   4.484  20.839  0.00  0.00    +0.000 A 
ATOM      7  N   UNL     1       2.569   3.885  20.030  0.00  0.00    +0.000 NA
ATOM      8  C   UNL     1       3.271   4.649  19.173  0.00  0.00    +0.000 A 
ATOM      9  C   UNL     1       4.227   4.054  18.327  0.00  0.00    +0.000 A 
ATOM     10  C   UNL     1       5.042   4.820  17.465  0.00  0.00    +0.000 A 
ENDROOT
BRANCH   1  12
ATOM     11  C   UNL     1       6.869   7.446  17.276  0.00  0.00    +0.000 C 
ATOM     12  O   UNL     1       5.678   6.977  16.644  0.00  0.00    +0.000 OA
ENDBRANCH   1  12
BRANCH   9  13
ATOM     13  O   UNL     1       4.386   2.687  18.503  0.00  0.00    +0.000 OA
ATOM     14  C   UNL     1       3.484   1.848  17.791  0.00  0.00    +0.000 C 
ENDBRANCH   9  13
BRANCH  10  15
ATOM     15  O   UNL     1       6.052   4.136  16.838  0.00  0.00    +0.000 OA
ATOM     16  C   UNL     1       5.929   3.838  15.455  0.00  0.00    +0.000 C 
ENDBRANCH  10  15
BRANCH   4  17
ATOM     17  O   UNL     1       1.873   7.921  20.025  0.00  0.00    +0.000 OA
BRANCH  17  18
ATOM     18  C   UNL     1       1.470   8.331  21.346  0.00  0.00    +0.000 C 
BRANCH  18  19
ATOM     19  C   UNL     1       0.409   9.416  21.380  0.00  0.00    +0.000 A 
ATOM     20  C   UNL     1      -0.067   9.858  22.641  0.00  0.00    +0.000 A 
ATOM     21  C   UNL     1      -0.930  10.952  22.754  0.00  0.00    +0.000 A 
ATOM     22  C   UNL     1      -1.300  11.593  21.594  0.00  0.00    +0.000 A 
ATOM     23  C   UNL     1      -0.840  11.182  20.364  0.00  0.00    +0.000 A 
ATOM     24  C   UNL     1       0.017  10.105  20.221  0.00  0.00    +0.000 A 
ATOM     25  O   UNL     1      -1.308  11.969  19.355  0.00  0.00    +0.000 OA
ATOM     26  C   UNL     1      -2.159  12.877  20.088  0.00  0.00    +0.000 C 
ATOM     27  O   UNL     1      -2.113  12.678  21.515  0.00  0.00    +0.000 OA
ENDBRANCH  18  19
ENDBRANCH  17  18
ENDBRANCH   4  17
TORSDOF 6
ENDMDL
MODEL 4
REMARK VINA RESULT:      -7.1      4.898      7.355
REMARK  Name = 
REMARK  9 active torsions:
REMARK  status: ('A' for Active; 'I' for Inactive)
REMARK    1  A    between atoms: C_1  and  O_2
REMARK    2  A    between atoms: O_2  and  C_3
REMARK    3  A    between atoms: C_6  and  O_7
REMARK    4  A    between atoms: O_7  and  C_8
REMARK    5  A    between atoms: C_8  and  C_9
REMARK    6  A    between atoms: C_22  and  O_23
REMARK    7  A    between atoms: O_23  and  C_24
REMARK    8  A    between atoms: C_25  and  O_26
REMARK    9  A    between atoms: O_26  and  C_27
REMARK                            x       y       z     vdW  Elec       q    Type
REMARK                         _______ _______ _______ _____ _____    ______ ____
ROOT
ATOM      1  C   UNL     1       2.950   3.873  20.619  0.00  0.00    +0.000 A 
ATOM      2  C   UNL     1       2.328   5.118  20.797  0.00  0.00    +0.000 A 
ATOM      3  C   UNL     1       2.508   6.161  19.862  0.00  0.00    +0.000 A 
ATOM      4  C   UNL     1       1.858   7.408  19.899  0.00  0.00    +0.000 A 
ATOM      5  N   UNL     1       2.029   8.363  18.964  0.00  0.00    +0.000 NA
ATOM      6  C   UNL     1       2.881   8.076  17.986  0.00  0.00    +0.000 A 
ATOM      7  N   UNL     1       3.575   6.946  17.865  0.00  0.00    +0.000 NA
ATOM      8  C   UNL     1       3.387   5.981  18.785  0.00  0.00    +0.000 A 
ATOM      9  C   UNL     1       4.078   4.760  18.669  0.00  0.00    +0.000 A 
ATOM     10  C   UNL     1       3.859   3.690  19.564  0.00  0.00    +0.000 A 
ENDROOT
BRANCH   1  12
ATOM     11  C   UNL     1       1.299   2.534  21.651  0.00  0.00    +0.000 C 
ATOM     12  O   UNL     1       2.683   2.828  21.463  0.00  0.00    +0.000 OA
ENDBRANCH   1  12
BRANCH   9  13
ATOM     13  O   UNL     1       4.884   4.654  17.545  0.00  0.00    +0.000 OA
ATOM     14  C   UNL     1       4.267   4.138  16.370  0.00  0.00    +0.000 C 
ENDBRANCH   9  13
BRANCH  10  15
ATOM     15  O   UNL     1       4.456   2.501  19.227  0.00  0.00    +0.000 OA
ATOM     16  C   UNL     1       3.676   1.488  18.611  0.00  0.00    +0.000 C 
ENDBRANCH  10  15
BRANCH   4  17
ATOM     17  O   UNL     1       0.929   7.667  20.906  0.00  0.00    +0.000 OA
BRANCH  17  18
ATOM     18  C   UNL     1       1.258   8.884  21.604  0.00  0.00    +0.000 C 
BRANCH  18  19
ATOM     19  C   UNL     1       0.128   9.893  21.691  0.00  0.00    +0.000 A 
ATOM     20  C   UNL     1      -0.469  10.133  22.956  0.00  0.00    +0.000 A 
ATOM     21  C   UNL     1      -1.408  11.152  23.139  0.00  0.00    +0.000 A 
ATOM     22  C   UNL     1      -1.732  11.923  22.046  0.00  0.00    +0.000 A 
ATOM     23  C   UNL     1      -1.156  11.709  20.815  0.00  0.00    +0.000 A 
ATOM     24  C   UNL     1      -0.221  10.710  20.604  0.00  0.00    +0.000 A 
ATOM     25  O   UNL     1      -1.598  12.598  19.883  0.00  0.00    +0.000 OA
ATOM     26  C   UNL     1      -2.560  13.349  20.655  0.00  0.00    +0.000 C 
ATOM     27  O   UNL     1      -2.607  12.962  22.043  0.00  0.00    +0.000 OA
ENDBRANCH  18  19
ENDBRANCH  17  18
ENDBRANCH   4  17
TORSDOF 6
ENDMDL
MODEL 5
REMARK VINA RESULT:      -7.0      3.832      7.177
REMARK  Name = 
REMARK  9 active torsions:
REMARK  status: ('A' for Active; 'I' for Inactive)
REMARK    1  A    between atoms: C_1  and  O_2
REMARK    2  A    between atoms: O_2  and  C_3
REMARK    3  A    between atoms: C_6  and  O_7
REMARK    4  A    between atoms: O_7  and  C_8
REMARK    5  A    between atoms: C_8  and  C_9
REMARK    6  A    between atoms: C_22  and  O_23
REMARK    7  A    between atoms: O_23  and  C_24
REMARK    8  A    between atoms: C_25  and  O_26
REMARK    9  A    between atoms: O_26  and  C_27
REMARK                            x       y       z     vdW  Elec       q    Type
REMARK                         _______ _______ _______ _____ _____    ______ ____
ROOT
ATOM      1  C   UNL     1       4.927   6.195  17.405  0.00  0.00    +0.000 A 
ATOM      2  C   UNL     1       3.916   6.802  18.166  0.00  0.00    +0.000 A 
ATOM      3  C   UNL     1       3.135   6.048  19.069  0.00  0.00    +0.000 A 
ATOM      4  C   UNL     1       2.165   6.575  19.942  0.00  0.00    +0.000 A 
ATOM      5  N   UNL     1       1.469   5.826  20.818  0.00  0.00    +0.000 NA
ATOM      6  C   UNL     1       1.728   4.522  20.806  0.00  0.00    +0.000 A 
ATOM      7  N   UNL     1       2.597   3.909  20.005  0.00  0.00    +0.000 NA
ATOM      8  C   UNL     1       3.312   4.660  19.147  0.00  0.00    +0.000 A 
ATOM      9  C   UNL     1       4.266   4.049  18.310  0.00  0.00    +0.000 A 
ATOM     10  C   UNL     1       5.093   4.801  17.447  0.00  0.00    +0.000 A 
ENDROOT
BRANCH   1  12
ATOM     11  C   UNL     1       6.960   7.390  17.246  0.00  0.00    +0.000 C 
ATOM     12  O   UNL     1       5.758   6.946  16.616  0.00  0.00    +0.000 OA
ENDBRANCH   1  12
BRANCH   9  13
ATOM     13  O   UNL     1       4.408   2.682  18.494  0.00  0.00    +0.000 OA
ATOM     14  C   UNL     1       3.491   1.849  17.794  0.00  0.00    +0.000 C 
ENDBRANCH   9  13
BRANCH  10  15
ATOM     15  O   UNL     1       6.099   4.102  16.829  0.00  0.00    +0.000 OA
ATOM     16  C   UNL     1       5.960   3.762  15.457  0.00  0.00    +0.000 C 
ENDBRANCH  10  15
BRANCH   4  17
ATOM     17  O   UNL     1       1.947   7.952  19.974  0.00  0.00    +0.000 OA
BRANCH  17  18
ATOM     18  C   UNL     1       1.322   8.342  21.212  0.00  0.00    +0.000 C 
BRANCH  18  19
ATOM     19  C   UNL     1       0.475   9.598  21.130  0.00  0.00    +0.000 A 
ATOM     20  C   UNL     1      -0.022   9.998  19.862  0.00  0.00    +0.000 A 
ATOM     21  C   UNL     1      -0.928  11.054  19.732  0.00  0.00    +0.000 A 
ATOM     22  C   UNL     1      -1.328  11.694  20.883  0.00  0.00    +0.000 A 
ATOM     23  C   UNL     1      -0.862  11.314  22.120  0.00  0.00    +0.000 A 
ATOM     24  C   UNL     1       0.032  10.270  22.280  0.00  0.00    +0.000 A 
ATOM     25  O   UNL     1      -1.404  12.061  23.122  0.00  0.00    +0.000 OA
ATOM     26  C   UNL     1      -2.211  12.990  22.365  0.00  0.00    +0.000 C 
ATOM     27  O   UNL     1      -2.211  12.726  20.948  0.00  0.00    +0.000 OA
ENDBRANCH  18  19
ENDBRANCH  17  18
ENDBRANCH   4  17
TORSDOF 6
ENDMDL
MODEL 6
REMARK VINA RESULT:      -7.0      5.523      9.239
REMARK  Name = 
REMARK  9 active torsions:
REMARK  status: ('A' for Active; 'I' for Inactive)
REMARK    1  A    between atoms: C_1  and  O_2
REMARK    2  A    between atoms: O_2  and  C_3
REMARK    3  A    between atoms: C_6  and  O_7
REMARK    4  A    between atoms: O_7  and  C_8
REMARK    5  A    between atoms: C_8  and  C_9
REMARK    6  A    between atoms: C_22  and  O_23
REMARK    7  A    between atoms: O_23  and  C_24
REMARK    8  A    between atoms: C_25  and  O_26
REMARK    9  A    between atoms: O_26  and  C_27
REMARK                            x       y       z     vdW  Elec       q    Type
REMARK                         _______ _______ _______ _____ _____    ______ ____
ROOT
ATOM      1  C   UNL     1      -2.535  10.435  17.462  0.00  0.00    +0.000 A 
ATOM      2  C   UNL     1      -1.257  10.088  17.925  0.00  0.00    +0.000 A 
ATOM      3  C   UNL     1      -0.727  10.669  19.099  0.00  0.00    +0.000 A 
ATOM      4  C   UNL     1       0.499  10.323  19.696  0.00  0.00    +0.000 A 
ATOM      5  N   UNL     1       0.950  10.873  20.840  0.00  0.00    +0.000 NA
ATOM      6  C   UNL     1       0.173  11.803  21.385  0.00  0.00    +0.000 A 
ATOM      7  N   UNL     1      -0.988  12.234  20.895  0.00  0.00    +0.000 NA
ATOM      8  C   UNL     1      -1.452  11.667  19.766  0.00  0.00    +0.000 A 
ATOM      9  C   UNL     1      -2.693  12.072  19.238  0.00  0.00    +0.000 A 
ATOM     10  C   UNL     1      -3.257  11.456  18.099  0.00  0.00    +0.000 A 
ENDROOT
BRANCH   1  12
ATOM     11  C   UNL     1      -2.895  10.422  15.126  0.00  0.00    +0.000 C 
ATOM     12  O   UNL     1      -3.092   9.788  16.390  0.00  0.00    +0.000 OA
ENDBRANCH   1  12
BRANCH   9  13
ATOM     13  O   UNL     1      -3.360  13.025  19.993  0.00  0.00    +0.000 OA
ATOM     14  C   UNL     1      -4.158  12.537  21.066  0.00  0.00    +0.000 C 
ENDBRANCH   9  13
BRANCH  10  15
ATOM     15  O   UNL     1      -4.547  11.820  17.805  0.00  0.00    +0.000 OA
ATOM     16  C   UNL     1      -5.609  10.951  18.170  0.00  0.00    +0.000 C 
ENDBRANCH  10  15
BRANCH   4  17
ATOM     17  O   UNL     1       1.272   9.307  19.135  0.00  0.00    +0.000 OA
BRANCH  17  18
ATOM     18  C   UNL     1       1.560   8.286  20.109  0.00  0.00    +0.000 C 
BRANCH  18  19
ATOM     19  C   UNL     1       2.192   7.027  19.544  0.00  0.00    +0.000 A 
ATOM     20  C   UNL     1       2.908   7.119  18.323  0.00  0.00    +0.000 A 
ATOM     21  C   UNL     1       3.640   6.038  17.822  0.00  0.00    +0.000 A 
ATOM     22  C   UNL     1       3.645   4.877  18.561  0.00  0.00    +0.000 A 
ATOM     23  C   UNL     1       2.963   4.774  19.751  0.00  0.00    +0.000 A 
ATOM     24  C   UNL     1       2.234   5.828  20.273  0.00  0.00    +0.000 A 
ATOM     25  O   UNL     1       3.124   3.551  20.328  0.00  0.00    +0.000 OA
ATOM     26  C   UNL     1       3.930   2.883  19.333  0.00  0.00    +0.000 C 
ATOM     27  O   UNL     1       4.312   3.737  18.237  0.00  0.00    +0.000 OA
ENDBRANCH  18  19
ENDBRANCH  17  18
ENDBRANCH   4  17
TORSDOF 6
ENDMDL
MODEL 7
REMARK VINA RESULT:      -7.0      5.198      8.846
REMARK  Name = 
REMARK  9 active torsions:
REMARK  status: ('A' for Active; 'I' for Inactive)
REMARK    1  A    between atoms: C_1  and  O_2
REMARK    2  A    between atoms: O_2  and  C_3
REMARK    3  A    between atoms: C_6  and  O_7
REMARK    4  A    between atoms: O_7  and  C_8
REMARK    5  A    between atoms: C_8  and  C_9
REMARK    6  A    between atoms: C_22  and  O_23
REMARK    7  A    between atoms: O_23  and  C_24
REMARK    8  A    between atoms: C_25  and  O_26
REMARK    9  A    between atoms: O_26  and  C_27
REMARK                            x       y       z     vdW  Elec       q    Type
REMARK                         _______ _______ _______ _____ _____    ______ ____
ROOT
ATOM      1  C   UNL     1      -2.905  10.834  17.278  0.00  0.00    +0.000 A 
ATOM      2  C   UNL     1      -1.605  10.311  17.353  0.00  0.00    +0.000 A 
ATOM      3  C   UNL     1      -0.829  10.457  18.525  0.00  0.00    +0.000 A 
ATOM      4  C   UNL     1       0.442   9.891  18.734  0.00  0.00    +0.000 A 
ATOM      5  N   UNL     1       1.133  10.021  19.883  0.00  0.00    +0.000 NA
ATOM      6  C   UNL     1       0.554  10.749  20.832  0.00  0.00    +0.000 A 
ATOM      7  N   UNL     1      -0.627  11.356  20.736  0.00  0.00    +0.000 NA
ATOM      8  C   UNL     1      -1.329  11.207  19.598  0.00  0.00    +0.000 A 
ATOM      9  C   UNL     1      -2.598  11.806  19.474  0.00  0.00    +0.000 A 
ATOM     10  C   UNL     1      -3.405  11.616  18.332  0.00  0.00    +0.000 A 
ENDROOT
BRANCH   1  12
ATOM     11  C   UNL     1      -2.995  10.379  14.961  0.00  0.00    +0.000 C 
ATOM     12  O   UNL     1      -3.695  10.593  16.186  0.00  0.00    +0.000 OA
ENDBRANCH   1  12
BRANCH   9  13
ATOM     13  O   UNL     1      -3.032  12.483  20.605  0.00  0.00    +0.000 OA
ATOM     14  C   UNL     1      -2.840  13.893  20.611  0.00  0.00    +0.000 C 
ENDBRANCH   9  13
BRANCH  10  15
ATOM     15  O   UNL     1      -4.686  12.102  18.421  0.00  0.00    +0.000 OA
ATOM     16  C   UNL     1      -5.729  11.225  18.821  0.00  0.00    +0.000 C 
ENDBRANCH  10  15
BRANCH   4  17
ATOM     17  O   UNL     1       1.007   9.088  17.743  0.00  0.00    +0.000 OA
BRANCH  17  18
ATOM     18  C   UNL     1       2.427   8.952  17.945  0.00  0.00    +0.000 C 
BRANCH  18  19
ATOM     19  C   UNL     1       2.948   7.529  17.863  0.00  0.00    +0.000 A 
ATOM     20  C   UNL     1       2.108   6.474  18.306  0.00  0.00    +0.000 A 
ATOM     21  C   UNL     1       2.460   5.134  18.123  0.00  0.00    +0.000 A 
ATOM     22  C   UNL     1       3.653   4.871  17.489  0.00  0.00    +0.000 A 
ATOM     23  C   UNL     1       4.475   5.881  17.046  0.00  0.00    +0.000 A 
ATOM     24  C   UNL     1       4.151   7.216  17.211  0.00  0.00    +0.000 A 
ATOM     25  O   UNL     1       5.588   5.400  16.427  0.00  0.00    +0.000 OA
ATOM     26  C   UNL     1       5.399   3.977  16.589  0.00  0.00    +0.000 C 
ATOM     27  O   UNL     1       4.145   3.634  17.212  0.00  0.00    +0.000 OA
ENDBRANCH  18  19
ENDBRANCH  17  18
ENDBRANCH   4  17
TORSDOF 6
ENDMDL
MODEL 8
REMARK VINA RESULT:      -7.0      4.674      7.346
REMARK  Name = 
REMARK  9 active torsions:
REMARK  status: ('A' for Active; 'I' for Inactive)
REMARK    1  A    between atoms: C_1  and  O_2
REMARK    2  A    between atoms: O_2  and  C_3
REMARK    3  A    between atoms: C_6  and  O_7
REMARK    4  A    between atoms: O_7  and  C_8
REMARK    5  A    between atoms: C_8  and  C_9
REMARK    6  A    between atoms: C_22  and  O_23
REMARK    7  A    between atoms: O_23  and  C_24
REMARK    8  A    between atoms: C_25  and  O_26
REMARK    9  A    between atoms: O_26  and  C_27
REMARK                            x       y       z     vdW  Elec       q    Type
REMARK                         _______ _______ _______ _____ _____    ______ ____
ROOT
ATOM      1  C   UNL     1       2.889   4.200  20.581  0.00  0.00    +0.000 A 
ATOM      2  C   UNL     1       2.412   5.520  20.576  0.00  0.00    +0.000 A 
ATOM      3  C   UNL     1       2.712   6.397  19.509  0.00  0.00    +0.000 A 
ATOM      4  C   UNL     1       2.208   7.702  19.363  0.00  0.00    +0.000 A 
ATOM      5  N   UNL     1       2.488   8.493  18.310  0.00  0.00    +0.000 NA
ATOM      6  C   UNL     1       3.305   7.980  17.396  0.00  0.00    +0.000 A 
ATOM      7  N   UNL     1       3.867   6.774  17.444  0.00  0.00    +0.000 NA
ATOM      8  C   UNL     1       3.568   5.973  18.484  0.00  0.00    +0.000 A 
ATOM      9  C   UNL     1       4.116   4.677  18.549  0.00  0.00    +0.000 A 
ATOM     10  C   UNL     1       3.775   3.773  19.578  0.00  0.00    +0.000 A 
ENDROOT
BRANCH   1  12
ATOM     11  C   UNL     1       1.213   2.736  21.374  0.00  0.00    +0.000 C 
ATOM     12  O   UNL     1       2.504   3.319  21.556  0.00  0.00    +0.000 OA
ENDBRANCH   1  12
BRANCH   9  13
ATOM     13  O   UNL     1       4.908   4.327  17.465  0.00  0.00    +0.000 OA
ATOM     14  C   UNL     1       6.312   4.497  17.625  0.00  0.00    +0.000 C 
ENDBRANCH   9  13
BRANCH  10  15
ATOM     15  O   UNL     1       4.234   2.489  19.419  0.00  0.00    +0.000 OA
ATOM     16  C   UNL     1       3.474   1.577  18.641  0.00  0.00    +0.000 C 
ENDBRANCH  10  15
BRANCH   4  17
ATOM     17  O   UNL     1       1.311   8.200  20.308  0.00  0.00    +0.000 OA
BRANCH  17  18
ATOM     18  C   UNL     1       0.628   9.362  19.800  0.00  0.00    +0.000 C 
BRANCH  18  19
ATOM     19  C   UNL     1      -0.228  10.093  20.818  0.00  0.00    +0.000 A 
ATOM     20  C   UNL     1      -0.269   9.599  22.148  0.00  0.00    +0.000 A 
ATOM     21  C   UNL     1      -0.913  10.302  23.170  0.00  0.00    +0.000 A 
ATOM     22  C   UNL     1      -1.504  11.501  22.842  0.00  0.00    +0.000 A 
ATOM     23  C   UNL     1      -1.465  11.999  21.560  0.00  0.00    +0.000 A 
ATOM     24  C   UNL     1      -0.833  11.327  20.529  0.00  0.00    +0.000 A 
ATOM     25  O   UNL     1      -2.087  13.207  21.462  0.00  0.00    +0.000 OA
ATOM     26  C   UNL     1      -2.571  13.376  22.813  0.00  0.00    +0.000 C 
ATOM     27  O   UNL     1      -2.155  12.324  23.706  0.00  0.00    +0.000 OA
ENDBRANCH  18  19
ENDBRANCH  17  18
ENDBRANCH   4  17
TORSDOF 6
ENDMDL
MODEL 9
REMARK VINA RESULT:      -7.0      4.635      7.439
REMARK  Name = 
REMARK  9 active torsions:
REMARK  status: ('A' for Active; 'I' for Inactive)
REMARK    1  A    between atoms: C_1  and  O_2
REMARK    2  A    between atoms: O_2  and  C_3
REMARK    3  A    between atoms: C_6  and  O_7
REMARK    4  A    between atoms: O_7  and  C_8
REMARK    5  A    between atoms: C_8  and  C_9
REMARK    6  A    between atoms: C_22  and  O_23
REMARK    7  A    between atoms: O_23  and  C_24
REMARK    8  A    between atoms: C_25  and  O_26
REMARK    9  A    between atoms: O_26  and  C_27
REMARK                            x       y       z     vdW  Elec       q    Type
REMARK                         _______ _______ _______ _____ _____    ______ ____
ROOT
ATOM      1  C   UNL     1       2.769   4.419  20.499  0.00  0.00    +0.000 A 
ATOM      2  C   UNL     1       2.258   5.720  20.373  0.00  0.00    +0.000 A 
ATOM      3  C   UNL     1       2.683   6.569  19.327  0.00  0.00    +0.000 A 
ATOM      4  C   UNL     1       2.166   7.850  19.059  0.00  0.00    +0.000 A 
ATOM      5  N   UNL     1       2.571   8.613  18.026  0.00  0.00    +0.000 NA
ATOM      6  C   UNL     1       3.526   8.096  17.259  0.00  0.00    +0.000 A 
ATOM      7  N   UNL     1       4.111   6.913  17.434  0.00  0.00    +0.000 NA
ATOM      8  C   UNL     1       3.689   6.139  18.452  0.00  0.00    +0.000 A 
ATOM      9  C   UNL     1       4.261   4.867  18.646  0.00  0.00    +0.000 A 
ATOM     10  C   UNL     1       3.802   3.987  19.651  0.00  0.00    +0.000 A 
ENDROOT
BRANCH   1  12
ATOM     11  C   UNL     1       1.061   2.895  21.087  0.00  0.00    +0.000 C 
ATOM     12  O   UNL     1       2.273   3.559  21.443  0.00  0.00    +0.000 OA
ENDBRANCH   1  12
BRANCH   9  13
ATOM     13  O   UNL     1       5.210   4.507  17.701  0.00  0.00    +0.000 OA
ATOM     14  C   UNL     1       4.713   4.042  16.450  0.00  0.00    +0.000 C 
ENDBRANCH   9  13
BRANCH  10  15
ATOM     15  O   UNL     1       4.317   2.716  19.610  0.00  0.00    +0.000 OA
ATOM     16  C   UNL     1       3.632   1.719  18.867  0.00  0.00    +0.000 C 
ENDBRANCH  10  15
BRANCH   4  17
ATOM     17  O   UNL     1       1.128   8.349  19.846  0.00  0.00    +0.000 OA
BRANCH  17  18
ATOM     18  C   UNL     1       0.979   9.769  19.652  0.00  0.00    +0.000 C 
BRANCH  18  19
ATOM     19  C   UNL     1      -0.354  10.194  19.064  0.00  0.00    +0.000 A 
ATOM     20  C   UNL     1      -1.106  11.189  19.741  0.00  0.00    +0.000 A 
ATOM     21  C   UNL     1      -2.265  11.735  19.182  0.00  0.00    +0.000 A 
ATOM     22  C   UNL     1      -2.651  11.277  17.944  0.00  0.00    +0.000 A 
ATOM     23  C   UNL     1      -1.929  10.319  17.270  0.00  0.00    +0.000 A 
ATOM     24  C   UNL     1      -0.776   9.763  17.796  0.00  0.00    +0.000 A 
ATOM     25  O   UNL     1      -2.472  10.030  16.055  0.00  0.00    +0.000 OA
ATOM     26  C   UNL     1      -3.647  10.869  16.074  0.00  0.00    +0.000 C 
ATOM     27  O   UNL     1      -3.736  11.705  17.245  0.00  0.00    +0.000 OA
ENDBRANCH  18  19
ENDBRANCH  17  18
ENDBRANCH   4  17
TORSDOF 6
ENDMDL
