MODEL 1
REMARK VINA RESULT:      -7.1      0.000      0.000
REMARK  Name = 
REMARK  6 active torsions:
REMARK  status: ('A' for Active; 'I' for Inactive)
REMARK    1  A    between atoms: C_2  and  C_3
REMARK    2  A    between atoms: C_2  and  C_10
REMARK    3  A    between atoms: C_4  and  C_5
REMARK    4  A    between atoms: C_12  and  O_13
REMARK    5  A    between atoms: C_14  and  O_15
REMARK    6  A    between atoms: C_16  and  N_17
REMARK                            x       y       z     vdW  Elec       q    Type
REMARK                         _______ _______ _______ _____ _____    ______ ____
ROOT
ATOM      1  C   UNL     1       4.066   5.298  17.925  0.00  0.00    +0.000 A 
ATOM      2  C   UNL     1       4.886   5.378  19.063  0.00  0.00    +0.000 A 
ATOM      3  C   UNL     1       6.251   5.140  18.946  0.00  0.00    +0.000 A 
ATOM      4  C   UNL     1       6.824   4.843  17.711  0.00  0.00    +0.000 A 
ATOM      5  C   UNL     1       6.009   4.794  16.586  0.00  0.00    +0.000 A 
ATOM      6  C   UNL     1       4.626   5.010  16.674  0.00  0.00    +0.000 A 
ENDROOT
BRANCH   5   7
ATOM      7  N   UNL     1       6.579   4.527  15.283  0.00  0.00    +0.000 N 
ATOM      8  O   UNL     1       6.132   3.562  14.650  0.00  0.00    +0.000 OA
ATOM      9  O   UNL     1       7.536   5.237  14.941  0.00  0.00    +0.000 OA
ENDBRANCH   5   7
BRANCH   1  11
ATOM     10  O   UNL     1       1.790   4.764  17.741  0.00  0.00    +0.000 OA
ATOM     11  C   UNL     1       2.622   5.594  18.091  0.00  0.00    +0.000 C 
BRANCH  11  12
ATOM     12  C   UNL     1       2.235   6.919  18.633  0.00  0.00    +0.000 C 
ATOM     13  C   UNL     1       2.200   7.971  17.800  0.00  0.00    +0.000 C 
BRANCH  13  14
ATOM     14  C   UNL     1       1.900   9.273  18.288  0.00  0.00    +0.000 A 
ATOM     15  N   UNL     1       2.239  10.421  17.731  0.00  0.00    +0.000 NA
ATOM     16  C   UNL     1       1.744  11.482  18.464  0.00  0.00    +0.000 A 
ATOM     17  C   UNL     1       1.038  11.143  19.595  0.00  0.00    +0.000 A 
ATOM     18  S   UNL     1       0.984   9.441  19.751  0.00  0.00    +0.000 S 
ENDBRANCH  13  14
ENDBRANCH  11  12
ENDBRANCH   1  11
BRANCH   3  19
ATOM     19  O   UNL     1       7.083   5.186  20.031  0.00  0.00    +0.000 OA
ATOM     20  H   UNL     1       7.046   6.079  20.421  0.00  0.00    +0.000 HD
ENDBRANCH   3  19
BRANCH   4  21
ATOM     21  O   UNL     1       8.165   4.595  17.653  0.00  0.00    +0.000 OA
ATOM     22  H   UNL     1       8.327   3.854  18.274  0.00  0.00    +0.000 HD
ENDBRANCH   4  21
TORSDOF 6
ENDMDL
MODEL 2
REMARK VINA RESULT:      -7.1      1.215      2.548
REMARK  Name = 
REMARK  6 active torsions:
REMARK  status: ('A' for Active; 'I' for Inactive)
REMARK    1  A    between atoms: C_2  and  C_3
REMARK    2  A    between atoms: C_2  and  C_10
REMARK    3  A    between atoms: C_4  and  C_5
REMARK    4  A    between atoms: C_12  and  O_13
REMARK    5  A    between atoms: C_14  and  O_15
REMARK    6  A    between atoms: C_16  and  N_17
REMARK                            x       y       z     vdW  Elec       q    Type
REMARK                         _______ _______ _______ _____ _____    ______ ____
ROOT
ATOM      1  C   UNL     1       4.090   4.984  17.800  0.00  0.00    +0.000 A 
ATOM      2  C   UNL     1       4.454   4.166  16.716  0.00  0.00    +0.000 A 
ATOM      3  C   UNL     1       5.800   3.949  16.439  0.00  0.00    +0.000 A 
ATOM      4  C   UNL     1       6.796   4.514  17.233  0.00  0.00    +0.000 A 
ATOM      5  C   UNL     1       6.426   5.298  18.320  0.00  0.00    +0.000 A 
ATOM      6  C   UNL     1       5.078   5.552  18.615  0.00  0.00    +0.000 A 
ENDROOT
BRANCH   5   7
ATOM      7  N   UNL     1       7.434   5.866  19.187  0.00  0.00    +0.000 N 
ATOM      8  O   UNL     1       8.144   6.770  18.726  0.00  0.00    +0.000 OA
ATOM      9  O   UNL     1       7.568   5.339  20.301  0.00  0.00    +0.000 OA
ENDBRANCH   5   7
BRANCH   1  11
ATOM     10  O   UNL     1       1.866   4.245  17.825  0.00  0.00    +0.000 OA
ATOM     11  C   UNL     1       2.644   5.158  18.079  0.00  0.00    +0.000 C 
BRANCH  11  12
ATOM     12  C   UNL     1       2.185   6.462  18.614  0.00  0.00    +0.000 C 
ATOM     13  C   UNL     1       2.298   7.552  17.840  0.00  0.00    +0.000 C 
BRANCH  13  14
ATOM     14  C   UNL     1       1.933   8.835  18.335  0.00  0.00    +0.000 A 
ATOM     15  N   UNL     1       2.070   9.990  17.710  0.00  0.00    +0.000 NA
ATOM     16  C   UNL     1       1.571  11.022  18.480  0.00  0.00    +0.000 A 
ATOM     17  C   UNL     1       1.066  10.656  19.706  0.00  0.00    +0.000 A 
ATOM     18  S   UNL     1       1.214   8.965  19.908  0.00  0.00    +0.000 S 
ENDBRANCH  13  14
ENDBRANCH  11  12
ENDBRANCH   1  11
BRANCH   3  19
ATOM     19  O   UNL     1       6.200   3.179  15.382  0.00  0.00    +0.000 OA
ATOM     20  H   UNL     1       6.300   2.257  15.682  0.00  0.00    +0.000 HD
ENDBRANCH   3  19
BRANCH   4  21
ATOM     21  O   UNL     1       8.102   4.289  16.905  0.00  0.00    +0.000 OA
ATOM     22  H   UNL     1       8.088   3.595  16.214  0.00  0.00    +0.000 HD
ENDBRANCH   4  21
TORSDOF 6
ENDMDL
MODEL 3
REMARK VINA RESULT:      -6.9      3.318      4.422
REMARK  Name = 
REMARK  6 active torsions:
REMARK  status: ('A' for Active; 'I' for Inactive)
REMARK    1  A    between atoms: C_2  and  C_3
REMARK    2  A    between atoms: C_2  and  C_10
REMARK    3  A    between atoms: C_4  and  C_5
REMARK    4  A    between atoms: C_12  and  O_13
REMARK    5  A    between atoms: C_14  and  O_15
REMARK    6  A    between atoms: C_16  and  N_17
REMARK                            x       y       z     vdW  Elec       q    Type
REMARK                         _______ _______ _______ _____ _____    ______ ____
ROOT
ATOM      1  C   UNL     1       3.129   5.922  19.423  0.00  0.00    +0.000 A 
ATOM      2  C   UNL     1       4.362   5.656  18.801  0.00  0.00    +0.000 A 
ATOM      3  C   UNL     1       4.941   4.399  18.933  0.00  0.00    +0.000 A 
ATOM      4  C   UNL     1       4.309   3.390  19.657  0.00  0.00    +0.000 A 
ATOM      5  C   UNL     1       3.078   3.654  20.245  0.00  0.00    +0.000 A 
ATOM      6  C   UNL     1       2.475   4.917  20.146  0.00  0.00    +0.000 A 
ENDROOT
BRANCH   5   7
ATOM      7  N   UNL     1       2.377   2.616  20.969  0.00  0.00    +0.000 N 
ATOM      8  O   UNL     1       1.317   2.196  20.486  0.00  0.00    +0.000 OA
ATOM      9  O   UNL     1       2.849   2.292  22.068  0.00  0.00    +0.000 OA
ENDBRANCH   5   7
BRANCH   1  11
ATOM     10  O   UNL     1       2.756   7.880  18.189  0.00  0.00    +0.000 OA
ATOM     11  C   UNL     1       2.531   7.265  19.226  0.00  0.00    +0.000 C 
BRANCH  11  12
ATOM     12  C   UNL     1       1.716   7.839  20.323  0.00  0.00    +0.000 C 
ATOM     13  C   UNL     1       1.112   9.021  20.127  0.00  0.00    +0.000 C 
BRANCH  13  14
ATOM     14  C   UNL     1       0.374   9.642  21.173  0.00  0.00    +0.000 A 
ATOM     15  N   UNL     1       0.094   9.124  22.355  0.00  0.00    +0.000 NA
ATOM     16  C   UNL     1      -0.608  10.029  23.128  0.00  0.00    +0.000 A 
ATOM     17  C   UNL     1      -0.879  11.237  22.527  0.00  0.00    +0.000 A 
ATOM     18  S   UNL     1      -0.234  11.250  20.943  0.00  0.00    +0.000 S 
ENDBRANCH  13  14
ENDBRANCH  11  12
ENDBRANCH   1  11
BRANCH   3  19
ATOM     19  O   UNL     1       6.149   4.102  18.363  0.00  0.00    +0.000 OA
ATOM     20  H   UNL     1       6.096   3.221  17.950  0.00  0.00    +0.000 HD
ENDBRANCH   3  19
BRANCH   4  21
ATOM     21  O   UNL     1       4.931   2.180  19.776  0.00  0.00    +0.000 OA
ATOM     22  H   UNL     1       5.870   2.339  19.544  0.00  0.00    +0.000 HD
ENDBRANCH   4  21
TORSDOF 6
ENDMDL
MODEL 4
REMARK VINA RESULT:      -6.8      1.972      2.943
REMARK  Name = 
REMARK  6 active torsions:
REMARK  status: ('A' for Active; 'I' for Inactive)
REMARK    1  A    between atoms: C_2  and  C_3
REMARK    2  A    between atoms: C_2  and  C_10
REMARK    3  A    between atoms: C_4  and  C_5
REMARK    4  A    between atoms: C_12  and  O_13
REMARK    5  A    between atoms: C_14  and  O_15
REMARK    6  A    between atoms: C_16  and  N_17
REMARK                            x       y       z     vdW  Elec       q    Type
REMARK                         _______ _______ _______ _____ _____    ______ ____
ROOT
ATOM      1  C   UNL     1       4.243   6.020  18.553  0.00  0.00    +0.000 A 
ATOM      2  C   UNL     1       4.108   6.507  17.241  0.00  0.00    +0.000 A 
ATOM      3  C   UNL     1       5.200   6.476  16.380  0.00  0.00    +0.000 A 
ATOM      4  C   UNL     1       6.423   5.950  16.791  0.00  0.00    +0.000 A 
ATOM      5  C   UNL     1       6.538   5.445  18.081  0.00  0.00    +0.000 A 
ATOM      6  C   UNL     1       5.462   5.479  18.980  0.00  0.00    +0.000 A 
ENDROOT
BRANCH   5   7
ATOM      7  N   UNL     1       7.782   4.856  18.527  0.00  0.00    +0.000 N 
ATOM      8  O   UNL     1       8.227   5.217  19.624  0.00  0.00    +0.000 OA
ATOM      9  O   UNL     1       8.354   4.099  17.729  0.00  0.00    +0.000 OA
ENDBRANCH   5   7
BRANCH   1  11
ATOM     10  O   UNL     1       2.704   5.017  20.010  0.00  0.00    +0.000 OA
ATOM     11  C   UNL     1       3.042   6.040  19.424  0.00  0.00    +0.000 C 
BRANCH  11  12
ATOM     12  C   UNL     1       2.260   7.296  19.513  0.00  0.00    +0.000 C 
ATOM     13  C   UNL     1       1.770   7.666  20.706  0.00  0.00    +0.000 C 
BRANCH  13  14
ATOM     14  C   UNL     1       0.958   8.829  20.828  0.00  0.00    +0.000 A 
ATOM     15  N   UNL     1       0.544   9.608  19.846  0.00  0.00    +0.000 NA
ATOM     16  C   UNL     1      -0.258  10.621  20.335  0.00  0.00    +0.000 A 
ATOM     17  C   UNL     1      -0.442  10.627  21.698  0.00  0.00    +0.000 A 
ATOM     18  S   UNL     1       0.410   9.320  22.399  0.00  0.00    +0.000 S 
ENDBRANCH  13  14
ENDBRANCH  11  12
ENDBRANCH   1  11
BRANCH   3  19
ATOM     19  O   UNL     1       5.121   6.959  15.102  0.00  0.00    +0.000 OA
ATOM     20  H   UNL     1       4.415   6.483  14.628  0.00  0.00    +0.000 HD
ENDBRANCH   3  19
BRANCH   4  21
ATOM     21  O   UNL     1       7.470   5.964  15.916  0.00  0.00    +0.000 OA
ATOM     22  H   UNL     1       7.674   5.024  15.729  0.00  0.00    +0.000 HD
ENDBRANCH   4  21
TORSDOF 6
ENDMDL
MODEL 5
REMARK VINA RESULT:      -6.8      1.443      2.318
REMARK  Name = 
REMARK  6 active torsions:
REMARK  status: ('A' for Active; 'I' for Inactive)
REMARK    1  A    between atoms: C_2  and  C_3
REMARK    2  A    between atoms: C_2  and  C_10
REMARK    3  A    between atoms: C_4  and  C_5
REMARK    4  A    between atoms: C_12  and  O_13
REMARK    5  A    between atoms: C_14  and  O_15
REMARK    6  A    between atoms: C_16  and  N_17
REMARK                            x       y       z     vdW  Elec       q    Type
REMARK                         _______ _______ _______ _____ _____    ______ ____
ROOT
ATOM      1  C   UNL     1       4.082   5.668  17.573  0.00  0.00    +0.000 A 
ATOM      2  C   UNL     1       4.303   4.455  16.898  0.00  0.00    +0.000 A 
ATOM      3  C   UNL     1       5.593   4.110  16.508  0.00  0.00    +0.000 A 
ATOM      4  C   UNL     1       6.675   4.940  16.794  0.00  0.00    +0.000 A 
ATOM      5  C   UNL     1       6.450   6.123  17.487  0.00  0.00    +0.000 A 
ATOM      6  C   UNL     1       5.159   6.509  17.879  0.00  0.00    +0.000 A 
ENDROOT
BRANCH   5   7
ATOM      7  N   UNL     1       7.557   6.987  17.835  0.00  0.00    +0.000 N 
ATOM      8  O   UNL     1       7.787   7.951  17.093  0.00  0.00    +0.000 OA
ATOM      9  O   UNL     1       8.247   6.641  18.805  0.00  0.00    +0.000 OA
ENDBRANCH   5   7
BRANCH   1  11
ATOM     10  O   UNL     1       1.806   5.157  17.808  0.00  0.00    +0.000 OA
ATOM     11  C   UNL     1       2.696   5.977  18.002  0.00  0.00    +0.000 C 
BRANCH  11  12
ATOM     12  C   UNL     1       2.429   7.303  18.610  0.00  0.00    +0.000 C 
ATOM     13  C   UNL     1       1.880   8.262  17.848  0.00  0.00    +0.000 C 
BRANCH  13  14
ATOM     14  C   UNL     1       1.667   9.569  18.368  0.00  0.00    +0.000 A 
ATOM     15  N   UNL     1       2.195  10.693  17.919  0.00  0.00    +0.000 NA
ATOM     16  C   UNL     1       1.733  11.772  18.646  0.00  0.00    +0.000 A 
ATOM     17  C   UNL     1       0.861  11.470  19.667  0.00  0.00    +0.000 A 
ATOM     18  S   UNL     1       0.603   9.781  19.722  0.00  0.00    +0.000 S 
ENDBRANCH  13  14
ENDBRANCH  11  12
ENDBRANCH   1  11
BRANCH   3  19
ATOM     19  O   UNL     1       5.851   2.951  15.829  0.00  0.00    +0.000 OA
ATOM     20  H   UNL     1       6.278   2.318  16.435  0.00  0.00    +0.000 HD
ENDBRANCH   3  19
BRANCH   4  21
ATOM     21  O   UNL     1       7.917   4.567  16.369  0.00  0.00    +0.000 OA
ATOM     22  H   UNL     1       7.963   4.821  15.424  0.00  0.00    +0.000 HD
ENDBRANCH   4  21
TORSDOF 6
ENDMDL
MODEL 6
REMARK VINA RESULT:      -6.8      1.160      1.317
REMARK  Name = 
REMARK  6 active torsions:
REMARK  status: ('A' for Active; 'I' for Inactive)
REMARK    1  A    between atoms: C_2  and  C_3
REMARK    2  A    between atoms: C_2  and  C_10
REMARK    3  A    between atoms: C_4  and  C_5
REMARK    4  A    between atoms: C_12  and  O_13
REMARK    5  A    between atoms: C_14  and  O_15
REMARK    6  A    between atoms: C_16  and  N_17
REMARK                            x       y       z     vdW  Elec       q    Type
REMARK                         _______ _______ _______ _____ _____    ______ ____
ROOT
ATOM      1  C   UNL     1       3.997   4.573  17.602  0.00  0.00    +0.000 A 
ATOM      2  C   UNL     1       4.736   4.738  18.786  0.00  0.00    +0.000 A 
ATOM      3  C   UNL     1       6.125   4.794  18.728  0.00  0.00    +0.000 A 
ATOM      4  C   UNL     1       6.796   4.709  17.510  0.00  0.00    +0.000 A 
ATOM      5  C   UNL     1       6.055   4.575  16.341  0.00  0.00    +0.000 A 
ATOM      6  C   UNL     1       4.654   4.496  16.367  0.00  0.00    +0.000 A 
ENDROOT
BRANCH   5   7
ATOM      7  N   UNL     1       6.719   4.524  15.057  0.00  0.00    +0.000 N 
ATOM      8  O   UNL     1       6.376   3.632  14.270  0.00  0.00    +0.000 OA
ATOM      9  O   UNL     1       7.646   5.327  14.881  0.00  0.00    +0.000 OA
ENDBRANCH   5   7
BRANCH   1  11
ATOM     10  O   UNL     1       1.893   3.590  17.281  0.00  0.00    +0.000 OA
ATOM     11  C   UNL     1       2.517   4.555  17.708  0.00  0.00    +0.000 C 
BRANCH  11  12
ATOM     12  C   UNL     1       1.841   5.740  18.287  0.00  0.00    +0.000 C 
ATOM     13  C   UNL     1       2.507   6.905  18.330  0.00  0.00    +0.000 C 
BRANCH  13  14
ATOM     14  C   UNL     1       1.924   8.052  18.936  0.00  0.00    +0.000 A 
ATOM     15  N   UNL     1       1.577   8.184  20.204  0.00  0.00    +0.000 NA
ATOM     16  C   UNL     1       1.077   9.450  20.442  0.00  0.00    +0.000 A 
ATOM     17  C   UNL     1       1.026  10.283  19.348  0.00  0.00    +0.000 A 
ATOM     18  S   UNL     1       1.625   9.463  17.972  0.00  0.00    +0.000 S 
ENDBRANCH  13  14
ENDBRANCH  11  12
ENDBRANCH   1  11
BRANCH   3  19
ATOM     19  O   UNL     1       6.885   4.932  19.857  0.00  0.00    +0.000 OA
ATOM     20  H   UNL     1       7.217   5.847  19.905  0.00  0.00    +0.000 HD
ENDBRANCH   3  19
BRANCH   4  21
ATOM     21  O   UNL     1       8.160   4.746  17.509  0.00  0.00    +0.000 OA
ATOM     22  H   UNL     1       8.444   4.146  18.229  0.00  0.00    +0.000 HD
ENDBRANCH   4  21
TORSDOF 6
ENDMDL
MODEL 7
REMARK VINA RESULT:      -6.7      4.377      6.809
REMARK  Name = 
REMARK  6 active torsions:
REMARK  status: ('A' for Active; 'I' for Inactive)
REMARK    1  A    between atoms: C_2  and  C_3
REMARK    2  A    between atoms: C_2  and  C_10
REMARK    3  A    between atoms: C_4  and  C_5
REMARK    4  A    between atoms: C_12  and  O_13
REMARK    5  A    between atoms: C_14  and  O_15
REMARK    6  A    between atoms: C_16  and  N_17
REMARK                            x       y       z     vdW  Elec       q    Type
REMARK                         _______ _______ _______ _____ _____    ______ ____
ROOT
ATOM      1  C   UNL     1       4.480   4.692  18.210  0.00  0.00    +0.000 A 
ATOM      2  C   UNL     1       3.229   4.688  17.569  0.00  0.00    +0.000 A 
ATOM      3  C   UNL     1       2.204   3.891  18.066  0.00  0.00    +0.000 A 
ATOM      4  C   UNL     1       2.390   3.110  19.204  0.00  0.00    +0.000 A 
ATOM      5  C   UNL     1       3.621   3.141  19.848  0.00  0.00    +0.000 A 
ATOM      6  C   UNL     1       4.682   3.920  19.361  0.00  0.00    +0.000 A 
ENDROOT
BRANCH   5   7
ATOM      7  N   UNL     1       3.835   2.372  21.054  0.00  0.00    +0.000 N 
ATOM      8  O   UNL     1       4.873   1.702  21.130  0.00  0.00    +0.000 OA
ATOM      9  O   UNL     1       2.914   2.376  21.884  0.00  0.00    +0.000 OA
ENDBRANCH   5   7
BRANCH   1  11
ATOM     10  O   UNL     1       6.152   6.322  18.426  0.00  0.00    +0.000 OA
ATOM     11  C   UNL     1       5.533   5.585  17.666  0.00  0.00    +0.000 C 
BRANCH  11  12
ATOM     12  C   UNL     1       5.764   5.586  16.202  0.00  0.00    +0.000 C 
ATOM     13  C   UNL     1       6.700   4.768  15.696  0.00  0.00    +0.000 C 
BRANCH  13  14
ATOM     14  C   UNL     1       7.003   4.782  14.307  0.00  0.00    +0.000 A 
ATOM     15  N   UNL     1       7.892   5.549  13.701  0.00  0.00    +0.000 NA
ATOM     16  C   UNL     1       7.942   5.262  12.351  0.00  0.00    +0.000 A 
ATOM     17  C   UNL     1       7.075   4.284  11.920  0.00  0.00    +0.000 A 
ATOM     18  S   UNL     1       6.166   3.697  13.244  0.00  0.00    +0.000 S 
ENDBRANCH  13  14
ENDBRANCH  11  12
ENDBRANCH   1  11
BRANCH   3  19
ATOM     19  O   UNL     1       0.977   3.840  17.461  0.00  0.00    +0.000 OA
ATOM     20  H   UNL     1       0.744   4.731  17.143  0.00  0.00    +0.000 HD
ENDBRANCH   3  19
BRANCH   4  21
ATOM     21  O   UNL     1       1.359   2.327  19.638  0.00  0.00    +0.000 OA
ATOM     22  H   UNL     1       1.560   2.116  20.574  0.00  0.00    +0.000 HD
ENDBRANCH   4  21
TORSDOF 6
ENDMDL
MODEL 8
REMARK VINA RESULT:      -6.7      3.901      6.808
REMARK  Name = 
REMARK  6 active torsions:
REMARK  status: ('A' for Active; 'I' for Inactive)
REMARK    1  A    between atoms: C_2  and  C_3
REMARK    2  A    between atoms: C_2  and  C_10
REMARK    3  A    between atoms: C_4  and  C_5
REMARK    4  A    between atoms: C_12  and  O_13
REMARK    5  A    between atoms: C_14  and  O_15
REMARK    6  A    between atoms: C_16  and  N_17
REMARK                            x       y       z     vdW  Elec       q    Type
REMARK                         _______ _______ _______ _____ _____    ______ ____
ROOT
ATOM      1  C   UNL     1       4.820   4.687  18.775  0.00  0.00    +0.000 A 
ATOM      2  C   UNL     1       4.197   5.946  18.726  0.00  0.00    +0.000 A 
ATOM      3  C   UNL     1       2.966   6.129  19.348  0.00  0.00    +0.000 A 
ATOM      4  C   UNL     1       2.348   5.087  20.037  0.00  0.00    +0.000 A 
ATOM      5  C   UNL     1       2.985   3.854  20.103  0.00  0.00    +0.000 A 
ATOM      6  C   UNL     1       4.218   3.631  19.471  0.00  0.00    +0.000 A 
ENDROOT
BRANCH   5   7
ATOM      7  N   UNL     1       2.390   2.763  20.843  0.00  0.00    +0.000 N 
ATOM      8  O   UNL     1       1.360   2.253  20.383  0.00  0.00    +0.000 OA
ATOM      9  O   UNL     1       2.912   2.482  21.932  0.00  0.00    +0.000 OA
ENDBRANCH   5   7
BRANCH   1  11
ATOM     10  O   UNL     1       7.164   4.662  18.806  0.00  0.00    +0.000 OA
ATOM     11  C   UNL     1       6.148   4.548  18.129  0.00  0.00    +0.000 C 
BRANCH  11  12
ATOM     12  C   UNL     1       6.196   4.324  16.664  0.00  0.00    +0.000 C 
ATOM     13  C   UNL     1       7.085   5.017  15.935  0.00  0.00    +0.000 C 
BRANCH  13  14
ATOM     14  C   UNL     1       7.123   4.884  14.519  0.00  0.00    +0.000 A 
ATOM     15  N   UNL     1       7.920   5.530  13.688  0.00  0.00    +0.000 NA
ATOM     16  C   UNL     1       7.702   5.119  12.387  0.00  0.00    +0.000 A 
ATOM     17  C   UNL     1       6.721   4.168  12.222  0.00  0.00    +0.000 A 
ATOM     18  S   UNL     1       6.048   3.767  13.742  0.00  0.00    +0.000 S 
ENDBRANCH  13  14
ENDBRANCH  11  12
ENDBRANCH   1  11
BRANCH   3  19
ATOM     19  O   UNL     1       2.314   7.331  19.308  0.00  0.00    +0.000 OA
ATOM     20  H   UNL     1       2.027   7.565  20.210  0.00  0.00    +0.000 HD
ENDBRANCH   3  19
BRANCH   4  21
ATOM     21  O   UNL     1       1.130   5.311  20.610  0.00  0.00    +0.000 OA
ATOM     22  H   UNL     1       1.223   6.145  21.117  0.00  0.00    +0.000 HD
ENDBRANCH   4  21
TORSDOF 6
ENDMDL
MODEL 9
REMARK VINA RESULT:      -6.7      1.486      1.764
REMARK  Name = 
REMARK  6 active torsions:
REMARK  status: ('A' for Active; 'I' for Inactive)
REMARK    1  A    between atoms: C_2  and  C_3
REMARK    2  A    between atoms: C_2  and  C_10
REMARK    3  A    between atoms: C_4  and  C_5
REMARK    4  A    between atoms: C_12  and  O_13
REMARK    5  A    between atoms: C_14  and  O_15
REMARK    6  A    between atoms: C_16  and  N_17
REMARK                            x       y       z     vdW  Elec       q    Type
REMARK                         _______ _______ _______ _____ _____    ______ ____
ROOT
ATOM      1  C   UNL     1       3.753   5.947  18.061  0.00  0.00    +0.000 A 
ATOM      2  C   UNL     1       3.949   4.745  18.762  0.00  0.00    +0.000 A 
ATOM      3  C   UNL     1       5.204   4.143  18.758  0.00  0.00    +0.000 A 
ATOM      4  C   UNL     1       6.276   4.725  18.085  0.00  0.00    +0.000 A 
ATOM      5  C   UNL     1       6.078   5.928  17.417  0.00  0.00    +0.000 A 
ATOM      6  C   UNL     1       4.821   6.551  17.386  0.00  0.00    +0.000 A 
ENDROOT
BRANCH   5   7
ATOM      7  N   UNL     1       7.180   6.578  16.742  0.00  0.00    +0.000 N 
ATOM      8  O   UNL     1       7.531   7.690  17.157  0.00  0.00    +0.000 OA
ATOM      9  O   UNL     1       7.630   6.006  15.738  0.00  0.00    +0.000 OA
ENDBRANCH   5   7
BRANCH   1  11
ATOM     10  O   UNL     1       1.435   5.953  17.704  0.00  0.00    +0.000 OA
ATOM     11  C   UNL     1       2.408   6.571  18.123  0.00  0.00    +0.000 C 
BRANCH  11  12
ATOM     12  C   UNL     1       2.300   7.952  18.650  0.00  0.00    +0.000 C 
ATOM     13  C   UNL     1       1.755   8.899  17.869  0.00  0.00    +0.000 C 
BRANCH  13  14
ATOM     14  C   UNL     1       1.690  10.251  18.306  0.00  0.00    +0.000 A 
ATOM     15  N   UNL     1       2.428  11.256  17.871  0.00  0.00    +0.000 NA
ATOM     16  C   UNL     1       2.062  12.433  18.495  0.00  0.00    +0.000 A 
ATOM     17  C   UNL     1       1.053  12.323  19.423  0.00  0.00    +0.000 A 
ATOM     18  S   UNL     1       0.536  10.696  19.521  0.00  0.00    +0.000 S 
ENDBRANCH  13  14
ENDBRANCH  11  12
ENDBRANCH   1  11
BRANCH   3  19
ATOM     19  O   UNL     1       5.435   2.963  19.409  0.00  0.00    +0.000 OA
ATOM     20  H   UNL     1       5.448   3.128  20.370  0.00  0.00    +0.000 HD
ENDBRANCH   3  19
BRANCH   4  21
ATOM     21  O   UNL     1       7.480   4.083  18.092  0.00  0.00    +0.000 OA
ATOM     22  H   UNL     1       7.551   3.657  18.971  0.00  0.00    +0.000 HD
ENDBRANCH   4  21
TORSDOF 6
ENDMDL
