MODEL 1
REMARK VINA RESULT:      -8.7      0.000      0.000
REMARK  Name = 
REMARK  4 active torsions:
REMARK  status: ('A' for Active; 'I' for Inactive)
REMARK    1  A    between atoms: C_1  and  C_2
REMARK    2  A    between atoms: C_13  and  C_14
REMARK    3  A    between atoms: C_14  and  C_16
REMARK    4  A    between atoms: C_22  and  C_23
REMARK                            x       y       z     vdW  Elec       q    Type
REMARK                         _______ _______ _______ _____ _____    ______ ____
ROOT
ATOM      1  C   UNL     1       1.169   3.083  21.408  0.00  0.00    +0.000 C 
ATOM      2  C   UNL     1       1.786   4.165  20.570  0.00  0.00    +0.000 A 
ATOM      3  C   UNL     1       1.536   5.458  20.825  0.00  0.00    +0.000 A 
ATOM      4  C   UNL     1       2.107   6.563  20.046  0.00  0.00    +0.000 A 
ATOM      5  O   UNL     1       1.846   7.728  20.322  0.00  0.00    +0.000 OA
ATOM      6  O   UNL     1       2.940   6.215  18.999  0.00  0.00    +0.000 OA
ATOM      7  C   UNL     1       3.234   4.868  18.687  0.00  0.00    +0.000 A 
ATOM      8  C   UNL     1       2.679   3.823  19.447  0.00  0.00    +0.000 A 
ATOM      9  C   UNL     1       3.003   2.502  19.100  0.00  0.00    +0.000 A 
ATOM     10  C   UNL     1       3.854   2.199  18.022  0.00  0.00    +0.000 A 
ATOM     11  C   UNL     1       4.372   3.275  17.305  0.00  0.00    +0.000 A 
ATOM     12  O   UNL     1       5.210   3.195  16.237  0.00  0.00    +0.000 OA
ATOM     13  C   UNL     1       5.498   4.477  15.836  0.00  0.00    +0.000 A 
ATOM     14  C   UNL     1       4.822   5.380  16.651  0.00  0.00    +0.000 A 
ATOM     15  C   UNL     1       4.833   6.864  16.582  0.00  0.00    +0.000 C 
ATOM     16  C   UNL     1       4.094   4.600  17.602  0.00  0.00    +0.000 A 
ENDROOT
BRANCH  13  17
ATOM     17  C   UNL     1       6.441   4.695  14.754  0.00  0.00    +0.000 C 
ATOM     18  O   UNL     1       7.423   5.433  14.859  0.00  0.00    +0.000 OA
BRANCH  17  19
ATOM     19  C   UNL     1       6.246   4.031  13.439  0.00  0.00    +0.000 A 
ATOM     20  C   UNL     1       4.937   3.727  13.034  0.00  0.00    +0.000 A 
ATOM     21  C   UNL     1       4.711   3.078  11.821  0.00  0.00    +0.000 A 
ATOM     22  C   UNL     1       5.793   2.692  11.031  0.00  0.00    +0.000 A 
ATOM     23  C   UNL     1       7.099   2.954  11.450  0.00  0.00    +0.000 A 
ATOM     24  C   UNL     1       7.329   3.631  12.649  0.00  0.00    +0.000 A 
ENDBRANCH  17  19
ENDBRANCH  13  17
TORSDOF 2
ENDMDL
MODEL 2
REMARK VINA RESULT:      -8.5      4.600      7.789
REMARK  Name = 
REMARK  4 active torsions:
REMARK  status: ('A' for Active; 'I' for Inactive)
REMARK    1  A    between atoms: C_1  and  C_2
REMARK    2  A    between atoms: C_13  and  C_14
REMARK    3  A    between atoms: C_14  and  C_16
REMARK    4  A    between atoms: C_22  and  C_23
REMARK                            x       y       z     vdW  Elec       q    Type
REMARK                         _______ _______ _______ _____ _____    ______ ____
ROOT
ATOM      1  C   UNL     1      -1.706  13.163  22.837  0.00  0.00    +0.000 C 
ATOM      2  C   UNL     1      -1.041  12.659  21.589  0.00  0.00    +0.000 A 
ATOM      3  C   UNL     1      -0.995  13.416  20.482  0.00  0.00    +0.000 A 
ATOM      4  C   UNL     1      -0.359  12.985  19.231  0.00  0.00    +0.000 A 
ATOM      5  O   UNL     1      -0.344  13.717  18.248  0.00  0.00    +0.000 OA
ATOM      6  O   UNL     1       0.208  11.725  19.229  0.00  0.00    +0.000 OA
ATOM      7  C   UNL     1       0.184  10.887  20.367  0.00  0.00    +0.000 A 
ATOM      8  C   UNL     1      -0.427  11.319  21.558  0.00  0.00    +0.000 A 
ATOM      9  C   UNL     1      -0.423  10.452  22.662  0.00  0.00    +0.000 A 
ATOM     10  C   UNL     1       0.167   9.176  22.608  0.00  0.00    +0.000 A 
ATOM     11  C   UNL     1       0.754   8.802  21.403  0.00  0.00    +0.000 A 
ATOM     12  O   UNL     1       1.375   7.618  21.148  0.00  0.00    +0.000 OA
ATOM     13  C   UNL     1       1.832   7.658  19.853  0.00  0.00    +0.000 A 
ATOM     14  C   UNL     1       1.484   8.874  19.276  0.00  0.00    +0.000 A 
ATOM     15  C   UNL     1       1.766   9.349  17.896  0.00  0.00    +0.000 C 
ATOM     16  C   UNL     1       0.787   9.615  20.280  0.00  0.00    +0.000 A 
ENDROOT
BRANCH  13  17
ATOM     17  C   UNL     1       2.608   6.546  19.334  0.00  0.00    +0.000 C 
ATOM     18  O   UNL     1       3.711   6.690  18.801  0.00  0.00    +0.000 OA
BRANCH  17  19
ATOM     19  C   UNL     1       2.084   5.158  19.412  0.00  0.00    +0.000 A 
ATOM     20  C   UNL     1       1.771   4.497  18.215  0.00  0.00    +0.000 A 
ATOM     21  C   UNL     1       1.248   3.204  18.244  0.00  0.00    +0.000 A 
ATOM     22  C   UNL     1       0.995   2.587  19.468  0.00  0.00    +0.000 A 
ATOM     23  C   UNL     1       1.265   3.258  20.663  0.00  0.00    +0.000 A 
ATOM     24  C   UNL     1       1.817   4.541  20.638  0.00  0.00    +0.000 A 
ENDBRANCH  17  19
ENDBRANCH  13  17
TORSDOF 2
ENDMDL
MODEL 3
REMARK VINA RESULT:      -8.4      3.067      5.830
REMARK  Name = 
REMARK  4 active torsions:
REMARK  status: ('A' for Active; 'I' for Inactive)
REMARK    1  A    between atoms: C_1  and  C_2
REMARK    2  A    between atoms: C_13  and  C_14
REMARK    3  A    between atoms: C_14  and  C_16
REMARK    4  A    between atoms: C_22  and  C_23
REMARK                            x       y       z     vdW  Elec       q    Type
REMARK                         _______ _______ _______ _____ _____    ______ ____
ROOT
ATOM      1  C   UNL     1      -0.059  12.590  20.255  0.00  0.00    +0.000 C 
ATOM      2  C   UNL     1       0.268  11.219  20.772  0.00  0.00    +0.000 A 
ATOM      3  C   UNL     1      -0.005  10.880  22.041  0.00  0.00    +0.000 A 
ATOM      4  C   UNL     1       0.289   9.558  22.608  0.00  0.00    +0.000 A 
ATOM      5  O   UNL     1       0.018   9.300  23.776  0.00  0.00    +0.000 OA
ATOM      6  O   UNL     1       0.881   8.640  21.762  0.00  0.00    +0.000 OA
ATOM      7  C   UNL     1       1.191   8.948  20.418  0.00  0.00    +0.000 A 
ATOM      8  C   UNL     1       0.900  10.219  19.891  0.00  0.00    +0.000 A 
ATOM      9  C   UNL     1       1.225  10.476  18.550  0.00  0.00    +0.000 A 
ATOM     10  C   UNL     1       1.831   9.507  17.729  0.00  0.00    +0.000 A 
ATOM     11  C   UNL     1       2.097   8.269  18.305  0.00  0.00    +0.000 A 
ATOM     12  O   UNL     1       2.673   7.204  17.684  0.00  0.00    +0.000 OA
ATOM     13  C   UNL     1       2.738   6.176  18.593  0.00  0.00    +0.000 A 
ATOM     14  C   UNL     1       2.211   6.598  19.808  0.00  0.00    +0.000 A 
ATOM     15  C   UNL     1       2.082   5.825  21.071  0.00  0.00    +0.000 C 
ATOM     16  C   UNL     1       1.796   7.953  19.621  0.00  0.00    +0.000 A 
ENDROOT
BRANCH  13  17
ATOM     17  C   UNL     1       3.241   4.880  18.173  0.00  0.00    +0.000 C 
ATOM     18  O   UNL     1       2.549   3.859  18.176  0.00  0.00    +0.000 OA
BRANCH  17  19
ATOM     19  C   UNL     1       4.651   4.727  17.728  0.00  0.00    +0.000 A 
ATOM     20  C   UNL     1       5.673   5.101  18.613  0.00  0.00    +0.000 A 
ATOM     21  C   UNL     1       7.009   5.002  18.224  0.00  0.00    +0.000 A 
ATOM     22  C   UNL     1       7.324   4.571  16.936  0.00  0.00    +0.000 A 
ATOM     23  C   UNL     1       6.309   4.238  16.037  0.00  0.00    +0.000 A 
ATOM     24  C   UNL     1       4.971   4.307  16.433  0.00  0.00    +0.000 A 
ENDBRANCH  17  19
ENDBRANCH  13  17
TORSDOF 2
ENDMDL
MODEL 4
REMARK VINA RESULT:      -8.3      1.559      2.687
REMARK  Name = 
REMARK  4 active torsions:
REMARK  status: ('A' for Active; 'I' for Inactive)
REMARK    1  A    between atoms: C_1  and  C_2
REMARK    2  A    between atoms: C_13  and  C_14
REMARK    3  A    between atoms: C_14  and  C_16
REMARK    4  A    between atoms: C_22  and  C_23
REMARK                            x       y       z     vdW  Elec       q    Type
REMARK                         _______ _______ _______ _____ _____    ______ ____
ROOT
ATOM      1  C   UNL     1       1.428   6.843  20.686  0.00  0.00    +0.000 C 
ATOM      2  C   UNL     1       2.152   5.738  19.974  0.00  0.00    +0.000 A 
ATOM      3  C   UNL     1       2.031   4.465  20.378  0.00  0.00    +0.000 A 
ATOM      4  C   UNL     1       2.711   3.339  19.726  0.00  0.00    +0.000 A 
ATOM      5  O   UNL     1       2.565   2.193  20.136  0.00  0.00    +0.000 OA
ATOM      6  O   UNL     1       3.512   3.645  18.643  0.00  0.00    +0.000 OA
ATOM      7  C   UNL     1       3.676   4.970  18.179  0.00  0.00    +0.000 A 
ATOM      8  C   UNL     1       3.015   6.035  18.815  0.00  0.00    +0.000 A 
ATOM      9  C   UNL     1       3.207   7.333  18.315  0.00  0.00    +0.000 A 
ATOM     10  C   UNL     1       4.037   7.593  17.210  0.00  0.00    +0.000 A 
ATOM     11  C   UNL     1       4.667   6.500  16.622  0.00  0.00    +0.000 A 
ATOM     12  O   UNL     1       5.503   6.539  15.549  0.00  0.00    +0.000 OA
ATOM     13  C   UNL     1       5.891   5.250  15.276  0.00  0.00    +0.000 A 
ATOM     14  C   UNL     1       5.306   4.385  16.195  0.00  0.00    +0.000 A 
ATOM     15  C   UNL     1       5.448   2.908  16.285  0.00  0.00    +0.000 C 
ATOM     16  C   UNL     1       4.513   5.196  17.066  0.00  0.00    +0.000 A 
ENDROOT
BRANCH  13  17
ATOM     17  C   UNL     1       6.731   4.984  14.122  0.00  0.00    +0.000 C 
ATOM     18  O   UNL     1       7.836   5.506  13.963  0.00  0.00    +0.000 OA
BRANCH  17  19
ATOM     19  C   UNL     1       6.272   4.060  13.052  0.00  0.00    +0.000 A 
ATOM     20  C   UNL     1       4.900   4.007  12.762  0.00  0.00    +0.000 A 
ATOM     21  C   UNL     1       4.423   3.132  11.785  0.00  0.00    +0.000 A 
ATOM     22  C   UNL     1       5.309   2.278  11.130  0.00  0.00    +0.000 A 
ATOM     23  C   UNL     1       6.669   2.297  11.446  0.00  0.00    +0.000 A 
ATOM     24  C   UNL     1       7.155   3.192  12.401  0.00  0.00    +0.000 A 
ENDBRANCH  17  19
ENDBRANCH  13  17
TORSDOF 2
ENDMDL
MODEL 5
REMARK VINA RESULT:      -8.3      1.539      2.863
REMARK  Name = 
REMARK  4 active torsions:
REMARK  status: ('A' for Active; 'I' for Inactive)
REMARK    1  A    between atoms: C_1  and  C_2
REMARK    2  A    between atoms: C_13  and  C_14
REMARK    3  A    between atoms: C_14  and  C_16
REMARK    4  A    between atoms: C_22  and  C_23
REMARK                            x       y       z     vdW  Elec       q    Type
REMARK                         _______ _______ _______ _____ _____    ______ ____
ROOT
ATOM      1  C   UNL     1       1.465   7.167  20.678  0.00  0.00    +0.000 C 
ATOM      2  C   UNL     1       2.191   6.026  20.028  0.00  0.00    +0.000 A 
ATOM      3  C   UNL     1       2.090   4.780  20.516  0.00  0.00    +0.000 A 
ATOM      4  C   UNL     1       2.772   3.621  19.927  0.00  0.00    +0.000 A 
ATOM      5  O   UNL     1       2.645   2.502  20.414  0.00  0.00    +0.000 OA
ATOM      6  O   UNL     1       3.554   3.863  18.814  0.00  0.00    +0.000 OA
ATOM      7  C   UNL     1       3.696   5.157  18.262  0.00  0.00    +0.000 A 
ATOM      8  C   UNL     1       3.032   6.255  18.839  0.00  0.00    +0.000 A 
ATOM      9  C   UNL     1       3.202   7.519  18.253  0.00  0.00    +0.000 A 
ATOM     10  C   UNL     1       4.013   7.715  17.120  0.00  0.00    +0.000 A 
ATOM     11  C   UNL     1       4.646   6.592  16.594  0.00  0.00    +0.000 A 
ATOM     12  O   UNL     1       5.465   6.570  15.508  0.00  0.00    +0.000 OA
ATOM     13  C   UNL     1       5.862   5.270  15.313  0.00  0.00    +0.000 A 
ATOM     14  C   UNL     1       5.301   4.461  16.295  0.00  0.00    +0.000 A 
ATOM     15  C   UNL     1       5.461   2.995  16.479  0.00  0.00    +0.000 C 
ATOM     16  C   UNL     1       4.513   5.318  17.124  0.00  0.00    +0.000 A 
ENDROOT
BRANCH  13  17
ATOM     17  C   UNL     1       6.688   4.938  14.165  0.00  0.00    +0.000 C 
ATOM     18  O   UNL     1       7.809   5.418  13.985  0.00  0.00    +0.000 OA
BRANCH  17  19
ATOM     19  C   UNL     1       6.194   3.994  13.129  0.00  0.00    +0.000 A 
ATOM     20  C   UNL     1       7.129   3.186  12.465  0.00  0.00    +0.000 A 
ATOM     21  C   UNL     1       6.712   2.308  11.464  0.00  0.00    +0.000 A 
ATOM     22  C   UNL     1       5.369   2.267  11.096  0.00  0.00    +0.000 A 
ATOM     23  C   UNL     1       4.441   3.099  11.725  0.00  0.00    +0.000 A 
ATOM     24  C   UNL     1       4.849   3.958  12.748  0.00  0.00    +0.000 A 
ENDBRANCH  17  19
ENDBRANCH  13  17
TORSDOF 2
ENDMDL
MODEL 6
REMARK VINA RESULT:      -8.3      3.215      5.963
REMARK  Name = 
REMARK  4 active torsions:
REMARK  status: ('A' for Active; 'I' for Inactive)
REMARK    1  A    between atoms: C_1  and  C_2
REMARK    2  A    between atoms: C_13  and  C_14
REMARK    3  A    between atoms: C_14  and  C_16
REMARK    4  A    between atoms: C_22  and  C_23
REMARK                            x       y       z     vdW  Elec       q    Type
REMARK                         _______ _______ _______ _____ _____    ______ ____
ROOT
ATOM      1  C   UNL     1      -0.161  12.781  20.501  0.00  0.00    +0.000 C 
ATOM      2  C   UNL     1       0.182  11.384  20.929  0.00  0.00    +0.000 A 
ATOM      3  C   UNL     1      -0.086  10.962  22.174  0.00  0.00    +0.000 A 
ATOM      4  C   UNL     1       0.224   9.610  22.656  0.00  0.00    +0.000 A 
ATOM      5  O   UNL     1      -0.043   9.276  23.805  0.00  0.00    +0.000 OA
ATOM      6  O   UNL     1       0.825   8.755  21.754  0.00  0.00    +0.000 OA
ATOM      7  C   UNL     1       1.131   9.151  20.432  0.00  0.00    +0.000 A 
ATOM      8  C   UNL     1       0.825  10.449  19.987  0.00  0.00    +0.000 A 
ATOM      9  C   UNL     1       1.146  10.794  18.664  0.00  0.00    +0.000 A 
ATOM     10  C   UNL     1       1.762   9.887  17.783  0.00  0.00    +0.000 A 
ATOM     11  C   UNL     1       2.043   8.617  18.280  0.00  0.00    +0.000 A 
ATOM     12  O   UNL     1       2.630   7.600  17.592  0.00  0.00    +0.000 OA
ATOM     13  C   UNL     1       2.708   6.518  18.434  0.00  0.00    +0.000 A 
ATOM     14  C   UNL     1       2.177   6.856  19.674  0.00  0.00    +0.000 A 
ATOM     15  C   UNL     1       2.058   6.003  20.885  0.00  0.00    +0.000 C 
ATOM     16  C   UNL     1       1.746   8.216  19.573  0.00  0.00    +0.000 A 
ENDROOT
BRANCH  13  17
ATOM     17  C   UNL     1       3.226   5.257  17.933  0.00  0.00    +0.000 C 
ATOM     18  O   UNL     1       2.507   4.283  17.700  0.00  0.00    +0.000 OA
BRANCH  17  19
ATOM     19  C   UNL     1       4.681   5.083  17.691  0.00  0.00    +0.000 A 
ATOM     20  C   UNL     1       5.089   4.500  16.481  0.00  0.00    +0.000 A 
ATOM     21  C   UNL     1       6.445   4.291  16.226  0.00  0.00    +0.000 A 
ATOM     22  C   UNL     1       7.390   4.623  17.194  0.00  0.00    +0.000 A 
ATOM     23  C   UNL     1       6.986   5.164  18.416  0.00  0.00    +0.000 A 
ATOM     24  C   UNL     1       5.633   5.403  18.665  0.00  0.00    +0.000 A 
ENDBRANCH  17  19
ENDBRANCH  13  17
TORSDOF 2
ENDMDL
MODEL 7
REMARK VINA RESULT:      -8.2      3.947      8.221
REMARK  Name = 
REMARK  4 active torsions:
REMARK  status: ('A' for Active; 'I' for Inactive)
REMARK    1  A    between atoms: C_1  and  C_2
REMARK    2  A    between atoms: C_13  and  C_14
REMARK    3  A    between atoms: C_14  and  C_16
REMARK    4  A    between atoms: C_22  and  C_23
REMARK                            x       y       z     vdW  Elec       q    Type
REMARK                         _______ _______ _______ _____ _____    ______ ____
ROOT
ATOM      1  C   UNL     1       4.664   3.342  18.077  0.00  0.00    +0.000 C 
ATOM      2  C   UNL     1       3.756   4.058  19.035  0.00  0.00    +0.000 A 
ATOM      3  C   UNL     1       3.302   3.445  20.139  0.00  0.00    +0.000 A 
ATOM      4  C   UNL     1       2.414   4.088  21.115  0.00  0.00    +0.000 A 
ATOM      5  O   UNL     1       2.027   3.482  22.109  0.00  0.00    +0.000 OA
ATOM      6  O   UNL     1       2.045   5.393  20.850  0.00  0.00    +0.000 OA
ATOM      7  C   UNL     1       2.494   6.082  19.701  0.00  0.00    +0.000 A 
ATOM      8  C   UNL     1       3.346   5.451  18.777  0.00  0.00    +0.000 A 
ATOM      9  C   UNL     1       3.768   6.178  17.653  0.00  0.00    +0.000 A 
ATOM     10  C   UNL     1       3.361   7.505  17.425  0.00  0.00    +0.000 A 
ATOM     11  C   UNL     1       2.516   8.077  18.372  0.00  0.00    +0.000 A 
ATOM     12  O   UNL     1       2.015   9.342  18.337  0.00  0.00    +0.000 OA
ATOM     13  C   UNL     1       1.245   9.516  19.461  0.00  0.00    +0.000 A 
ATOM     14  C   UNL     1       1.247   8.344  20.210  0.00  0.00    +0.000 A 
ATOM     15  C   UNL     1       0.549   8.075  21.494  0.00  0.00    +0.000 C 
ATOM     16  C   UNL     1       2.070   7.413  19.504  0.00  0.00    +0.000 A 
ENDROOT
BRANCH  13  17
ATOM     17  C   UNL     1       0.645  10.812  19.724  0.00  0.00    +0.000 C 
ATOM     18  O   UNL     1       1.253  11.733  20.274  0.00  0.00    +0.000 OA
BRANCH  17  19
ATOM     19  C   UNL     1      -0.767  11.079  19.345  0.00  0.00    +0.000 A 
ATOM     20  C   UNL     1      -1.286  10.433  18.214  0.00  0.00    +0.000 A 
ATOM     21  C   UNL     1      -2.597  10.678  17.805  0.00  0.00    +0.000 A 
ATOM     22  C   UNL     1      -3.376  11.602  18.499  0.00  0.00    +0.000 A 
ATOM     23  C   UNL     1      -2.850  12.280  19.601  0.00  0.00    +0.000 A 
ATOM     24  C   UNL     1      -1.548  12.015  20.031  0.00  0.00    +0.000 A 
ENDBRANCH  17  19
ENDBRANCH  13  17
TORSDOF 2
ENDMDL
MODEL 8
REMARK VINA RESULT:      -8.1      3.912      6.484
REMARK  Name = 
REMARK  4 active torsions:
REMARK  status: ('A' for Active; 'I' for Inactive)
REMARK    1  A    between atoms: C_1  and  C_2
REMARK    2  A    between atoms: C_13  and  C_14
REMARK    3  A    between atoms: C_14  and  C_16
REMARK    4  A    between atoms: C_22  and  C_23
REMARK                            x       y       z     vdW  Elec       q    Type
REMARK                         _______ _______ _______ _____ _____    ______ ____
ROOT
ATOM      1  C   UNL     1      -0.547  12.834  20.604  0.00  0.00    +0.000 C 
ATOM      2  C   UNL     1      -0.073  11.468  21.006  0.00  0.00    +0.000 A 
ATOM      3  C   UNL     1      -0.261  11.016  22.255  0.00  0.00    +0.000 A 
ATOM      4  C   UNL     1       0.176   9.691  22.712  0.00  0.00    +0.000 A 
ATOM      5  O   UNL     1      -0.021   9.327  23.866  0.00  0.00    +0.000 OA
ATOM      6  O   UNL     1       0.815   8.896  21.780  0.00  0.00    +0.000 OA
ATOM      7  C   UNL     1       1.040   9.326  20.453  0.00  0.00    +0.000 A 
ATOM      8  C   UNL     1       0.612  10.598  20.032  0.00  0.00    +0.000 A 
ATOM      9  C   UNL     1       0.856  10.978  18.703  0.00  0.00    +0.000 A 
ATOM     10  C   UNL     1       1.514  10.132  17.792  0.00  0.00    +0.000 A 
ATOM     11  C   UNL     1       1.917   8.887  18.266  0.00  0.00    +0.000 A 
ATOM     12  O   UNL     1       2.562   7.928  17.547  0.00  0.00    +0.000 OA
ATOM     13  C   UNL     1       2.759   6.849  18.374  0.00  0.00    +0.000 A 
ATOM     14  C   UNL     1       2.246   7.132  19.635  0.00  0.00    +0.000 A 
ATOM     15  C   UNL     1       2.241   6.263  20.841  0.00  0.00    +0.000 C 
ATOM     16  C   UNL     1       1.700   8.452  19.564  0.00  0.00    +0.000 A 
ENDROOT
BRANCH  13  17
ATOM     17  C   UNL     1       3.362   5.640  17.843  0.00  0.00    +0.000 C 
ATOM     18  O   UNL     1       4.283   5.655  17.023  0.00  0.00    +0.000 OA
BRANCH  17  19
ATOM     19  C   UNL     1       2.870   4.303  18.266  0.00  0.00    +0.000 A 
ATOM     20  C   UNL     1       1.509   4.010  18.095  0.00  0.00    +0.000 A 
ATOM     21  C   UNL     1       0.999   2.778  18.505  0.00  0.00    +0.000 A 
ATOM     22  C   UNL     1       1.838   1.856  19.127  0.00  0.00    +0.000 A 
ATOM     23  C   UNL     1       3.185   2.159  19.338  0.00  0.00    +0.000 A 
ATOM     24  C   UNL     1       3.706   3.379  18.901  0.00  0.00    +0.000 A 
ENDBRANCH  17  19
ENDBRANCH  13  17
TORSDOF 2
ENDMDL
MODEL 9
REMARK VINA RESULT:      -8.1      3.992      8.372
REMARK  Name = 
REMARK  4 active torsions:
REMARK  status: ('A' for Active; 'I' for Inactive)
REMARK    1  A    between atoms: C_1  and  C_2
REMARK    2  A    between atoms: C_13  and  C_14
REMARK    3  A    between atoms: C_14  and  C_16
REMARK    4  A    between atoms: C_22  and  C_23
REMARK                            x       y       z     vdW  Elec       q    Type
REMARK                         _______ _______ _______ _____ _____    ______ ____
ROOT
ATOM      1  C   UNL     1       4.710   3.624  18.014  0.00  0.00    +0.000 C 
ATOM      2  C   UNL     1       3.775   4.278  18.990  0.00  0.00    +0.000 A 
ATOM      3  C   UNL     1       3.338   3.616  20.071  0.00  0.00    +0.000 A 
ATOM      4  C   UNL     1       2.426   4.197  21.063  0.00  0.00    +0.000 A 
ATOM      5  O   UNL     1       2.057   3.547  22.036  0.00  0.00    +0.000 OA
ATOM      6  O   UNL     1       2.013   5.496  20.837  0.00  0.00    +0.000 OA
ATOM      7  C   UNL     1       2.441   6.236  19.712  0.00  0.00    +0.000 A 
ATOM      8  C   UNL     1       3.318   5.663  18.773  0.00  0.00    +0.000 A 
ATOM      9  C   UNL     1       3.718   6.439  17.673  0.00  0.00    +0.000 A 
ATOM     10  C   UNL     1       3.266   7.757  17.485  0.00  0.00    +0.000 A 
ATOM     11  C   UNL     1       2.398   8.270  18.445  0.00  0.00    +0.000 A 
ATOM     12  O   UNL     1       1.853   9.517  18.447  0.00  0.00    +0.000 OA
ATOM     13  C   UNL     1       1.074   9.630  19.573  0.00  0.00    +0.000 A 
ATOM     14  C   UNL     1       1.114   8.436  20.285  0.00  0.00    +0.000 A 
ATOM     15  C   UNL     1       0.421   8.103  21.557  0.00  0.00    +0.000 C 
ATOM     16  C   UNL     1       1.972   7.557  19.554  0.00  0.00    +0.000 A 
ENDROOT
BRANCH  13  17
ATOM     17  C   UNL     1       0.428  10.895  19.873  0.00  0.00    +0.000 C 
ATOM     18  O   UNL     1       0.966  11.780  20.542  0.00  0.00    +0.000 OA
BRANCH  17  19
ATOM     19  C   UNL     1      -0.948  11.173  19.386  0.00  0.00    +0.000 A 
ATOM     20  C   UNL     1      -1.734  12.089  20.102  0.00  0.00    +0.000 A 
ATOM     21  C   UNL     1      -3.042  12.357  19.697  0.00  0.00    +0.000 A 
ATOM     22  C   UNL     1      -3.581  11.679  18.604  0.00  0.00    +0.000 A 
ATOM     23  C   UNL     1      -2.816  10.735  17.915  0.00  0.00    +0.000 A 
ATOM     24  C   UNL     1      -1.497  10.486  18.299  0.00  0.00    +0.000 A 
ENDBRANCH  17  19
ENDBRANCH  13  17
TORSDOF 2
ENDMDL
