MODEL 1
REMARK VINA RESULT:      -7.4      0.000      0.000
REMARK  Name = 
REMARK  5 active torsions:
REMARK  status: ('A' for Active; 'I' for Inactive)
REMARK    1  A    between atoms: O_1  and  C_2
REMARK    2  A    between atoms: C_9  and  C_10
REMARK    3  A    between atoms: C_10  and  N_11
REMARK    4  A    between atoms: N_11  and  C_12
REMARK    5  A    between atoms: C_12  and  C_13
REMARK                            x       y       z     vdW  Elec       q    Type
REMARK                         _______ _______ _______ _____ _____    ______ ____
ROOT
ATOM      1  C   UNL     1       2.441   6.920  19.744  0.00  0.00    +0.000 A 
ATOM      2  C   UNL     1       2.199   7.736  18.644  0.00  0.00    +0.000 A 
ATOM      3  C   UNL     1       3.043   7.658  17.535  0.00  0.00    +0.000 A 
ATOM      4  C   UNL     1       4.114   6.750  17.519  0.00  0.00    +0.000 A 
ATOM      5  C   UNL     1       4.291   5.883  18.602  0.00  0.00    +0.000 A 
ATOM      6  C   UNL     1       3.479   5.995  19.730  0.00  0.00    +0.000 A 
ATOM      7  O   UNL     1       5.238   4.895  18.635  0.00  0.00    +0.000 OA
ATOM      8  C   UNL     1       5.799   4.539  17.355  0.00  0.00    +0.000 C 
ATOM      9  C   UNL     1       6.221   5.789  16.581  0.00  0.00    +0.000 C 
ATOM     10  C   UNL     1       5.043   6.720  16.340  0.00  0.00    +0.000 C 
ENDROOT
BRANCH   1  11
ATOM     11  O   UNL     1       1.666   6.994  20.863  0.00  0.00    +0.000 OA
ATOM     12  H   UNL     1       0.857   7.488  20.649  0.00  0.00    +0.000 HD
ENDBRANCH   1  11
BRANCH   8  13
ATOM     13  C   UNL     1       4.858   3.561  16.601  0.00  0.00    +0.000 C 
BRANCH  13  14
ATOM     14  N   UNL     1       4.412   2.455  17.463  0.00  0.00    +0.000 NA
ATOM     15  H   UNL     1       4.725   2.617  18.423  0.00  0.00    +0.000 HD
BRANCH  14  16
ATOM     16  C   UNL     1       2.958   2.285  17.472  0.00  0.00    +0.000 C 
BRANCH  16  17
ATOM     17  C   UNL     1       2.423   2.609  18.852  0.00  0.00    +0.000 A 
ATOM     18  C   UNL     1       1.166   3.208  19.028  0.00  0.00    +0.000 A 
ATOM     19  C   UNL     1       0.719   3.554  20.308  0.00  0.00    +0.000 A 
ATOM     20  C   UNL     1       1.516   3.302  21.424  0.00  0.00    +0.000 A 
ATOM     21  C   UNL     1       2.754   2.683  21.264  0.00  0.00    +0.000 A 
ATOM     22  C   UNL     1       3.202   2.335  19.989  0.00  0.00    +0.000 A 
ENDBRANCH  16  17
ENDBRANCH  14  16
ENDBRANCH  13  14
ENDBRANCH   8  13
TORSDOF 5
ENDMDL
MODEL 2
REMARK VINA RESULT:      -7.3      0.076      1.082
REMARK  Name = 
REMARK  5 active torsions:
REMARK  status: ('A' for Active; 'I' for Inactive)
REMARK    1  A    between atoms: O_1  and  C_2
REMARK    2  A    between atoms: C_9  and  C_10
REMARK    3  A    between atoms: C_10  and  N_11
REMARK    4  A    between atoms: N_11  and  C_12
REMARK    5  A    between atoms: C_12  and  C_13
REMARK                            x       y       z     vdW  Elec       q    Type
REMARK                         _______ _______ _______ _____ _____    ______ ____
ROOT
ATOM      1  C   UNL     1       2.468   6.907  19.762  0.00  0.00    +0.000 A 
ATOM      2  C   UNL     1       2.189   7.715  18.666  0.00  0.00    +0.000 A 
ATOM      3  C   UNL     1       3.014   7.653  17.541  0.00  0.00    +0.000 A 
ATOM      4  C   UNL     1       4.104   6.769  17.509  0.00  0.00    +0.000 A 
ATOM      5  C   UNL     1       4.320   5.909  18.590  0.00  0.00    +0.000 A 
ATOM      6  C   UNL     1       3.526   6.006  19.732  0.00  0.00    +0.000 A 
ATOM      7  O   UNL     1       5.290   4.943  18.608  0.00  0.00    +0.000 OA
ATOM      8  C   UNL     1       5.836   4.596  17.319  0.00  0.00    +0.000 C 
ATOM      9  C   UNL     1       6.216   5.854  16.535  0.00  0.00    +0.000 C 
ATOM     10  C   UNL     1       5.013   6.757  16.313  0.00  0.00    +0.000 C 
ENDROOT
BRANCH   1  11
ATOM     11  O   UNL     1       1.711   6.966  20.895  0.00  0.00    +0.000 OA
ATOM     12  H   UNL     1       0.783   7.101  20.642  0.00  0.00    +0.000 HD
ENDBRANCH   1  11
BRANCH   8  13
ATOM     13  C   UNL     1       4.904   3.596  16.584  0.00  0.00    +0.000 C 
BRANCH  13  14
ATOM     14  N   UNL     1       4.439   2.522  17.476  0.00  0.00    +0.000 NA
ATOM     15  H   UNL     1       4.768   2.697  18.428  0.00  0.00    +0.000 HD
BRANCH  14  16
ATOM     16  C   UNL     1       2.982   2.390  17.505  0.00  0.00    +0.000 C 
BRANCH  16  17
ATOM     17  C   UNL     1       2.477   2.698  18.900  0.00  0.00    +0.000 A 
ATOM     18  C   UNL     1       3.239   2.392  20.038  0.00  0.00    +0.000 A 
ATOM     19  C   UNL     1       2.726   2.629  21.318  0.00  0.00    +0.000 A 
ATOM     20  C   UNL     1       1.454   3.177  21.477  0.00  0.00    +0.000 A 
ATOM     21  C   UNL     1       0.699   3.510  20.353  0.00  0.00    +0.000 A 
ATOM     22  C   UNL     1       1.208   3.277  19.075  0.00  0.00    +0.000 A 
ENDBRANCH  16  17
ENDBRANCH  14  16
ENDBRANCH  13  14
ENDBRANCH   8  13
TORSDOF 5
ENDMDL
MODEL 3
REMARK VINA RESULT:      -7.2      1.728      4.622
REMARK  Name = 
REMARK  5 active torsions:
REMARK  status: ('A' for Active; 'I' for Inactive)
REMARK    1  A    between atoms: O_1  and  C_2
REMARK    2  A    between atoms: C_9  and  C_10
REMARK    3  A    between atoms: C_10  and  N_11
REMARK    4  A    between atoms: N_11  and  C_12
REMARK    5  A    between atoms: C_12  and  C_13
REMARK                            x       y       z     vdW  Elec       q    Type
REMARK                         _______ _______ _______ _____ _____    ______ ____
ROOT
ATOM      1  C   UNL     1       2.525   7.019  18.639  0.00  0.00    +0.000 A 
ATOM      2  C   UNL     1       2.236   6.937  19.997  0.00  0.00    +0.000 A 
ATOM      3  C   UNL     1       1.757   5.736  20.524  0.00  0.00    +0.000 A 
ATOM      4  C   UNL     1       1.588   4.615  19.696  0.00  0.00    +0.000 A 
ATOM      5  C   UNL     1       1.960   4.696  18.350  0.00  0.00    +0.000 A 
ATOM      6  C   UNL     1       2.391   5.908  17.814  0.00  0.00    +0.000 A 
ATOM      7  O   UNL     1       1.931   3.630  17.491  0.00  0.00    +0.000 OA
ATOM      8  C   UNL     1       1.861   2.335  18.120  0.00  0.00    +0.000 C 
ATOM      9  C   UNL     1       0.767   2.310  19.189  0.00  0.00    +0.000 C 
ATOM     10  C   UNL     1       1.019   3.349  20.270  0.00  0.00    +0.000 C 
ENDROOT
BRANCH   1  11
ATOM     11  O   UNL     1       2.957   8.184  18.077  0.00  0.00    +0.000 OA
ATOM     12  H   UNL     1       2.276   8.864  18.211  0.00  0.00    +0.000 HD
ENDBRANCH   1  11
BRANCH   8  13
ATOM     13  C   UNL     1       3.270   1.876  18.582  0.00  0.00    +0.000 C 
BRANCH  13  14
ATOM     14  N   UNL     1       4.334   2.729  18.028  0.00  0.00    +0.000 NA
ATOM     15  H   UNL     1       3.935   3.381  17.349  0.00  0.00    +0.000 HD
BRANCH  14  16
ATOM     16  C   UNL     1       5.043   3.499  19.051  0.00  0.00    +0.000 C 
BRANCH  16  17
ATOM     17  C   UNL     1       5.825   4.615  18.387  0.00  0.00    +0.000 A 
ATOM     18  C   UNL     1       5.702   4.877  17.013  0.00  0.00    +0.000 A 
ATOM     19  C   UNL     1       6.480   5.872  16.410  0.00  0.00    +0.000 A 
ATOM     20  C   UNL     1       7.383   6.617  17.169  0.00  0.00    +0.000 A 
ATOM     21  C   UNL     1       7.493   6.383  18.539  0.00  0.00    +0.000 A 
ATOM     22  C   UNL     1       6.717   5.394  19.143  0.00  0.00    +0.000 A 
ENDBRANCH  16  17
ENDBRANCH  14  16
ENDBRANCH  13  14
ENDBRANCH   8  13
TORSDOF 5
ENDMDL
MODEL 4
REMARK VINA RESULT:      -7.2      1.714      4.699
REMARK  Name = 
REMARK  5 active torsions:
REMARK  status: ('A' for Active; 'I' for Inactive)
REMARK    1  A    between atoms: O_1  and  C_2
REMARK    2  A    between atoms: C_9  and  C_10
REMARK    3  A    between atoms: C_10  and  N_11
REMARK    4  A    between atoms: N_11  and  C_12
REMARK    5  A    between atoms: C_12  and  C_13
REMARK                            x       y       z     vdW  Elec       q    Type
REMARK                         _______ _______ _______ _____ _____    ______ ____
ROOT
ATOM      1  C   UNL     1       2.566   7.031  18.567  0.00  0.00    +0.000 A 
ATOM      2  C   UNL     1       2.247   6.978  19.920  0.00  0.00    +0.000 A 
ATOM      3  C   UNL     1       1.744   5.792  20.458  0.00  0.00    +0.000 A 
ATOM      4  C   UNL     1       1.580   4.657  19.648  0.00  0.00    +0.000 A 
ATOM      5  C   UNL     1       1.981   4.710  18.309  0.00  0.00    +0.000 A 
ATOM      6  C   UNL     1       2.437   5.907  17.760  0.00  0.00    +0.000 A 
ATOM      7  O   UNL     1       1.958   3.628  17.469  0.00  0.00    +0.000 OA
ATOM      8  C   UNL     1       1.860   2.346  18.120  0.00  0.00    +0.000 C 
ATOM      9  C   UNL     1       0.744   2.352  19.165  0.00  0.00    +0.000 C 
ATOM     10  C   UNL     1       0.985   3.409  20.233  0.00  0.00    +0.000 C 
ENDROOT
BRANCH   1  11
ATOM     11  O   UNL     1       3.022   8.181  17.993  0.00  0.00    +0.000 OA
ATOM     12  H   UNL     1       3.961   8.065  17.771  0.00  0.00    +0.000 HD
ENDBRANCH   1  11
BRANCH   8  13
ATOM     13  C   UNL     1       3.254   1.881  18.621  0.00  0.00    +0.000 C 
BRANCH  13  14
ATOM     14  N   UNL     1       4.341   2.692  18.050  0.00  0.00    +0.000 NA
ATOM     15  H   UNL     1       3.967   3.313  17.329  0.00  0.00    +0.000 HD
BRANCH  14  16
ATOM     16  C   UNL     1       5.034   3.507  19.049  0.00  0.00    +0.000 C 
BRANCH  16  17
ATOM     17  C   UNL     1       5.874   4.555  18.347  0.00  0.00    +0.000 A 
ATOM     18  C   UNL     1       6.701   5.432  19.066  0.00  0.00    +0.000 A 
ATOM     19  C   UNL     1       7.420   6.432  18.402  0.00  0.00    +0.000 A 
ATOM     20  C   UNL     1       7.327   6.564  17.017  0.00  0.00    +0.000 A 
ATOM     21  C   UNL     1       6.531   5.681  16.290  0.00  0.00    +0.000 A 
ATOM     22  C   UNL     1       5.814   4.682  16.949  0.00  0.00    +0.000 A 
ENDBRANCH  16  17
ENDBRANCH  14  16
ENDBRANCH  13  14
ENDBRANCH   8  13
TORSDOF 5
ENDMDL
MODEL 5
REMARK VINA RESULT:      -6.8      2.155      4.423
REMARK  Name = 
REMARK  5 active torsions:
REMARK  status: ('A' for Active; 'I' for Inactive)
REMARK    1  A    between atoms: O_1  and  C_2
REMARK    2  A    between atoms: C_9  and  C_10
REMARK    3  A    between atoms: C_10  and  N_11
REMARK    4  A    between atoms: N_11  and  C_12
REMARK    5  A    between atoms: C_12  and  C_13
REMARK                            x       y       z     vdW  Elec       q    Type
REMARK                         _______ _______ _______ _____ _____    ______ ____
ROOT
ATOM      1  C   UNL     1       7.151   5.038  14.590  0.00  0.00    +0.000 A 
ATOM      2  C   UNL     1       6.136   4.203  14.137  0.00  0.00    +0.000 A 
ATOM      3  C   UNL     1       5.253   3.637  15.060  0.00  0.00    +0.000 A 
ATOM      4  C   UNL     1       5.376   3.923  16.428  0.00  0.00    +0.000 A 
ATOM      5  C   UNL     1       6.355   4.828  16.852  0.00  0.00    +0.000 A 
ATOM      6  C   UNL     1       7.267   5.354  15.938  0.00  0.00    +0.000 A 
ATOM      7  O   UNL     1       6.486   5.250  18.149  0.00  0.00    +0.000 OA
ATOM      8  C   UNL     1       5.338   5.015  18.990  0.00  0.00    +0.000 C 
ATOM      9  C   UNL     1       4.845   3.574  18.845  0.00  0.00    +0.000 C 
ATOM     10  C   UNL     1       4.452   3.261  17.410  0.00  0.00    +0.000 C 
ENDROOT
BRANCH   1  11
ATOM     11  O   UNL     1       8.059   5.579  13.727  0.00  0.00    +0.000 OA
ATOM     12  H   UNL     1       8.773   4.936  13.585  0.00  0.00    +0.000 HD
ENDBRANCH   1  11
BRANCH   8  13
ATOM     13  C   UNL     1       4.270   6.121  18.776  0.00  0.00    +0.000 C 
BRANCH  13  14
ATOM     14  N   UNL     1       3.467   6.349  19.988  0.00  0.00    +0.000 NA
ATOM     15  H   UNL     1       3.631   7.296  20.339  0.00  0.00    +0.000 HD
BRANCH  14  16
ATOM     16  C   UNL     1       2.030   6.181  19.764  0.00  0.00    +0.000 C 
BRANCH  16  17
ATOM     17  C   UNL     1       1.680   4.708  19.829  0.00  0.00    +0.000 A 
ATOM     18  C   UNL     1       1.813   3.977  21.020  0.00  0.00    +0.000 A 
ATOM     19  C   UNL     1       1.543   2.604  21.041  0.00  0.00    +0.000 A 
ATOM     20  C   UNL     1       1.133   1.949  19.881  0.00  0.00    +0.000 A 
ATOM     21  C   UNL     1       0.971   2.671  18.699  0.00  0.00    +0.000 A 
ATOM     22  C   UNL     1       1.237   4.040  18.675  0.00  0.00    +0.000 A 
ENDBRANCH  16  17
ENDBRANCH  14  16
ENDBRANCH  13  14
ENDBRANCH   8  13
TORSDOF 5
ENDMDL
MODEL 6
REMARK VINA RESULT:      -6.7      2.132      4.321
REMARK  Name = 
REMARK  5 active torsions:
REMARK  status: ('A' for Active; 'I' for Inactive)
REMARK    1  A    between atoms: O_1  and  C_2
REMARK    2  A    between atoms: C_9  and  C_10
REMARK    3  A    between atoms: C_10  and  N_11
REMARK    4  A    between atoms: N_11  and  C_12
REMARK    5  A    between atoms: C_12  and  C_13
REMARK                            x       y       z     vdW  Elec       q    Type
REMARK                         _______ _______ _______ _____ _____    ______ ____
ROOT
ATOM      1  C   UNL     1       7.108   5.060  14.768  0.00  0.00    +0.000 A 
ATOM      2  C   UNL     1       6.175   4.128  14.328  0.00  0.00    +0.000 A 
ATOM      3  C   UNL     1       5.309   3.537  15.250  0.00  0.00    +0.000 A 
ATOM      4  C   UNL     1       5.366   3.894  16.607  0.00  0.00    +0.000 A 
ATOM      5  C   UNL     1       6.258   4.891  17.014  0.00  0.00    +0.000 A 
ATOM      6  C   UNL     1       7.155   5.445  16.103  0.00  0.00    +0.000 A 
ATOM      7  O   UNL     1       6.313   5.381  18.292  0.00  0.00    +0.000 OA
ATOM      8  C   UNL     1       5.161   5.096  19.111  0.00  0.00    +0.000 C 
ATOM      9  C   UNL     1       4.786   3.616  19.021  0.00  0.00    +0.000 C 
ATOM     10  C   UNL     1       4.465   3.207  17.592  0.00  0.00    +0.000 C 
ENDROOT
BRANCH   1  11
ATOM     11  O   UNL     1       7.999   5.631  13.907  0.00  0.00    +0.000 OA
ATOM     12  H   UNL     1       8.662   4.964  13.659  0.00  0.00    +0.000 HD
ENDBRANCH   1  11
BRANCH   8  13
ATOM     13  C   UNL     1       4.018   6.104  18.813  0.00  0.00    +0.000 C 
BRANCH  13  14
ATOM     14  N   UNL     1       3.323   6.522  20.041  0.00  0.00    +0.000 NA
ATOM     15  H   UNL     1       3.460   7.524  20.192  0.00  0.00    +0.000 HD
BRANCH  14  16
ATOM     16  C   UNL     1       1.885   6.250  20.006  0.00  0.00    +0.000 C 
BRANCH  16  17
ATOM     17  C   UNL     1       1.656   4.753  19.979  0.00  0.00    +0.000 A 
ATOM     18  C   UNL     1       1.214   4.101  18.817  0.00  0.00    +0.000 A 
ATOM     19  C   UNL     1       0.951   2.727  18.832  0.00  0.00    +0.000 A 
ATOM     20  C   UNL     1       1.131   1.988  20.001  0.00  0.00    +0.000 A 
ATOM     21  C   UNL     1       1.597   2.620  21.153  0.00  0.00    +0.000 A 
ATOM     22  C   UNL     1       1.861   3.990  21.141  0.00  0.00    +0.000 A 
ENDBRANCH  16  17
ENDBRANCH  14  16
ENDBRANCH  13  14
ENDBRANCH   8  13
TORSDOF 5
ENDMDL
MODEL 7
REMARK VINA RESULT:      -6.7      1.717      4.859
REMARK  Name = 
REMARK  5 active torsions:
REMARK  status: ('A' for Active; 'I' for Inactive)
REMARK    1  A    between atoms: O_1  and  C_2
REMARK    2  A    between atoms: C_9  and  C_10
REMARK    3  A    between atoms: C_10  and  N_11
REMARK    4  A    between atoms: N_11  and  C_12
REMARK    5  A    between atoms: C_12  and  C_13
REMARK                            x       y       z     vdW  Elec       q    Type
REMARK                         _______ _______ _______ _____ _____    ______ ____
ROOT
ATOM      1  C   UNL     1       2.343   7.411  18.524  0.00  0.00    +0.000 A 
ATOM      2  C   UNL     1       1.993   7.667  19.845  0.00  0.00    +0.000 A 
ATOM      3  C   UNL     1       1.697   6.599  20.694  0.00  0.00    +0.000 A 
ATOM      4  C   UNL     1       1.772   5.278  20.226  0.00  0.00    +0.000 A 
ATOM      5  C   UNL     1       2.203   5.039  18.917  0.00  0.00    +0.000 A 
ATOM      6  C   UNL     1       2.451   6.107  18.055  0.00  0.00    +0.000 A 
ATOM      7  O   UNL     1       2.408   3.787  18.403  0.00  0.00    +0.000 OA
ATOM      8  C   UNL     1       2.524   2.733  19.381  0.00  0.00    +0.000 C 
ATOM      9  C   UNL     1       1.389   2.814  20.404  0.00  0.00    +0.000 C 
ATOM     10  C   UNL     1       1.396   4.146  21.138  0.00  0.00    +0.000 C 
ENDROOT
BRANCH   1  11
ATOM     11  O   UNL     1       2.601   8.426  17.651  0.00  0.00    +0.000 OA
ATOM     12  H   UNL     1       2.113   8.259  16.827  0.00  0.00    +0.000 HD
ENDBRANCH   1  11
BRANCH   8  13
ATOM     13  C   UNL     1       3.961   2.688  19.966  0.00  0.00    +0.000 C 
BRANCH  13  14
ATOM     14  N   UNL     1       4.986   2.766  18.913  0.00  0.00    +0.000 NA
ATOM     15  H   UNL     1       4.582   2.482  18.017  0.00  0.00    +0.000 HD
BRANCH  14  16
ATOM     16  C   UNL     1       5.553   4.107  18.761  0.00  0.00    +0.000 C 
BRANCH  16  17
ATOM     17  C   UNL     1       5.933   4.331  17.312  0.00  0.00    +0.000 A 
ATOM     18  C   UNL     1       7.201   4.815  16.955  0.00  0.00    +0.000 A 
ATOM     19  C   UNL     1       7.509   5.073  15.614  0.00  0.00    +0.000 A 
ATOM     20  C   UNL     1       6.560   4.846  14.617  0.00  0.00    +0.000 A 
ATOM     21  C   UNL     1       5.307   4.339  14.958  0.00  0.00    +0.000 A 
ATOM     22  C   UNL     1       4.998   4.079  16.294  0.00  0.00    +0.000 A 
ENDBRANCH  16  17
ENDBRANCH  14  16
ENDBRANCH  13  14
ENDBRANCH   8  13
TORSDOF 5
ENDMDL
MODEL 8
REMARK VINA RESULT:      -6.6      2.610      5.686
REMARK  Name = 
REMARK  5 active torsions:
REMARK  status: ('A' for Active; 'I' for Inactive)
REMARK    1  A    between atoms: O_1  and  C_2
REMARK    2  A    between atoms: C_9  and  C_10
REMARK    3  A    between atoms: C_10  and  N_11
REMARK    4  A    between atoms: N_11  and  C_12
REMARK    5  A    between atoms: C_12  and  C_13
REMARK                            x       y       z     vdW  Elec       q    Type
REMARK                         _______ _______ _______ _____ _____    ______ ____
ROOT
ATOM      1  C   UNL     1       1.558   3.019  21.236  0.00  0.00    +0.000 A 
ATOM      2  C   UNL     1       0.804   2.741  20.102  0.00  0.00    +0.000 A 
ATOM      3  C   UNL     1       1.088   3.410  18.909  0.00  0.00    +0.000 A 
ATOM      4  C   UNL     1       2.138   4.340  18.849  0.00  0.00    +0.000 A 
ATOM      5  C   UNL     1       2.935   4.545  19.980  0.00  0.00    +0.000 A 
ATOM      6  C   UNL     1       2.620   3.915  21.184  0.00  0.00    +0.000 A 
ATOM      7  O   UNL     1       4.043   5.350  19.990  0.00  0.00    +0.000 OA
ATOM      8  C   UNL     1       4.573   5.681  18.691  0.00  0.00    +0.000 C 
ATOM      9  C   UNL     1       3.460   6.156  17.756  0.00  0.00    +0.000 C 
ATOM     10  C   UNL     1       2.392   5.089  17.573  0.00  0.00    +0.000 C 
ENDROOT
BRANCH   1  11
ATOM     11  O   UNL     1       1.289   2.418  22.430  0.00  0.00    +0.000 OA
ATOM     12  H   UNL     1       1.485   1.470  22.351  0.00  0.00    +0.000 HD
ENDBRANCH   1  11
BRANCH   8  13
ATOM     13  C   UNL     1       5.462   4.527  18.155  0.00  0.00    +0.000 C 
BRANCH  13  14
ATOM     14  N   UNL     1       5.959   4.803  16.798  0.00  0.00    +0.000 NA
ATOM     15  H   UNL     1       6.979   4.726  16.781  0.00  0.00    +0.000 HD
BRANCH  14  16
ATOM     16  C   UNL     1       5.410   3.895  15.789  0.00  0.00    +0.000 C 
BRANCH  16  17
ATOM     17  C   UNL     1       6.133   4.107  14.475  0.00  0.00    +0.000 A 
ATOM     18  C   UNL     1       7.205   5.007  14.367  0.00  0.00    +0.000 A 
ATOM     19  C   UNL     1       7.818   5.231  13.129  0.00  0.00    +0.000 A 
ATOM     20  C   UNL     1       7.375   4.559  11.991  0.00  0.00    +0.000 A 
ATOM     21  C   UNL     1       6.330   3.642  12.092  0.00  0.00    +0.000 A 
ATOM     22  C   UNL     1       5.717   3.414  13.325  0.00  0.00    +0.000 A 
ENDBRANCH  16  17
ENDBRANCH  14  16
ENDBRANCH  13  14
ENDBRANCH   8  13
TORSDOF 5
ENDMDL
MODEL 9
REMARK VINA RESULT:      -6.6      2.907      5.842
REMARK  Name = 
REMARK  5 active torsions:
REMARK  status: ('A' for Active; 'I' for Inactive)
REMARK    1  A    between atoms: O_1  and  C_2
REMARK    2  A    between atoms: C_9  and  C_10
REMARK    3  A    between atoms: C_10  and  N_11
REMARK    4  A    between atoms: N_11  and  C_12
REMARK    5  A    between atoms: C_12  and  C_13
REMARK                            x       y       z     vdW  Elec       q    Type
REMARK                         _______ _______ _______ _____ _____    ______ ____
ROOT
ATOM      1  C   UNL     1       1.186   2.623  18.666  0.00  0.00    +0.000 A 
ATOM      2  C   UNL     1       0.953   3.509  19.712  0.00  0.00    +0.000 A 
ATOM      3  C   UNL     1       1.954   4.409  20.083  0.00  0.00    +0.000 A 
ATOM      4  C   UNL     1       3.176   4.435  19.394  0.00  0.00    +0.000 A 
ATOM      5  C   UNL     1       3.359   3.591  18.294  0.00  0.00    +0.000 A 
ATOM      6  C   UNL     1       2.380   2.658  17.955  0.00  0.00    +0.000 A 
ATOM      7  O   UNL     1       4.472   3.616  17.497  0.00  0.00    +0.000 OA
ATOM      8  C   UNL     1       5.282   4.804  17.609  0.00  0.00    +0.000 C 
ATOM      9  C   UNL     1       5.553   5.139  19.076  0.00  0.00    +0.000 C 
ATOM     10  C   UNL     1       4.260   5.372  19.843  0.00  0.00    +0.000 C 
ENDROOT
BRANCH   1  11
ATOM     11  O   UNL     1       0.250   1.701  18.298  0.00  0.00    +0.000 OA
ATOM     12  H   UNL     1      -0.549   2.170  18.004  0.00  0.00    +0.000 HD
ENDBRANCH   1  11
BRANCH   8  13
ATOM     13  C   UNL     1       4.686   5.952  16.751  0.00  0.00    +0.000 C 
BRANCH  13  14
ATOM     14  N   UNL     1       5.634   6.422  15.728  0.00  0.00    +0.000 NA
ATOM     15  H   UNL     1       5.997   7.341  15.990  0.00  0.00    +0.000 HD
BRANCH  14  16
ATOM     16  C   UNL     1       6.766   5.514  15.535  0.00  0.00    +0.000 C 
BRANCH  16  17
ATOM     17  C   UNL     1       6.629   4.818  14.196  0.00  0.00    +0.000 A 
ATOM     18  C   UNL     1       5.590   3.909  13.947  0.00  0.00    +0.000 A 
ATOM     19  C   UNL     1       5.519   3.231  12.725  0.00  0.00    +0.000 A 
ATOM     20  C   UNL     1       6.478   3.457  11.738  0.00  0.00    +0.000 A 
ATOM     21  C   UNL     1       7.499   4.379  11.964  0.00  0.00    +0.000 A 
ATOM     22  C   UNL     1       7.571   5.057  13.181  0.00  0.00    +0.000 A 
ENDBRANCH  16  17
ENDBRANCH  14  16
ENDBRANCH  13  14
ENDBRANCH   8  13
TORSDOF 5
ENDMDL
