MODEL 1
REMARK VINA RESULT:      -7.5      0.000      0.000
REMARK  Name = 
REMARK  5 active torsions:
REMARK  status: ('A' for Active; 'I' for Inactive)
REMARK    1  A    between atoms: N_1  and  C_2
REMARK    2  A    between atoms: C_5  and  C_6
REMARK    3  A    between atoms: C_8  and  N_9
REMARK    4  A    between atoms: C_29  and  O_30
REMARK    5  A    between atoms: O_30  and  C_31
REMARK                            x       y       z     vdW  Elec       q    Type
REMARK                         _______ _______ _______ _____ _____    ______ ____
ROOT
ATOM      1  C   UNL     1       1.165   9.829  18.534  0.00  0.00    +0.000 A 
ATOM      2  C   UNL     1      -0.208   9.746  18.463  0.00  0.00    +0.000 A 
ATOM      3  C   UNL     1      -0.930  10.912  18.393  0.00  0.00    +0.000 A 
ATOM      4  N   UNL     1      -0.305  12.099  18.430  0.00  0.00    +0.000 NA
ATOM      5  C   UNL     1       1.042  12.127  18.514  0.00  0.00    +0.000 A 
ATOM      6  N   UNL     1       1.671  13.352  18.556  0.00  0.00    +0.000 N 
ATOM      7  C   UNL     1       3.121  13.457  18.663  0.00  0.00    +0.000 C 
ATOM      8  C   UNL     1       3.356  14.354  19.874  0.00  0.00    +0.000 C 
ATOM      9  C   UNL     1       2.102  15.172  19.952  0.00  0.00    +0.000 C 
ATOM     10  C   UNL     1       0.990  14.444  19.242  0.00  0.00    +0.000 C 
ATOM     11  C   UNL     1       1.803  16.018  21.183  0.00  0.00    +0.000 C 
ATOM     12  C   UNL     1       2.180  16.656  19.899  0.00  0.00    +0.000 C 
ATOM     13  F   UNL     1       3.389  17.305  19.799  0.00  0.00    +0.000 F 
ATOM     14  F   UNL     1       1.255  17.401  19.211  0.00  0.00    +0.000 F 
ATOM     15  N   UNL     1       1.795  11.016  18.544  0.00  0.00    +0.000 NA
ENDROOT
BRANCH   3  16
ATOM     16  N   UNL     1      -2.284  10.857  18.225  0.00  0.00    +0.000 N 
ATOM     17  C   UNL     1      -3.250  11.840  18.737  0.00  0.00    +0.000 C 
ATOM     18  C   UNL     1      -4.535  11.390  17.993  0.00  0.00    +0.000 C 
ATOM     19  C   UNL     1      -4.344   9.882  17.921  0.00  0.00    +0.000 C 
ATOM     20  C   UNL     1      -2.985  10.029  17.239  0.00  0.00    +0.000 C 
ATOM     21  C   UNL     1      -3.397  10.914  16.050  0.00  0.00    +0.000 C 
ATOM     22  O   UNL     1      -4.424  11.798  16.602  0.00  0.00    +0.000 OA
ENDBRANCH   3  16
BRANCH   1  26
ATOM     23  C   UNL     1       3.528   6.292  18.543  0.00  0.00    +0.000 A 
ATOM     24  N   UNL     1       3.717   7.211  17.576  0.00  0.00    +0.000 NA
ATOM     25  C   UNL     1       2.973   8.348  17.624  0.00  0.00    +0.000 A 
ATOM     26  C   UNL     1       2.000   8.620  18.578  0.00  0.00    +0.000 A 
ATOM     27  C   UNL     1       1.846   7.644  19.571  0.00  0.00    +0.000 A 
ATOM     28  C   UNL     1       2.618   6.479  19.583  0.00  0.00    +0.000 A 
BRANCH  23  29
ATOM     29  N   UNL     1       4.324   5.152  18.410  0.00  0.00    +0.000 N 
ATOM     30  H   UNL     1       3.748   4.389  18.766  0.00  0.00    +0.000 HD
ATOM     31  H   UNL     1       4.503   4.989  17.420  0.00  0.00    +0.000 HD
ENDBRANCH  23  29
BRANCH  28  32
ATOM     32  O   UNL     1       2.318   5.652  20.625  0.00  0.00    +0.000 OA
BRANCH  32  33
ATOM     33  C   UNL     1       1.206   4.787  20.491  0.00  0.00    +0.000 C 
ATOM     34  F   UNL     1       1.145   4.282  19.232  0.00  0.00    +0.000 F 
ATOM     35  F   UNL     1       1.444   3.724  21.305  0.00  0.00    +0.000 F 
ENDBRANCH  32  33
ENDBRANCH  28  32
ENDBRANCH   1  26
TORSDOF 5
ENDMDL
MODEL 2
REMARK VINA RESULT:      -7.4      4.409      7.444
REMARK  Name = 
REMARK  5 active torsions:
REMARK  status: ('A' for Active; 'I' for Inactive)
REMARK    1  A    between atoms: N_1  and  C_2
REMARK    2  A    between atoms: C_5  and  C_6
REMARK    3  A    between atoms: C_8  and  N_9
REMARK    4  A    between atoms: C_29  and  O_30
REMARK    5  A    between atoms: O_30  and  C_31
REMARK                            x       y       z     vdW  Elec       q    Type
REMARK                         _______ _______ _______ _____ _____    ______ ____
ROOT
ATOM      1  C   UNL     1       4.340   5.799  17.566  0.00  0.00    +0.000 A 
ATOM      2  C   UNL     1       4.136   4.859  18.551  0.00  0.00    +0.000 A 
ATOM      3  C   UNL     1       3.101   5.051  19.433  0.00  0.00    +0.000 A 
ATOM      4  N   UNL     1       2.336   6.151  19.350  0.00  0.00    +0.000 NA
ATOM      5  C   UNL     1       2.585   7.049  18.375  0.00  0.00    +0.000 A 
ATOM      6  N   UNL     1       1.795   8.175  18.303  0.00  0.00    +0.000 N 
ATOM      7  C   UNL     1       2.018   9.195  17.286  0.00  0.00    +0.000 C 
ATOM      8  C   UNL     1       2.161  10.496  18.067  0.00  0.00    +0.000 C 
ATOM      9  C   UNL     1       1.396  10.233  19.330  0.00  0.00    +0.000 C 
ATOM     10  C   UNL     1       1.307   8.745  19.554  0.00  0.00    +0.000 C 
ATOM     11  C   UNL     1       1.505  11.183  20.516  0.00  0.00    +0.000 C 
ATOM     12  C   UNL     1       0.263  11.117  19.709  0.00  0.00    +0.000 C 
ATOM     13  F   UNL     1      -0.094  12.195  18.932  0.00  0.00    +0.000 F 
ATOM     14  F   UNL     1      -0.886  10.614  20.268  0.00  0.00    +0.000 F 
ATOM     15  N   UNL     1       3.559   6.887  17.463  0.00  0.00    +0.000 NA
ENDROOT
BRANCH   3  16
ATOM     16  N   UNL     1       2.818   4.088  20.358  0.00  0.00    +0.000 N 
ATOM     17  C   UNL     1       2.144   4.312  21.646  0.00  0.00    +0.000 C 
ATOM     18  C   UNL     1       1.867   2.847  22.079  0.00  0.00    +0.000 C 
ATOM     19  C   UNL     1       3.078   2.118  21.517  0.00  0.00    +0.000 C 
ATOM     20  C   UNL     1       2.811   2.643  20.107  0.00  0.00    +0.000 C 
ATOM     21  C   UNL     1       1.354   2.175  19.939  0.00  0.00    +0.000 C 
ATOM     22  O   UNL     1       0.773   2.331  21.273  0.00  0.00    +0.000 OA
ENDBRANCH   3  16
BRANCH   1  26
ATOM     23  C   UNL     1       7.403   5.460  14.633  0.00  0.00    +0.000 A 
ATOM     24  N   UNL     1       7.496   6.416  15.578  0.00  0.00    +0.000 NA
ATOM     25  C   UNL     1       6.521   6.472  16.524  0.00  0.00    +0.000 A 
ATOM     26  C   UNL     1       5.409   5.639  16.569  0.00  0.00    +0.000 A 
ATOM     27  C   UNL     1       5.360   4.654  15.575  0.00  0.00    +0.000 A 
ATOM     28  C   UNL     1       6.361   4.534  14.608  0.00  0.00    +0.000 A 
BRANCH  23  29
ATOM     29  N   UNL     1       8.438   5.482  13.696  0.00  0.00    +0.000 N 
ATOM     30  H   UNL     1       8.954   6.340  13.896  0.00  0.00    +0.000 HD
ATOM     31  H   UNL     1       9.053   4.687  13.865  0.00  0.00    +0.000 HD
ENDBRANCH  23  29
BRANCH  28  32
ATOM     32  O   UNL     1       6.132   3.518  13.728  0.00  0.00    +0.000 OA
BRANCH  32  33
ATOM     33  C   UNL     1       5.991   3.841  12.357  0.00  0.00    +0.000 C 
ATOM     34  F   UNL     1       7.040   3.355  11.644  0.00  0.00    +0.000 F 
ATOM     35  F   UNL     1       4.897   3.168  11.912  0.00  0.00    +0.000 F 
ENDBRANCH  32  33
ENDBRANCH  28  32
ENDBRANCH   1  26
TORSDOF 5
ENDMDL
MODEL 3
REMARK VINA RESULT:      -7.3      1.828      2.246
REMARK  Name = 
REMARK  5 active torsions:
REMARK  status: ('A' for Active; 'I' for Inactive)
REMARK    1  A    between atoms: N_1  and  C_2
REMARK    2  A    between atoms: C_5  and  C_6
REMARK    3  A    between atoms: C_8  and  N_9
REMARK    4  A    between atoms: C_29  and  O_30
REMARK    5  A    between atoms: O_30  and  C_31
REMARK                            x       y       z     vdW  Elec       q    Type
REMARK                         _______ _______ _______ _____ _____    ______ ____
ROOT
ATOM      1  C   UNL     1       0.608   9.973  18.885  0.00  0.00    +0.000 A 
ATOM      2  C   UNL     1      -0.767   9.965  18.825  0.00  0.00    +0.000 A 
ATOM      3  C   UNL     1      -1.418  11.152  18.587  0.00  0.00    +0.000 A 
ATOM      4  N   UNL     1      -0.720  12.291  18.454  0.00  0.00    +0.000 NA
ATOM      5  C   UNL     1       0.626  12.247  18.535  0.00  0.00    +0.000 A 
ATOM      6  N   UNL     1       1.330  13.423  18.401  0.00  0.00    +0.000 N 
ATOM      7  C   UNL     1       2.784  13.453  18.494  0.00  0.00    +0.000 C 
ATOM      8  C   UNL     1       3.083  14.498  19.563  0.00  0.00    +0.000 C 
ATOM      9  C   UNL     1       1.882  15.395  19.521  0.00  0.00    +0.000 C 
ATOM     10  C   UNL     1       0.722  14.643  18.922  0.00  0.00    +0.000 C 
ATOM     11  C   UNL     1       1.645  16.426  20.617  0.00  0.00    +0.000 C 
ATOM     12  C   UNL     1       2.051  16.848  19.256  0.00  0.00    +0.000 C 
ATOM     13  F   UNL     1       3.297  17.400  19.065  0.00  0.00    +0.000 F 
ATOM     14  F   UNL     1       1.168  17.543  18.466  0.00  0.00    +0.000 F 
ATOM     15  N   UNL     1       1.310  11.107  18.725  0.00  0.00    +0.000 NA
ENDROOT
BRANCH   3  16
ATOM     16  N   UNL     1      -2.773  11.157  18.427  0.00  0.00    +0.000 N 
ATOM     17  C   UNL     1      -3.687  12.204  18.907  0.00  0.00    +0.000 C 
ATOM     18  C   UNL     1      -4.997  11.790  18.185  0.00  0.00    +0.000 C 
ATOM     19  C   UNL     1      -4.881  10.274  18.168  0.00  0.00    +0.000 C 
ATOM     20  C   UNL     1      -3.520  10.328  17.475  0.00  0.00    +0.000 C 
ATOM     21  C   UNL     1      -3.895  11.188  16.256  0.00  0.00    +0.000 C 
ATOM     22  O   UNL     1      -4.875  12.141  16.779  0.00  0.00    +0.000 OA
ENDBRANCH   3  16
BRANCH   1  26
ATOM     23  C   UNL     1       2.885   6.452  19.608  0.00  0.00    +0.000 A 
ATOM     24  N   UNL     1       2.157   6.986  20.609  0.00  0.00    +0.000 NA
ATOM     25  C   UNL     1       1.410   8.089  20.335  0.00  0.00    +0.000 A 
ATOM     26  C   UNL     1       1.368   8.733  19.104  0.00  0.00    +0.000 A 
ATOM     27  C   UNL     1       2.129   8.137  18.090  0.00  0.00    +0.000 A 
ATOM     28  C   UNL     1       2.880   6.981  18.318  0.00  0.00    +0.000 A 
BRANCH  23  29
ATOM     29  N   UNL     1       3.630   5.331  19.980  0.00  0.00    +0.000 N 
ATOM     30  H   UNL     1       4.039   4.989  19.110  0.00  0.00    +0.000 HD
ATOM     31  H   UNL     1       4.383   5.627  20.600  0.00  0.00    +0.000 HD
ENDBRANCH  23  29
BRANCH  28  32
ATOM     32  O   UNL     1       3.553   6.557  17.210  0.00  0.00    +0.000 OA
BRANCH  32  33
ATOM     33  C   UNL     1       4.858   7.060  16.990  0.00  0.00    +0.000 C 
ATOM     34  F   UNL     1       5.764   6.376  17.737  0.00  0.00    +0.000 F 
ATOM     35  F   UNL     1       5.164   6.785  15.693  0.00  0.00    +0.000 F 
ENDBRANCH  32  33
ENDBRANCH  28  32
ENDBRANCH   1  26
TORSDOF 5
ENDMDL
MODEL 4
REMARK VINA RESULT:      -7.0      3.930      8.856
REMARK  Name = 
REMARK  5 active torsions:
REMARK  status: ('A' for Active; 'I' for Inactive)
REMARK    1  A    between atoms: N_1  and  C_2
REMARK    2  A    between atoms: C_5  and  C_6
REMARK    3  A    between atoms: C_8  and  N_9
REMARK    4  A    between atoms: C_29  and  O_30
REMARK    5  A    between atoms: O_30  and  C_31
REMARK                            x       y       z     vdW  Elec       q    Type
REMARK                         _______ _______ _______ _____ _____    ______ ____
ROOT
ATOM      1  C   UNL     1       2.385   7.626  18.825  0.00  0.00    +0.000 A 
ATOM      2  C   UNL     1       1.958   6.552  19.574  0.00  0.00    +0.000 A 
ATOM      3  C   UNL     1       2.609   5.352  19.425  0.00  0.00    +0.000 A 
ATOM      4  N   UNL     1       3.613   5.232  18.541  0.00  0.00    +0.000 NA
ATOM      5  C   UNL     1       3.984   6.311  17.822  0.00  0.00    +0.000 A 
ATOM      6  N   UNL     1       5.013   6.173  16.916  0.00  0.00    +0.000 N 
ATOM      7  C   UNL     1       5.455   7.292  16.094  0.00  0.00    +0.000 C 
ATOM      8  C   UNL     1       5.385   6.773  14.662  0.00  0.00    +0.000 C 
ATOM      9  C   UNL     1       5.535   5.289  14.820  0.00  0.00    +0.000 C 
ATOM     10  C   UNL     1       5.140   4.897  16.220  0.00  0.00    +0.000 C 
ATOM     11  C   UNL     1       5.254   4.352  13.652  0.00  0.00    +0.000 C 
ATOM     12  C   UNL     1       6.641   4.578  14.126  0.00  0.00    +0.000 C 
ATOM     13  F   UNL     1       7.528   5.251  13.318  0.00  0.00    +0.000 F 
ATOM     14  F   UNL     1       7.329   3.555  14.730  0.00  0.00    +0.000 F 
ATOM     15  N   UNL     1       3.407   7.516  17.961  0.00  0.00    +0.000 NA
ENDROOT
BRANCH   3  16
ATOM     16  N   UNL     1       2.270   4.298  20.222  0.00  0.00    +0.000 N 
ATOM     17  C   UNL     1       0.924   4.021  20.746  0.00  0.00    +0.000 C 
ATOM     18  C   UNL     1       1.128   2.589  21.309  0.00  0.00    +0.000 C 
ATOM     19  C   UNL     1       2.569   2.643  21.791  0.00  0.00    +0.000 C 
ATOM     20  C   UNL     1       3.072   3.086  20.417  0.00  0.00    +0.000 C 
ATOM     21  C   UNL     1       2.481   1.955  19.559  0.00  0.00    +0.000 C 
ATOM     22  O   UNL     1       1.193   1.663  20.190  0.00  0.00    +0.000 OA
ENDBRANCH   3  16
BRANCH   1  26
ATOM     23  C   UNL     1       0.681  11.502  19.245  0.00  0.00    +0.000 A 
ATOM     24  N   UNL     1       1.583  11.279  18.269  0.00  0.00    +0.000 NA
ATOM     25  C   UNL     1       2.079  10.019  18.137  0.00  0.00    +0.000 A 
ATOM     26  C   UNL     1       1.753   8.948  18.960  0.00  0.00    +0.000 A 
ATOM     27  C   UNL     1       0.803   9.222  19.952  0.00  0.00    +0.000 A 
ATOM     28  C   UNL     1       0.238  10.491  20.097  0.00  0.00    +0.000 A 
BRANCH  23  29
ATOM     29  N   UNL     1       0.234  12.823  19.316  0.00  0.00    +0.000 N 
ATOM     30  H   UNL     1       1.085  13.385  19.347  0.00  0.00    +0.000 HD
ATOM     31  H   UNL     1      -0.272  13.046  18.460  0.00  0.00    +0.000 HD
ENDBRANCH  23  29
BRANCH  28  32
ATOM     32  O   UNL     1      -0.662  10.559  21.119  0.00  0.00    +0.000 OA
BRANCH  32  33
ATOM     33  C   UNL     1      -0.251  10.122  22.401  0.00  0.00    +0.000 C 
ATOM     34  F   UNL     1      -0.710  10.966  23.361  0.00  0.00    +0.000 F 
ATOM     35  F   UNL     1      -0.875   8.934  22.622  0.00  0.00    +0.000 F 
ENDBRANCH  32  33
ENDBRANCH  28  32
ENDBRANCH   1  26
TORSDOF 5
ENDMDL
MODEL 5
REMARK VINA RESULT:      -7.0      2.999      3.601
REMARK  Name = 
REMARK  5 active torsions:
REMARK  status: ('A' for Active; 'I' for Inactive)
REMARK    1  A    between atoms: N_1  and  C_2
REMARK    2  A    between atoms: C_5  and  C_6
REMARK    3  A    between atoms: C_8  and  N_9
REMARK    4  A    between atoms: C_29  and  O_30
REMARK    5  A    between atoms: O_30  and  C_31
REMARK                            x       y       z     vdW  Elec       q    Type
REMARK                         _______ _______ _______ _____ _____    ______ ____
ROOT
ATOM      1  C   UNL     1       0.580  10.396  20.163  0.00  0.00    +0.000 A 
ATOM      2  C   UNL     1      -0.482  10.679  20.993  0.00  0.00    +0.000 A 
ATOM      3  C   UNL     1      -0.987  11.956  20.995  0.00  0.00    +0.000 A 
ATOM      4  N   UNL     1      -0.429  12.906  20.228  0.00  0.00    +0.000 NA
ATOM      5  C   UNL     1       0.618  12.581  19.441  0.00  0.00    +0.000 A 
ATOM      6  N   UNL     1       1.184  13.566  18.662  0.00  0.00    +0.000 N 
ATOM      7  C   UNL     1       2.327  13.289  17.802  0.00  0.00    +0.000 C 
ATOM      8  C   UNL     1       3.373  14.323  18.204  0.00  0.00    +0.000 C 
ATOM      9  C   UNL     1       2.556  15.451  18.759  0.00  0.00    +0.000 C 
ATOM     10  C   UNL     1       1.215  14.923  19.197  0.00  0.00    +0.000 C 
ATOM     11  C   UNL     1       3.222  16.587  19.525  0.00  0.00    +0.000 C 
ATOM     12  C   UNL     1       2.670  16.810  18.167  0.00  0.00    +0.000 C 
ATOM     13  F   UNL     1       3.530  17.066  17.124  0.00  0.00    +0.000 F 
ATOM     14  F   UNL     1       1.571  17.617  18.002  0.00  0.00    +0.000 F 
ATOM     15  N   UNL     1       1.122  11.338  19.373  0.00  0.00    +0.000 NA
ENDROOT
BRANCH   3  16
ATOM     16  N   UNL     1      -2.098  12.240  21.736  0.00  0.00    +0.000 N 
ATOM     17  C   UNL     1      -2.313  11.849  23.137  0.00  0.00    +0.000 C 
ATOM     18  C   UNL     1      -3.575  12.687  23.474  0.00  0.00    +0.000 C 
ATOM     19  C   UNL     1      -4.316  12.688  22.146  0.00  0.00    +0.000 C 
ATOM     20  C   UNL     1      -3.104  13.254  21.406  0.00  0.00    +0.000 C 
ATOM     21  C   UNL     1      -2.849  14.505  22.264  0.00  0.00    +0.000 C 
ATOM     22  O   UNL     1      -3.175  14.076  23.625  0.00  0.00    +0.000 OA
ENDBRANCH   3  16
BRANCH   1  26
ATOM     23  C   UNL     1       2.316   6.514  20.040  0.00  0.00    +0.000 A 
ATOM     24  N   UNL     1       1.722   6.937  21.173  0.00  0.00    +0.000 NA
ATOM     25  C   UNL     1       1.142   8.167  21.167  0.00  0.00    +0.000 A 
ATOM     26  C   UNL     1       1.149   9.042  20.087  0.00  0.00    +0.000 A 
ATOM     27  C   UNL     1       1.765   8.557  18.927  0.00  0.00    +0.000 A 
ATOM     28  C   UNL     1       2.338   7.283  18.877  0.00  0.00    +0.000 A 
BRANCH  23  29
ATOM     29  N   UNL     1       2.894   5.247  20.138  0.00  0.00    +0.000 N 
ATOM     30  H   UNL     1       2.510   4.850  20.996  0.00  0.00    +0.000 HD
ATOM     31  H   UNL     1       2.583   4.680  19.351  0.00  0.00    +0.000 HD
ENDBRANCH  23  29
BRANCH  28  32
ATOM     32  O   UNL     1       2.891   6.995  17.664  0.00  0.00    +0.000 OA
BRANCH  32  33
ATOM     33  C   UNL     1       4.269   7.261  17.479  0.00  0.00    +0.000 C 
ATOM     34  F   UNL     1       5.023   6.328  18.118  0.00  0.00    +0.000 F 
ATOM     35  F   UNL     1       4.520   7.095  16.153  0.00  0.00    +0.000 F 
ENDBRANCH  32  33
ENDBRANCH  28  32
ENDBRANCH   1  26
TORSDOF 5
ENDMDL
MODEL 6
REMARK VINA RESULT:      -7.0      7.015      9.345
REMARK  Name = 
REMARK  5 active torsions:
REMARK  status: ('A' for Active; 'I' for Inactive)
REMARK    1  A    between atoms: N_1  and  C_2
REMARK    2  A    between atoms: C_5  and  C_6
REMARK    3  A    between atoms: C_8  and  N_9
REMARK    4  A    between atoms: C_29  and  O_30
REMARK    5  A    between atoms: O_30  and  C_31
REMARK                            x       y       z     vdW  Elec       q    Type
REMARK                         _______ _______ _______ _____ _____    ______ ____
ROOT
ATOM      1  C   UNL     1       7.356  14.968  19.702  0.00  0.00    +0.000 A 
ATOM      2  C   UNL     1       7.417  14.675  21.046  0.00  0.00    +0.000 A 
ATOM      3  C   UNL     1       6.238  14.528  21.736  0.00  0.00    +0.000 A 
ATOM      4  N   UNL     1       5.062  14.703  21.113  0.00  0.00    +0.000 NA
ATOM      5  C   UNL     1       5.057  15.002  19.798  0.00  0.00    +0.000 A 
ATOM      6  N   UNL     1       3.844  15.184  19.171  0.00  0.00    +0.000 N 
ATOM      7  C   UNL     1       3.764  15.525  17.756  0.00  0.00    +0.000 C 
ATOM      8  C   UNL     1       2.907  16.786  17.710  0.00  0.00    +0.000 C 
ATOM      9  C   UNL     1       2.073  16.688  18.952  0.00  0.00    +0.000 C 
ATOM     10  C   UNL     1       2.762  15.786  19.943  0.00  0.00    +0.000 C 
ATOM     11  C   UNL     1       1.260  17.882  19.436  0.00  0.00    +0.000 C 
ATOM     12  C   UNL     1       0.590  16.697  18.851  0.00  0.00    +0.000 C 
ATOM     13  F   UNL     1      -0.044  16.812  17.635  0.00  0.00    +0.000 F 
ATOM     14  F   UNL     1      -0.190  15.894  19.647  0.00  0.00    +0.000 F 
ATOM     15  N   UNL     1       6.180  15.117  19.070  0.00  0.00    +0.000 NA
ENDROOT
BRANCH   3  16
ATOM     16  N   UNL     1       6.268  14.144  23.046  0.00  0.00    +0.000 N 
ATOM     17  C   UNL     1       5.225  14.425  24.044  0.00  0.00    +0.000 C 
ATOM     18  C   UNL     1       5.692  13.510  25.207  0.00  0.00    +0.000 C 
ATOM     19  C   UNL     1       7.205  13.569  25.066  0.00  0.00    +0.000 C 
ATOM     20  C   UNL     1       7.144  13.111  23.609  0.00  0.00    +0.000 C 
ATOM     21  C   UNL     1       6.334  11.816  23.788  0.00  0.00    +0.000 C 
ATOM     22  O   UNL     1       5.385  12.133  24.857  0.00  0.00    +0.000 OA
ENDBRANCH   3  16
BRANCH   1  26
ATOM     23  C   UNL     1      10.815  15.395  17.262  0.00  0.00    +0.000 A 
ATOM     24  N   UNL     1      10.009  16.457  17.458  0.00  0.00    +0.000 NA
ATOM     25  C   UNL     1       8.933  16.298  18.275  0.00  0.00    +0.000 A 
ATOM     26  C   UNL     1       8.578  15.107  18.896  0.00  0.00    +0.000 A 
ATOM     27  C   UNL     1       9.451  14.033  18.676  0.00  0.00    +0.000 A 
ATOM     28  C   UNL     1      10.589  14.164  17.876  0.00  0.00    +0.000 A 
BRANCH  23  29
ATOM     29  N   UNL     1      11.886  15.644  16.402  0.00  0.00    +0.000 N 
ATOM     30  H   UNL     1      11.459  16.011  15.551  0.00  0.00    +0.000 HD
ATOM     31  H   UNL     1      12.474  16.370  16.809  0.00  0.00    +0.000 HD
ENDBRANCH  23  29
BRANCH  28  32
ATOM     32  O   UNL     1      11.308  13.009  17.781  0.00  0.00    +0.000 OA
BRANCH  32  33
ATOM     33  C   UNL     1      10.802  11.853  18.423  0.00  0.00    +0.000 C 
ATOM     34  F   UNL     1      10.338  10.964  17.507  0.00  0.00    +0.000 F 
ATOM     35  F   UNL     1      11.863  11.249  19.022  0.00  0.00    +0.000 F 
ENDBRANCH  32  33
ENDBRANCH  28  32
ENDBRANCH   1  26
TORSDOF 5
ENDMDL
MODEL 7
REMARK VINA RESULT:      -7.0      7.425      9.961
REMARK  Name = 
REMARK  5 active torsions:
REMARK  status: ('A' for Active; 'I' for Inactive)
REMARK    1  A    between atoms: N_1  and  C_2
REMARK    2  A    between atoms: C_5  and  C_6
REMARK    3  A    between atoms: C_8  and  N_9
REMARK    4  A    between atoms: C_29  and  O_30
REMARK    5  A    between atoms: O_30  and  C_31
REMARK                            x       y       z     vdW  Elec       q    Type
REMARK                         _______ _______ _______ _____ _____    ______ ____
ROOT
ATOM      1  C   UNL     1       7.875  14.313  19.535  0.00  0.00    +0.000 A 
ATOM      2  C   UNL     1       6.668  14.822  19.112  0.00  0.00    +0.000 A 
ATOM      3  C   UNL     1       5.681  15.023  20.046  0.00  0.00    +0.000 A 
ATOM      4  N   UNL     1       5.887  14.693  21.331  0.00  0.00    +0.000 NA
ATOM      5  C   UNL     1       7.084  14.185  21.692  0.00  0.00    +0.000 A 
ATOM      6  N   UNL     1       7.282  13.847  23.013  0.00  0.00    +0.000 N 
ATOM      7  C   UNL     1       8.542  13.277  23.470  0.00  0.00    +0.000 C 
ATOM      8  C   UNL     1       8.150  11.986  24.180  0.00  0.00    +0.000 C 
ATOM      9  C   UNL     1       6.739  12.244  24.621  0.00  0.00    +0.000 C 
ATOM     10  C   UNL     1       6.141  13.327  23.760  0.00  0.00    +0.000 C 
ATOM     11  C   UNL     1       5.869  11.107  25.140  0.00  0.00    +0.000 C 
ATOM     12  C   UNL     1       6.384  12.149  26.061  0.00  0.00    +0.000 C 
ATOM     13  F   UNL     1       7.322  11.808  27.008  0.00  0.00    +0.000 F 
ATOM     14  F   UNL     1       5.510  13.033  26.646  0.00  0.00    +0.000 F 
ATOM     15  N   UNL     1       8.094  14.008  20.825  0.00  0.00    +0.000 NA
ENDROOT
BRANCH   3  16
ATOM     16  N   UNL     1       4.510  15.616  19.671  0.00  0.00    +0.000 N 
ATOM     17  C   UNL     1       4.186  17.042  19.823  0.00  0.00    +0.000 C 
ATOM     18  C   UNL     1       2.889  17.130  18.975  0.00  0.00    +0.000 C 
ATOM     19  C   UNL     1       2.260  15.767  19.221  0.00  0.00    +0.000 C 
ATOM     20  C   UNL     1       3.520  15.038  18.757  0.00  0.00    +0.000 C 
ATOM     21  C   UNL     1       3.686  15.686  17.371  0.00  0.00    +0.000 C 
ATOM     22  O   UNL     1       3.256  17.070  17.570  0.00  0.00    +0.000 OA
ENDBRANCH   3  16
BRANCH   1  26
ATOM     23  C   UNL     1      11.160  13.652  16.913  0.00  0.00    +0.000 A 
ATOM     24  N   UNL     1      10.528  12.595  17.460  0.00  0.00    +0.000 NA
ATOM     25  C   UNL     1       9.457  12.839  18.262  0.00  0.00    +0.000 A 
ATOM     26  C   UNL     1       8.986  14.103  18.594  0.00  0.00    +0.000 A 
ATOM     27  C   UNL     1       9.664  15.171  17.993  0.00  0.00    +0.000 A 
ATOM     28  C   UNL     1      10.744  14.965  17.131  0.00  0.00    +0.000 A 
BRANCH  23  29
ATOM     29  N   UNL     1      12.253  13.311  16.114  0.00  0.00    +0.000 N 
ATOM     30  H   UNL     1      13.069  13.480  16.702  0.00  0.00    +0.000 HD
ATOM     31  H   UNL     1      12.207  12.316  15.900  0.00  0.00    +0.000 HD
ENDBRANCH  23  29
BRANCH  28  32
ATOM     32  O   UNL     1      11.272  16.127  16.651  0.00  0.00    +0.000 OA
BRANCH  32  33
ATOM     33  C   UNL     1      12.079  16.900  17.519  0.00  0.00    +0.000 C 
ATOM     34  F   UNL     1      11.386  17.972  17.984  0.00  0.00    +0.000 F 
ATOM     35  F   UNL     1      12.333  16.123  18.606  0.00  0.00    +0.000 F 
ENDBRANCH  32  33
ENDBRANCH  28  32
ENDBRANCH   1  26
TORSDOF 5
ENDMDL
MODEL 8
REMARK VINA RESULT:      -6.9      2.753      5.513
REMARK  Name = 
REMARK  5 active torsions:
REMARK  status: ('A' for Active; 'I' for Inactive)
REMARK    1  A    between atoms: N_1  and  C_2
REMARK    2  A    between atoms: C_5  and  C_6
REMARK    3  A    between atoms: C_8  and  N_9
REMARK    4  A    between atoms: C_29  and  O_30
REMARK    5  A    between atoms: O_30  and  C_31
REMARK                            x       y       z     vdW  Elec       q    Type
REMARK                         _______ _______ _______ _____ _____    ______ ____
ROOT
ATOM      1  C   UNL     1       1.479   9.729  18.653  0.00  0.00    +0.000 A 
ATOM      2  C   UNL     1       2.134  10.940  18.698  0.00  0.00    +0.000 A 
ATOM      3  C   UNL     1       1.383  12.086  18.791  0.00  0.00    +0.000 A 
ATOM      4  N   UNL     1       0.042  12.017  18.802  0.00  0.00    +0.000 NA
ATOM      5  C   UNL     1      -0.552  10.807  18.743  0.00  0.00    +0.000 A 
ATOM      6  N   UNL     1      -1.928  10.750  18.751  0.00  0.00    +0.000 N 
ATOM      7  C   UNL     1      -2.636   9.479  18.673  0.00  0.00    +0.000 C 
ATOM      8  C   UNL     1      -3.592   9.639  17.496  0.00  0.00    +0.000 C 
ATOM      9  C   UNL     1      -3.810  11.121  17.421  0.00  0.00    +0.000 C 
ATOM     10  C   UNL     1      -2.657  11.826  18.088  0.00  0.00    +0.000 C 
ATOM     11  C   UNL     1      -4.495  11.744  16.212  0.00  0.00    +0.000 C 
ATOM     12  C   UNL     1      -5.186  11.674  17.522  0.00  0.00    +0.000 C 
ATOM     13  F   UNL     1      -6.279  10.850  17.664  0.00  0.00    +0.000 F 
ATOM     14  F   UNL     1      -5.449  12.829  18.216  0.00  0.00    +0.000 F 
ATOM     15  N   UNL     1       0.139   9.656  18.692  0.00  0.00    +0.000 NA
ENDROOT
BRANCH   3  16
ATOM     16  N   UNL     1       2.007  13.291  18.933  0.00  0.00    +0.000 N 
ATOM     17  C   UNL     1       2.897  13.915  17.942  0.00  0.00    +0.000 C 
ATOM     18  C   UNL     1       3.038  15.338  18.544  0.00  0.00    +0.000 C 
ATOM     19  C   UNL     1       2.985  15.055  20.038  0.00  0.00    +0.000 C 
ATOM     20  C   UNL     1       1.650  14.324  19.910  0.00  0.00    +0.000 C 
ATOM     21  C   UNL     1       0.834  15.418  19.200  0.00  0.00    +0.000 C 
ATOM     22  O   UNL     1       1.798  16.060  18.306  0.00  0.00    +0.000 OA
ENDBRANCH   3  16
BRANCH   1  26
ATOM     23  C   UNL     1       3.566   6.035  18.343  0.00  0.00    +0.000 A 
ATOM     24  N   UNL     1       3.749   6.978  17.399  0.00  0.00    +0.000 NA
ATOM     25  C   UNL     1       3.098   8.163  17.548  0.00  0.00    +0.000 A 
ATOM     26  C   UNL     1       2.224   8.463  18.586  0.00  0.00    +0.000 A 
ATOM     27  C   UNL     1       2.073   7.458  19.551  0.00  0.00    +0.000 A 
ATOM     28  C   UNL     1       2.754   6.242  19.458  0.00  0.00    +0.000 A 
BRANCH  23  29
ATOM     29  N   UNL     1       4.262   4.848  18.105  0.00  0.00    +0.000 N 
ATOM     30  H   UNL     1       3.908   4.193  18.803  0.00  0.00    +0.000 HD
ATOM     31  H   UNL     1       4.016   4.501  17.179  0.00  0.00    +0.000 HD
ENDBRANCH  23  29
BRANCH  28  32
ATOM     32  O   UNL     1       2.474   5.395  20.489  0.00  0.00    +0.000 OA
BRANCH  32  33
ATOM     33  C   UNL     1       1.239   4.704  20.469  0.00  0.00    +0.000 C 
ATOM     34  F   UNL     1       1.025   4.148  19.247  0.00  0.00    +0.000 F 
ATOM     35  F   UNL     1       1.364   3.662  21.333  0.00  0.00    +0.000 F 
ENDBRANCH  32  33
ENDBRANCH  28  32
ENDBRANCH   1  26
TORSDOF 5
ENDMDL
MODEL 9
REMARK VINA RESULT:      -6.8      0.904      1.241
REMARK  Name = 
REMARK  5 active torsions:
REMARK  status: ('A' for Active; 'I' for Inactive)
REMARK    1  A    between atoms: N_1  and  C_2
REMARK    2  A    between atoms: C_5  and  C_6
REMARK    3  A    between atoms: C_8  and  N_9
REMARK    4  A    between atoms: C_29  and  O_30
REMARK    5  A    between atoms: O_30  and  C_31
REMARK                            x       y       z     vdW  Elec       q    Type
REMARK                         _______ _______ _______ _____ _____    ______ ____
ROOT
ATOM      1  C   UNL     1       0.978   9.826  18.598  0.00  0.00    +0.000 A 
ATOM      2  C   UNL     1      -0.350   9.714  18.252  0.00  0.00    +0.000 A 
ATOM      3  C   UNL     1      -1.118  10.853  18.234  0.00  0.00    +0.000 A 
ATOM      4  N   UNL     1      -0.584  12.035  18.582  0.00  0.00    +0.000 NA
ATOM      5  C   UNL     1       0.719  12.088  18.925  0.00  0.00    +0.000 A 
ATOM      6  N   UNL     1       1.254  13.306  19.284  0.00  0.00    +0.000 N 
ATOM      7  C   UNL     1       2.650  13.435  19.682  0.00  0.00    +0.000 C 
ATOM      8  C   UNL     1       2.602  14.120  21.044  0.00  0.00    +0.000 C 
ATOM      9  C   UNL     1       1.307  14.875  21.011  0.00  0.00    +0.000 C 
ATOM     10  C   UNL     1       0.392  14.246  19.993  0.00  0.00    +0.000 C 
ATOM     11  C   UNL     1       0.736  15.490  22.282  0.00  0.00    +0.000 C 
ATOM     12  C   UNL     1       1.303  16.348  21.214  0.00  0.00    +0.000 C 
ATOM     13  F   UNL     1       2.467  17.041  21.454  0.00  0.00    +0.000 F 
ATOM     14  F   UNL     1       0.475  17.171  20.491  0.00  0.00    +0.000 F 
ATOM     15  N   UNL     1       1.521  11.011  18.919  0.00  0.00    +0.000 NA
ENDROOT
BRANCH   3  16
ATOM     16  N   UNL     1      -2.412  10.787  17.804  0.00  0.00    +0.000 N 
ATOM     17  C   UNL     1      -3.221   9.562  17.713  0.00  0.00    +0.000 C 
ATOM     18  C   UNL     1      -4.625  10.169  17.450  0.00  0.00    +0.000 C 
ATOM     19  C   UNL     1      -4.286  11.397  16.619  0.00  0.00    +0.000 C 
ATOM     20  C   UNL     1      -3.328  11.925  17.687  0.00  0.00    +0.000 C 
ATOM     21  C   UNL     1      -4.279  11.924  18.897  0.00  0.00    +0.000 C 
ATOM     22  O   UNL     1      -5.115  10.741  18.693  0.00  0.00    +0.000 OA
ENDBRANCH   3  16
BRANCH   1  26
ATOM     23  C   UNL     1       3.488   6.392  18.502  0.00  0.00    +0.000 A 
ATOM     24  N   UNL     1       3.628   7.340  17.555  0.00  0.00    +0.000 NA
ATOM     25  C   UNL     1       2.838   8.444  17.637  0.00  0.00    +0.000 A 
ATOM     26  C   UNL     1       1.864   8.652  18.606  0.00  0.00    +0.000 A 
ATOM     27  C   UNL     1       1.761   7.647  19.576  0.00  0.00    +0.000 A 
ATOM     28  C   UNL     1       2.581   6.516  19.554  0.00  0.00    +0.000 A 
BRANCH  23  29
ATOM     29  N   UNL     1       4.329   5.290  18.334  0.00  0.00    +0.000 N 
ATOM     30  H   UNL     1       3.895   4.740  17.593  0.00  0.00    +0.000 HD
ATOM     31  H   UNL     1       5.238   5.616  18.007  0.00  0.00    +0.000 HD
ENDBRANCH  23  29
BRANCH  28  32
ATOM     32  O   UNL     1       2.327   5.653  20.579  0.00  0.00    +0.000 OA
BRANCH  32  33
ATOM     33  C   UNL     1       1.211   4.790  20.463  0.00  0.00    +0.000 C 
ATOM     34  F   UNL     1       1.187   4.207  19.236  0.00  0.00    +0.000 F 
ATOM     35  F   UNL     1       1.412   3.778  21.349  0.00  0.00    +0.000 F 
ENDBRANCH  32  33
ENDBRANCH  28  32
ENDBRANCH   1  26
TORSDOF 5
ENDMDL
