MODEL 1
REMARK VINA RESULT:      -7.6      0.000      0.000
REMARK  Name = 
REMARK  9 active torsions:
REMARK  status: ('A' for Active; 'I' for Inactive)
REMARK    1  A    between atoms: C_1  and  C_2
REMARK    2  A    between atoms: C_2  and  C_3
REMARK    3  A    between atoms: C_3  and  C_4
REMARK    4  A    between atoms: C_4  and  C_5
REMARK    5  A    between atoms: N_18  and  C_19
REMARK    6  A    between atoms: C_19  and  C_20
REMARK    7  A    between atoms: C_20  and  C_21
REMARK    8  A    between atoms: C_20  and  C_22
REMARK    9  A    between atoms: C_20  and  O_23
REMARK                            x       y       z     vdW  Elec       q    Type
REMARK                         _______ _______ _______ _____ _____    ______ ____
ROOT
ATOM      1  C   UNL     1       5.157   4.007  16.314  0.00  0.00    +0.000 A 
ATOM      2  N   UNL     1       4.447   2.986  16.774  0.00  0.00    +0.000 NA
ATOM      3  C   UNL     1       3.618   3.490  17.742  0.00  0.00    +0.000 A 
ATOM      4  C   UNL     1       2.669   2.787  18.496  0.00  0.00    +0.000 A 
ATOM      5  N   UNL     1       2.450   1.424  18.327  0.00  0.00    +0.000 N 
ATOM      6  N   UNL     1       1.941   3.438  19.429  0.00  0.00    +0.000 NA
ATOM      7  C   UNL     1       2.097   4.758  19.589  0.00  0.00    +0.000 A 
ATOM      8  C   UNL     1       1.256   5.363  20.535  0.00  0.00    +0.000 A 
ATOM      9  C   UNL     1       1.299   6.735  20.784  0.00  0.00    +0.000 A 
ATOM     10  C   UNL     1       2.193   7.537  20.095  0.00  0.00    +0.000 A 
ATOM     11  C   UNL     1       3.047   6.966  19.156  0.00  0.00    +0.000 A 
ATOM     12  C   UNL     1       3.007   5.565  18.880  0.00  0.00    +0.000 A 
ATOM     13  C   UNL     1       3.818   4.854  17.923  0.00  0.00    +0.000 A 
ATOM     14  N   UNL     1       4.856   5.159  17.048  0.00  0.00    +0.000 N 
ATOM     15  H   UNL     1       3.244   0.967  17.887  0.00  0.00    +0.000 HD
ATOM     16  H   UNL     1       2.045   1.002  19.148  0.00  0.00    +0.000 HD
ENDROOT
BRANCH   1  17
ATOM     17  C   UNL     1       6.166   3.729  15.224  0.00  0.00    +0.000 C 
BRANCH  17  18
ATOM     18  C   UNL     1       5.853   4.379  13.860  0.00  0.00    +0.000 C 
BRANCH  18  20
ATOM     19  C   UNL     1       4.814   3.316  11.790  0.00  0.00    +0.000 C 
ATOM     20  C   UNL     1       6.026   3.384  12.703  0.00  0.00    +0.000 C 
ENDBRANCH  18  20
ENDBRANCH  17  18
ENDBRANCH   1  17
BRANCH  14  21
ATOM     21  C   UNL     1       5.384   6.503  16.901  0.00  0.00    +0.000 C 
BRANCH  21  22
ATOM     22  C   UNL     1       6.871   6.783  17.232  0.00  0.00    +0.000 C 
ATOM     23  C   UNL     1       7.064   8.281  17.525  0.00  0.00    +0.000 C 
ATOM     24  C   UNL     1       7.290   5.817  18.376  0.00  0.00    +0.000 C 
BRANCH  22  25
ATOM     25  O   UNL     1       7.726   6.398  16.160  0.00  0.00    +0.000 OA
ATOM     26  H   UNL     1       8.633   6.744  16.311  0.00  0.00    +0.000 HD
ENDBRANCH  22  25
ENDBRANCH  21  22
ENDBRANCH  14  21
TORSDOF 6
ENDMDL
MODEL 2
REMARK VINA RESULT:      -7.1      2.252      6.451
REMARK  Name = 
REMARK  9 active torsions:
REMARK  status: ('A' for Active; 'I' for Inactive)
REMARK    1  A    between atoms: C_1  and  C_2
REMARK    2  A    between atoms: C_2  and  C_3
REMARK    3  A    between atoms: C_3  and  C_4
REMARK    4  A    between atoms: C_4  and  C_5
REMARK    5  A    between atoms: N_18  and  C_19
REMARK    6  A    between atoms: C_19  and  C_20
REMARK    7  A    between atoms: C_20  and  C_21
REMARK    8  A    between atoms: C_20  and  C_22
REMARK    9  A    between atoms: C_20  and  O_23
REMARK                            x       y       z     vdW  Elec       q    Type
REMARK                         _______ _______ _______ _____ _____    ______ ____
ROOT
ATOM      1  C   UNL     1       3.973   5.007  19.480  0.00  0.00    +0.000 A 
ATOM      2  N   UNL     1       5.191   5.495  19.673  0.00  0.00    +0.000 NA
ATOM      3  C   UNL     1       5.854   5.374  18.479  0.00  0.00    +0.000 A 
ATOM      4  C   UNL     1       7.167   5.776  18.194  0.00  0.00    +0.000 A 
ATOM      5  N   UNL     1       7.980   6.381  19.145  0.00  0.00    +0.000 N 
ATOM      6  N   UNL     1       7.676   5.566  16.960  0.00  0.00    +0.000 NA
ATOM      7  C   UNL     1       6.907   5.023  16.008  0.00  0.00    +0.000 A 
ATOM      8  C   UNL     1       7.497   4.900  14.742  0.00  0.00    +0.000 A 
ATOM      9  C   UNL     1       6.798   4.372  13.656  0.00  0.00    +0.000 A 
ATOM     10  C   UNL     1       5.490   3.946  13.814  0.00  0.00    +0.000 A 
ATOM     11  C   UNL     1       4.879   4.047  15.060  0.00  0.00    +0.000 A 
ATOM     12  C   UNL     1       5.576   4.596  16.179  0.00  0.00    +0.000 A 
ATOM     13  C   UNL     1       5.055   4.775  17.512  0.00  0.00    +0.000 A 
ATOM     14  N   UNL     1       3.874   4.482  18.187  0.00  0.00    +0.000 N 
ATOM     15  H   UNL     1       7.663   6.185  20.091  0.00  0.00    +0.000 HD
ATOM     16  H   UNL     1       8.958   6.269  18.931  0.00  0.00    +0.000 HD
ENDROOT
BRANCH   1  17
ATOM     17  C   UNL     1       3.018   5.015  20.651  0.00  0.00    +0.000 C 
BRANCH  17  18
ATOM     18  C   UNL     1       1.749   5.870  20.455  0.00  0.00    +0.000 C 
BRANCH  18  20
ATOM     19  C   UNL     1       2.152   7.703  18.730  0.00  0.00    +0.000 C 
ATOM     20  C   UNL     1       2.091   7.346  20.206  0.00  0.00    +0.000 C 
ENDBRANCH  18  20
ENDBRANCH  17  18
ENDBRANCH   1  17
BRANCH  14  21
ATOM     21  C   UNL     1       2.739   3.853  17.538  0.00  0.00    +0.000 C 
BRANCH  21  22
ATOM     22  C   UNL     1       2.290   2.438  17.982  0.00  0.00    +0.000 C 
ATOM     23  C   UNL     1       3.453   1.724  18.694  0.00  0.00    +0.000 C 
ATOM     24  C   UNL     1       0.989   2.596  18.818  0.00  0.00    +0.000 C 
BRANCH  22  25
ATOM     25  O   UNL     1       1.864   1.654  16.872  0.00  0.00    +0.000 OA
ATOM     26  H   UNL     1       0.961   1.301  17.036  0.00  0.00    +0.000 HD
ENDBRANCH  22  25
ENDBRANCH  21  22
ENDBRANCH  14  21
TORSDOF 6
ENDMDL
MODEL 3
REMARK VINA RESULT:      -6.9      2.214      6.533
REMARK  Name = 
REMARK  9 active torsions:
REMARK  status: ('A' for Active; 'I' for Inactive)
REMARK    1  A    between atoms: C_1  and  C_2
REMARK    2  A    between atoms: C_2  and  C_3
REMARK    3  A    between atoms: C_3  and  C_4
REMARK    4  A    between atoms: C_4  and  C_5
REMARK    5  A    between atoms: N_18  and  C_19
REMARK    6  A    between atoms: C_19  and  C_20
REMARK    7  A    between atoms: C_20  and  C_21
REMARK    8  A    between atoms: C_20  and  C_22
REMARK    9  A    between atoms: C_20  and  O_23
REMARK                            x       y       z     vdW  Elec       q    Type
REMARK                         _______ _______ _______ _____ _____    ______ ____
ROOT
ATOM      1  C   UNL     1       4.023   5.721  18.674  0.00  0.00    +0.000 A 
ATOM      2  N   UNL     1       5.176   6.374  18.686  0.00  0.00    +0.000 NA
ATOM      3  C   UNL     1       5.820   6.053  17.520  0.00  0.00    +0.000 A 
ATOM      4  C   UNL     1       7.067   6.521  17.082  0.00  0.00    +0.000 A 
ATOM      5  N   UNL     1       7.824   7.419  17.825  0.00  0.00    +0.000 N 
ATOM      6  N   UNL     1       7.568   6.086  15.905  0.00  0.00    +0.000 NA
ATOM      7  C   UNL     1       6.848   5.253  15.145  0.00  0.00    +0.000 A 
ATOM      8  C   UNL     1       7.417   4.903  13.912  0.00  0.00    +0.000 A 
ATOM      9  C   UNL     1       6.762   4.060  13.014  0.00  0.00    +0.000 A 
ATOM     10  C   UNL     1       5.520   3.539  13.333  0.00  0.00    +0.000 A 
ATOM     11  C   UNL     1       4.931   3.859  14.552  0.00  0.00    +0.000 A 
ATOM     12  C   UNL     1       5.583   4.731  15.477  0.00  0.00    +0.000 A 
ATOM     13  C   UNL     1       5.077   5.157  16.759  0.00  0.00    +0.000 A 
ATOM     14  N   UNL     1       3.957   4.901  17.544  0.00  0.00    +0.000 N 
ATOM     15  H   UNL     1       7.556   7.417  18.806  0.00  0.00    +0.000 HD
ATOM     16  H   UNL     1       8.803   7.372  17.593  0.00  0.00    +0.000 HD
ENDROOT
BRANCH   1  17
ATOM     17  C   UNL     1       3.102   5.896  19.860  0.00  0.00    +0.000 C 
BRANCH  17  18
ATOM     18  C   UNL     1       2.191   7.140  19.804  0.00  0.00    +0.000 C 
BRANCH  18  20
ATOM     19  C   UNL     1       1.600   9.176  18.389  0.00  0.00    +0.000 C 
ATOM     20  C   UNL     1       2.178   7.771  18.404  0.00  0.00    +0.000 C 
ENDBRANCH  18  20
ENDBRANCH  17  18
ENDBRANCH   1  17
BRANCH  14  21
ATOM     21  C   UNL     1       2.891   4.013  17.117  0.00  0.00    +0.000 C 
BRANCH  21  22
ATOM     22  C   UNL     1       2.531   2.778  17.980  0.00  0.00    +0.000 C 
ATOM     23  C   UNL     1       3.748   2.362  18.824  0.00  0.00    +0.000 C 
ATOM     24  C   UNL     1       1.244   3.121  18.782  0.00  0.00    +0.000 C 
BRANCH  22  25
ATOM     25  O   UNL     1       2.120   1.679  17.172  0.00  0.00    +0.000 OA
ATOM     26  H   UNL     1       1.631   2.005  16.384  0.00  0.00    +0.000 HD
ENDBRANCH  22  25
ENDBRANCH  21  22
ENDBRANCH  14  21
TORSDOF 6
ENDMDL
MODEL 4
REMARK VINA RESULT:      -6.5      2.195      6.640
REMARK  Name = 
REMARK  9 active torsions:
REMARK  status: ('A' for Active; 'I' for Inactive)
REMARK    1  A    between atoms: C_1  and  C_2
REMARK    2  A    between atoms: C_2  and  C_3
REMARK    3  A    between atoms: C_3  and  C_4
REMARK    4  A    between atoms: C_4  and  C_5
REMARK    5  A    between atoms: N_18  and  C_19
REMARK    6  A    between atoms: C_19  and  C_20
REMARK    7  A    between atoms: C_20  and  C_21
REMARK    8  A    between atoms: C_20  and  C_22
REMARK    9  A    between atoms: C_20  and  O_23
REMARK                            x       y       z     vdW  Elec       q    Type
REMARK                         _______ _______ _______ _____ _____    ______ ____
ROOT
ATOM      1  C   UNL     1       4.407   5.057  19.063  0.00  0.00    +0.000 A 
ATOM      2  N   UNL     1       5.410   5.923  19.019  0.00  0.00    +0.000 NA
ATOM      3  C   UNL     1       5.994   5.783  17.788  0.00  0.00    +0.000 A 
ATOM      4  C   UNL     1       7.083   6.506  17.278  0.00  0.00    +0.000 A 
ATOM      5  N   UNL     1       7.717   7.504  18.009  0.00  0.00    +0.000 N 
ATOM      6  N   UNL     1       7.548   6.227  16.041  0.00  0.00    +0.000 NA
ATOM      7  C   UNL     1       6.935   5.301  15.294  0.00  0.00    +0.000 A 
ATOM      8  C   UNL     1       7.447   5.122  14.000  0.00  0.00    +0.000 A 
ATOM      9  C   UNL     1       6.887   4.205  13.111  0.00  0.00    +0.000 A 
ATOM     10  C   UNL     1       5.802   3.436  13.499  0.00  0.00    +0.000 A 
ATOM     11  C   UNL     1       5.276   3.584  14.779  0.00  0.00    +0.000 A 
ATOM     12  C   UNL     1       5.830   4.527  15.697  0.00  0.00    +0.000 A 
ATOM     13  C   UNL     1       5.371   4.792  17.039  0.00  0.00    +0.000 A 
ATOM     14  N   UNL     1       4.398   4.287  17.895  0.00  0.00    +0.000 N 
ATOM     15  H   UNL     1       7.546   7.407  19.006  0.00  0.00    +0.000 HD
ATOM     16  H   UNL     1       8.662   7.659  17.695  0.00  0.00    +0.000 HD
ENDROOT
BRANCH   1  17
ATOM     17  C   UNL     1       3.582   4.998  20.328  0.00  0.00    +0.000 C 
BRANCH  17  18
ATOM     18  C   UNL     1       2.115   5.448  20.174  0.00  0.00    +0.000 C 
BRANCH  18  20
ATOM     19  C   UNL     1       1.649   3.370  21.574  0.00  0.00    +0.000 C 
ATOM     20  C   UNL     1       1.135   4.311  20.499  0.00  0.00    +0.000 C 
ENDBRANCH  18  20
ENDBRANCH  17  18
ENDBRANCH   1  17
BRANCH  14  21
ATOM     21  C   UNL     1       3.488   3.225  17.505  0.00  0.00    +0.000 C 
BRANCH  21  22
ATOM     22  C   UNL     1       3.471   1.899  18.305  0.00  0.00    +0.000 C 
ATOM     23  C   UNL     1       4.329   2.046  19.573  0.00  0.00    +0.000 C 
ATOM     24  C   UNL     1       1.985   1.510  18.543  0.00  0.00    +0.000 C 
BRANCH  22  25
ATOM     25  O   UNL     1       3.963   0.813  17.525  0.00  0.00    +0.000 OA
ATOM     26  H   UNL     1       4.201   1.126  16.624  0.00  0.00    +0.000 HD
ENDBRANCH  22  25
ENDBRANCH  21  22
ENDBRANCH  14  21
TORSDOF 6
ENDMDL
MODEL 5
REMARK VINA RESULT:      -6.2      1.948      4.695
REMARK  Name = 
REMARK  9 active torsions:
REMARK  status: ('A' for Active; 'I' for Inactive)
REMARK    1  A    between atoms: C_1  and  C_2
REMARK    2  A    between atoms: C_2  and  C_3
REMARK    3  A    between atoms: C_3  and  C_4
REMARK    4  A    between atoms: C_4  and  C_5
REMARK    5  A    between atoms: N_18  and  C_19
REMARK    6  A    between atoms: C_19  and  C_20
REMARK    7  A    between atoms: C_20  and  C_21
REMARK    8  A    between atoms: C_20  and  C_22
REMARK    9  A    between atoms: C_20  and  O_23
REMARK                            x       y       z     vdW  Elec       q    Type
REMARK                         _______ _______ _______ _____ _____    ______ ____
ROOT
ATOM      1  C   UNL     1       5.670   6.780  17.404  0.00  0.00    +0.000 A 
ATOM      2  N   UNL     1       4.684   7.373  18.062  0.00  0.00    +0.000 NA
ATOM      3  C   UNL     1       3.786   6.392  18.389  0.00  0.00    +0.000 A 
ATOM      4  C   UNL     1       2.591   6.540  19.108  0.00  0.00    +0.000 A 
ATOM      5  N   UNL     1       2.170   7.770  19.600  0.00  0.00    +0.000 N 
ATOM      6  N   UNL     1       1.807   5.463  19.329  0.00  0.00    +0.000 NA
ATOM      7  C   UNL     1       2.201   4.256  18.904  0.00  0.00    +0.000 A 
ATOM      8  C   UNL     1       1.356   3.186  19.232  0.00  0.00    +0.000 A 
ATOM      9  C   UNL     1       1.661   1.873  18.870  0.00  0.00    +0.000 A 
ATOM     10  C   UNL     1       2.819   1.601  18.161  0.00  0.00    +0.000 A 
ATOM     11  C   UNL     1       3.675   2.642  17.813  0.00  0.00    +0.000 A 
ATOM     12  C   UNL     1       3.383   3.989  18.187  0.00  0.00    +0.000 A 
ATOM     13  C   UNL     1       4.190   5.152  17.908  0.00  0.00    +0.000 A 
ATOM     14  N   UNL     1       5.367   5.428  17.219  0.00  0.00    +0.000 N 
ATOM     15  H   UNL     1       2.610   8.543  19.109  0.00  0.00    +0.000 HD
ATOM     16  H   UNL     1       1.174   7.797  19.748  0.00  0.00    +0.000 HD
ENDROOT
BRANCH   1  17
ATOM     17  C   UNL     1       6.812   7.644  16.918  0.00  0.00    +0.000 C 
BRANCH  17  18
ATOM     18  C   UNL     1       7.898   7.946  17.970  0.00  0.00    +0.000 C 
BRANCH  18  20
ATOM     19  C   UNL     1       9.132   9.840  19.148  0.00  0.00    +0.000 C 
ATOM     20  C   UNL     1       8.345   9.415  17.920  0.00  0.00    +0.000 C 
ENDBRANCH  18  20
ENDBRANCH  17  18
ENDBRANCH   1  17
BRANCH  14  21
ATOM     21  C   UNL     1       6.147   4.396  16.560  0.00  0.00    +0.000 C 
BRANCH  21  22
ATOM     22  C   UNL     1       6.214   4.358  15.013  0.00  0.00    +0.000 C 
ATOM     23  C   UNL     1       4.972   5.047  14.422  0.00  0.00    +0.000 C 
ATOM     24  C   UNL     1       7.583   4.959  14.585  0.00  0.00    +0.000 C 
BRANCH  22  25
ATOM     25  O   UNL     1       6.288   3.020  14.527  0.00  0.00    +0.000 OA
ATOM     26  H   UNL     1       5.387   2.689  14.315  0.00  0.00    +0.000 HD
ENDBRANCH  22  25
ENDBRANCH  21  22
ENDBRANCH  14  21
TORSDOF 6
ENDMDL
MODEL 6
REMARK VINA RESULT:      -6.2      6.773      9.157
REMARK  Name = 
REMARK  9 active torsions:
REMARK  status: ('A' for Active; 'I' for Inactive)
REMARK    1  A    between atoms: C_1  and  C_2
REMARK    2  A    between atoms: C_2  and  C_3
REMARK    3  A    between atoms: C_3  and  C_4
REMARK    4  A    between atoms: C_4  and  C_5
REMARK    5  A    between atoms: N_18  and  C_19
REMARK    6  A    between atoms: C_19  and  C_20
REMARK    7  A    between atoms: C_20  and  C_21
REMARK    8  A    between atoms: C_20  and  C_22
REMARK    9  A    between atoms: C_20  and  O_23
REMARK                            x       y       z     vdW  Elec       q    Type
REMARK                         _______ _______ _______ _____ _____    ______ ____
ROOT
ATOM      1  C   UNL     1      -0.040  10.128  18.923  0.00  0.00    +0.000 A 
ATOM      2  N   UNL     1       0.348   9.753  20.133  0.00  0.00    +0.000 NA
ATOM      3  C   UNL     1      -0.398  10.478  21.026  0.00  0.00    +0.000 A 
ATOM      4  C   UNL     1      -0.352  10.406  22.425  0.00  0.00    +0.000 A 
ATOM      5  N   UNL     1       0.500   9.536  23.095  0.00  0.00    +0.000 N 
ATOM      6  N   UNL     1      -1.149  11.211  23.162  0.00  0.00    +0.000 NA
ATOM      7  C   UNL     1      -2.011  12.032  22.549  0.00  0.00    +0.000 A 
ATOM      8  C   UNL     1      -2.843  12.784  23.391  0.00  0.00    +0.000 A 
ATOM      9  C   UNL     1      -3.801  13.661  22.883  0.00  0.00    +0.000 A 
ATOM     10  C   UNL     1      -3.944  13.813  21.514  0.00  0.00    +0.000 A 
ATOM     11  C   UNL     1      -3.129  13.087  20.651  0.00  0.00    +0.000 A 
ATOM     12  C   UNL     1      -2.151  12.176  21.155  0.00  0.00    +0.000 A 
ATOM     13  C   UNL     1      -1.260  11.353  20.375  0.00  0.00    +0.000 A 
ATOM     14  N   UNL     1      -0.971  11.166  19.027  0.00  0.00    +0.000 N 
ATOM     15  H   UNL     1       1.277   9.243  22.509  0.00  0.00    +0.000 HD
ATOM     16  H   UNL     1       0.695   9.846  24.034  0.00  0.00    +0.000 HD
ENDROOT
BRANCH   1  17
ATOM     17  C   UNL     1       0.631   9.478  17.735  0.00  0.00    +0.000 C 
BRANCH  17  18
ATOM     18  C   UNL     1       2.125   9.146  17.928  0.00  0.00    +0.000 C 
BRANCH  18  20
ATOM     19  C   UNL     1       3.737   7.202  17.580  0.00  0.00    +0.000 C 
ATOM     20  C   UNL     1       2.359   7.634  18.055  0.00  0.00    +0.000 C 
ENDBRANCH  18  20
ENDBRANCH  17  18
ENDBRANCH   1  17
BRANCH  14  21
ATOM     21  C   UNL     1      -1.665  11.884  17.973  0.00  0.00    +0.000 C 
BRANCH  21  22
ATOM     22  C   UNL     1      -2.881  11.229  17.272  0.00  0.00    +0.000 C 
ATOM     23  C   UNL     1      -2.523  10.900  15.812  0.00  0.00    +0.000 C 
ATOM     24  C   UNL     1      -3.333  10.021  18.140  0.00  0.00    +0.000 C 
BRANCH  22  25
ATOM     25  O   UNL     1      -4.021  12.083  17.298  0.00  0.00    +0.000 OA
ATOM     26  H   UNL     1      -3.747  13.004  17.506  0.00  0.00    +0.000 HD
ENDBRANCH  22  25
ENDBRANCH  21  22
ENDBRANCH  14  21
TORSDOF 6
ENDMDL
MODEL 7
REMARK VINA RESULT:      -6.2      6.460     10.147
REMARK  Name = 
REMARK  9 active torsions:
REMARK  status: ('A' for Active; 'I' for Inactive)
REMARK    1  A    between atoms: C_1  and  C_2
REMARK    2  A    between atoms: C_2  and  C_3
REMARK    3  A    between atoms: C_3  and  C_4
REMARK    4  A    between atoms: C_4  and  C_5
REMARK    5  A    between atoms: N_18  and  C_19
REMARK    6  A    between atoms: C_19  and  C_20
REMARK    7  A    between atoms: C_20  and  C_21
REMARK    8  A    between atoms: C_20  and  C_22
REMARK    9  A    between atoms: C_20  and  O_23
REMARK                            x       y       z     vdW  Elec       q    Type
REMARK                         _______ _______ _______ _____ _____    ______ ____
ROOT
ATOM      1  C   UNL     1      -1.656  12.055  20.888  0.00  0.00    +0.000 A 
ATOM      2  N   UNL     1      -1.304  11.375  21.971  0.00  0.00    +0.000 NA
ATOM      3  C   UNL     1      -0.435  10.400  21.555  0.00  0.00    +0.000 A 
ATOM      4  C   UNL     1       0.216   9.449  22.353  0.00  0.00    +0.000 A 
ATOM      5  N   UNL     1       0.045   9.395  23.731  0.00  0.00    +0.000 N 
ATOM      6  N   UNL     1       1.034   8.541  21.775  0.00  0.00    +0.000 NA
ATOM      7  C   UNL     1       1.253   8.590  20.456  0.00  0.00    +0.000 A 
ATOM      8  C   UNL     1       2.163   7.650  19.952  0.00  0.00    +0.000 A 
ATOM      9  C   UNL     1       2.499   7.606  18.599  0.00  0.00    +0.000 A 
ATOM     10  C   UNL     1       1.924   8.501  17.712  0.00  0.00    +0.000 A 
ATOM     11  C   UNL     1       1.010   9.441  18.179  0.00  0.00    +0.000 A 
ATOM     12  C   UNL     1       0.665   9.507  19.563  0.00  0.00    +0.000 A 
ATOM     13  C   UNL     1      -0.247  10.440  20.178  0.00  0.00    +0.000 A 
ATOM     14  N   UNL     1      -1.090  11.463  19.755  0.00  0.00    +0.000 N 
ATOM     15  H   UNL     1      -0.813   9.854  24.023  0.00  0.00    +0.000 HD
ATOM     16  H   UNL     1       0.253   8.481  24.102  0.00  0.00    +0.000 HD
ENDROOT
BRANCH   1  17
ATOM     17  C   UNL     1      -2.624  13.203  21.062  0.00  0.00    +0.000 C 
BRANCH  17  18
ATOM     18  C   UNL     1      -3.953  12.840  21.755  0.00  0.00    +0.000 C 
BRANCH  18  20
ATOM     19  C   UNL     1      -6.396  13.544  21.574  0.00  0.00    +0.000 C 
ATOM     20  C   UNL     1      -4.955  14.004  21.709  0.00  0.00    +0.000 C 
ENDBRANCH  18  20
ENDBRANCH  17  18
ENDBRANCH   1  17
BRANCH  14  21
ATOM     21  C   UNL     1      -1.197  11.861  18.363  0.00  0.00    +0.000 C 
BRANCH  21  22
ATOM     22  C   UNL     1      -2.341  11.290  17.489  0.00  0.00    +0.000 C 
ATOM     23  C   UNL     1      -2.274   9.753  17.487  0.00  0.00    +0.000 C 
ATOM     24  C   UNL     1      -3.676  11.902  17.999  0.00  0.00    +0.000 C 
BRANCH  22  25
ATOM     25  O   UNL     1      -2.262  11.768  16.149  0.00  0.00    +0.000 OA
ATOM     26  H   UNL     1      -2.947  12.455  15.996  0.00  0.00    +0.000 HD
ENDBRANCH  22  25
ENDBRANCH  21  22
ENDBRANCH  14  21
TORSDOF 6
ENDMDL
MODEL 8
REMARK VINA RESULT:      -6.1      3.345      5.730
REMARK  Name = 
REMARK  9 active torsions:
REMARK  status: ('A' for Active; 'I' for Inactive)
REMARK    1  A    between atoms: C_1  and  C_2
REMARK    2  A    between atoms: C_2  and  C_3
REMARK    3  A    between atoms: C_3  and  C_4
REMARK    4  A    between atoms: C_4  and  C_5
REMARK    5  A    between atoms: N_18  and  C_19
REMARK    6  A    between atoms: C_19  and  C_20
REMARK    7  A    between atoms: C_20  and  C_21
REMARK    8  A    between atoms: C_20  and  C_22
REMARK    9  A    between atoms: C_20  and  O_23
REMARK                            x       y       z     vdW  Elec       q    Type
REMARK                         _______ _______ _______ _____ _____    ______ ____
ROOT
ATOM      1  C   UNL     1       3.308   7.155  18.092  0.00  0.00    +0.000 A 
ATOM      2  N   UNL     1       3.195   8.381  17.601  0.00  0.00    +0.000 NA
ATOM      3  C   UNL     1       2.354   9.063  18.442  0.00  0.00    +0.000 A 
ATOM      4  C   UNL     1       1.955  10.403  18.338  0.00  0.00    +0.000 A 
ATOM      5  N   UNL     1       2.401  11.233  17.315  0.00  0.00    +0.000 N 
ATOM      6  N   UNL     1       1.100  10.918  19.248  0.00  0.00    +0.000 NA
ATOM      7  C   UNL     1       0.682  10.159  20.269  0.00  0.00    +0.000 A 
ATOM      8  C   UNL     1      -0.152  10.793  21.201  0.00  0.00    +0.000 A 
ATOM      9  C   UNL     1      -0.640  10.124  22.324  0.00  0.00    +0.000 A 
ATOM     10  C   UNL     1      -0.308   8.796  22.538  0.00  0.00    +0.000 A 
ATOM     11  C   UNL     1       0.511   8.136  21.627  0.00  0.00    +0.000 A 
ATOM     12  C   UNL     1       1.029   8.810  20.480  0.00  0.00    +0.000 A 
ATOM     13  C   UNL     1       1.899   8.252  19.474  0.00  0.00    +0.000 A 
ATOM     14  N   UNL     1       2.466   7.011  19.199  0.00  0.00    +0.000 N 
ATOM     15  H   UNL     1       2.735  10.700  16.516  0.00  0.00    +0.000 HD
ATOM     16  H   UNL     1       1.773  12.003  17.152  0.00  0.00    +0.000 HD
ENDROOT
BRANCH   1  17
ATOM     17  C   UNL     1       4.188   6.177  17.349  0.00  0.00    +0.000 C 
BRANCH  17  18
ATOM     18  C   UNL     1       5.328   6.815  16.528  0.00  0.00    +0.000 C 
BRANCH  18  20
ATOM     19  C   UNL     1       7.564   7.457  17.569  0.00  0.00    +0.000 C 
ATOM     20  C   UNL     1       6.707   6.337  17.003  0.00  0.00    +0.000 C 
ENDBRANCH  18  20
ENDBRANCH  17  18
ENDBRANCH   1  17
BRANCH  14  21
ATOM     21  C   UNL     1       2.260   5.853  20.050  0.00  0.00    +0.000 C 
BRANCH  21  22
ATOM     22  C   UNL     1       1.939   4.479  19.410  0.00  0.00    +0.000 C 
ATOM     23  C   UNL     1       3.227   3.645  19.297  0.00  0.00    +0.000 C 
ATOM     24  C   UNL     1       0.790   3.832  20.233  0.00  0.00    +0.000 C 
BRANCH  22  25
ATOM     25  O   UNL     1       1.360   4.629  18.117  0.00  0.00    +0.000 OA
ATOM     26  H   UNL     1       0.421   4.909  18.198  0.00  0.00    +0.000 HD
ENDBRANCH  22  25
ENDBRANCH  21  22
ENDBRANCH  14  21
TORSDOF 6
ENDMDL
MODEL 9
REMARK VINA RESULT:      -6.1      6.399      8.772
REMARK  Name = 
REMARK  9 active torsions:
REMARK  status: ('A' for Active; 'I' for Inactive)
REMARK    1  A    between atoms: C_1  and  C_2
REMARK    2  A    between atoms: C_2  and  C_3
REMARK    3  A    between atoms: C_3  and  C_4
REMARK    4  A    between atoms: C_4  and  C_5
REMARK    5  A    between atoms: N_18  and  C_19
REMARK    6  A    between atoms: C_19  and  C_20
REMARK    7  A    between atoms: C_20  and  C_21
REMARK    8  A    between atoms: C_20  and  C_22
REMARK    9  A    between atoms: C_20  and  O_23
REMARK                            x       y       z     vdW  Elec       q    Type
REMARK                         _______ _______ _______ _____ _____    ______ ____
ROOT
ATOM      1  C   UNL     1       0.401   9.995  18.637  0.00  0.00    +0.000 A 
ATOM      2  N   UNL     1      -0.344   9.784  17.561  0.00  0.00    +0.000 NA
ATOM      3  C   UNL     1      -1.546  10.403  17.790  0.00  0.00    +0.000 A 
ATOM      4  C   UNL     1      -2.646  10.467  16.923  0.00  0.00    +0.000 A 
ATOM      5  N   UNL     1      -2.630   9.883  15.662  0.00  0.00    +0.000 N 
ATOM      6  N   UNL     1      -3.769  11.107  17.315  0.00  0.00    +0.000 NA
ATOM      7  C   UNL     1      -3.803  11.717  18.507  0.00  0.00    +0.000 A 
ATOM      8  C   UNL     1      -4.986  12.410  18.805  0.00  0.00    +0.000 A 
ATOM      9  C   UNL     1      -5.144  13.107  20.003  0.00  0.00    +0.000 A 
ATOM     10  C   UNL     1      -4.123  13.121  20.938  0.00  0.00    +0.000 A 
ATOM     11  C   UNL     1      -2.940  12.436  20.676  0.00  0.00    +0.000 A 
ATOM     12  C   UNL     1      -2.757  11.728  19.449  0.00  0.00    +0.000 A 
ATOM     13  C   UNL     1      -1.580  10.998  19.046  0.00  0.00    +0.000 A 
ATOM     14  N   UNL     1      -0.349  10.670  19.605  0.00  0.00    +0.000 N 
ATOM     15  H   UNL     1      -1.923   9.156  15.592  0.00  0.00    +0.000 HD
ATOM     16  H   UNL     1      -3.560   9.685  15.326  0.00  0.00    +0.000 HD
ENDROOT
BRANCH   1  17
ATOM     17  C   UNL     1       1.796   9.412  18.652  0.00  0.00    +0.000 C 
BRANCH  17  18
ATOM     18  C   UNL     1       2.042   8.277  17.636  0.00  0.00    +0.000 C 
BRANCH  18  20
ATOM     19  C   UNL     1       2.394   6.806  19.687  0.00  0.00    +0.000 C 
ATOM     20  C   UNL     1       2.824   7.113  18.263  0.00  0.00    +0.000 C 
ENDBRANCH  18  20
ENDBRANCH  17  18
ENDBRANCH   1  17
BRANCH  14  21
ATOM     21  C   UNL     1       0.049  11.110  20.930  0.00  0.00    +0.000 C 
BRANCH  21  22
ATOM     22  C   UNL     1      -0.040  10.127  22.123  0.00  0.00    +0.000 C 
ATOM     23  C   UNL     1      -1.023  10.673  23.173  0.00  0.00    +0.000 C 
ATOM     24  C   UNL     1      -0.382   8.722  21.552  0.00  0.00    +0.000 C 
BRANCH  22  25
ATOM     25  O   UNL     1       1.233   9.924  22.729  0.00  0.00    +0.000 OA
ATOM     26  H   UNL     1       1.609  10.785  23.019  0.00  0.00    +0.000 HD
ENDBRANCH  22  25
ENDBRANCH  21  22
ENDBRANCH  14  21
TORSDOF 6
ENDMDL
