MODEL 1
REMARK VINA RESULT:      -7.6      0.000      0.000
REMARK  Name = 
REMARK  7 active torsions:
REMARK  status: ('A' for Active; 'I' for Inactive)
REMARK    1  A    between atoms: C_1  and  C_2
REMARK    2  A    between atoms: C_2  and  O_3
REMARK    3  A    between atoms: O_3  and  C_4
REMARK    4  A    between atoms: C_4  and  C_6
REMARK    5  A    between atoms: C_8  and  C_9
REMARK    6  A    between atoms: C_17  and  C_18
REMARK    7  A    between atoms: N_20  and  C_21
REMARK                            x       y       z     vdW  Elec       q    Type
REMARK                         _______ _______ _______ _____ _____    ______ ____
ROOT
ATOM      1  C   UNL     1       2.188   4.045  20.630  0.00  0.00    +0.000 A 
ATOM      2  C   UNL     1       1.494   5.256  20.715  0.00  0.00    +0.000 A 
ATOM      3  C   UNL     1       2.100   6.414  20.262  0.00  0.00    +0.000 A 
ATOM      4  N   UNL     1       3.327   6.457  19.710  0.00  0.00    +0.000 NA
ATOM      5  C   UNL     1       3.968   5.266  19.619  0.00  0.00    +0.000 A 
ATOM      6  C   UNL     1       3.468   4.034  20.041  0.00  0.00    +0.000 A 
ATOM      7  C   UNL     1       4.475   3.099  19.682  0.00  0.00    +0.000 A 
ATOM      8  C   UNL     1       4.507   1.617  19.811  0.00  0.00    +0.000 C 
ATOM      9  N   UNL     1       5.531   3.694  19.118  0.00  0.00    +0.000 NA
ATOM     10  N   UNL     1       5.240   5.024  19.103  0.00  0.00    +0.000 N 
ENDROOT
BRANCH  10  11
ATOM     11  C   UNL     1       6.197   5.951  18.586  0.00  0.00    +0.000 A 
ATOM     12  C   UNL     1       5.884   6.695  17.435  0.00  0.00    +0.000 A 
ATOM     13  C   UNL     1       6.798   7.613  16.913  0.00  0.00    +0.000 A 
ATOM     14  C   UNL     1       8.034   7.799  17.531  0.00  0.00    +0.000 A 
ATOM     15  C   UNL     1       8.357   7.059  18.664  0.00  0.00    +0.000 A 
ATOM     16  C   UNL     1       7.447   6.139  19.190  0.00  0.00    +0.000 A 
ENDBRANCH  10  11
BRANCH   3  17
ATOM     17  C   UNL     1       1.459   7.714  20.421  0.00  0.00    +0.000 A 
ATOM     18  C   UNL     1       0.683   8.295  21.406  0.00  0.00    +0.000 A 
ATOM     19  C   UNL     1       0.293   9.568  20.920  0.00  0.00    +0.000 A 
ATOM     20  C   UNL     1       0.869   9.697  19.680  0.00  0.00    +0.000 A 
ATOM     21  O   UNL     1       1.584   8.586  19.372  0.00  0.00    +0.000 OA
ENDBRANCH   3  17
BRANCH   1  22
ATOM     22  C   UNL     1       1.584   2.826  21.184  0.00  0.00    +0.000 C 
ATOM     23  O   UNL     1       1.444   2.605  22.375  0.00  0.00    +0.000 OA
BRANCH  22  24
ATOM     24  O   UNL     1       1.305   1.981  20.165  0.00  0.00    +0.000 OA
BRANCH  24  26
ATOM     25  C   UNL     1       1.508   2.309  17.822  0.00  0.00    +0.000 C 
ATOM     26  C   UNL     1       0.641   2.570  19.039  0.00  0.00    +0.000 C 
ENDBRANCH  24  26
ENDBRANCH  22  24
ENDBRANCH   1  22
TORSDOF 5
ENDMDL
MODEL 2
REMARK VINA RESULT:      -7.2      0.982      1.523
REMARK  Name = 
REMARK  7 active torsions:
REMARK  status: ('A' for Active; 'I' for Inactive)
REMARK    1  A    between atoms: C_1  and  C_2
REMARK    2  A    between atoms: C_2  and  O_3
REMARK    3  A    between atoms: O_3  and  C_4
REMARK    4  A    between atoms: C_4  and  C_6
REMARK    5  A    between atoms: C_8  and  C_9
REMARK    6  A    between atoms: C_17  and  C_18
REMARK    7  A    between atoms: N_20  and  C_21
REMARK                            x       y       z     vdW  Elec       q    Type
REMARK                         _______ _______ _______ _____ _____    ______ ____
ROOT
ATOM      1  C   UNL     1       1.635   4.265  19.562  0.00  0.00    +0.000 A 
ATOM      2  C   UNL     1       1.137   5.493  20.007  0.00  0.00    +0.000 A 
ATOM      3  C   UNL     1       1.942   6.615  19.930  0.00  0.00    +0.000 A 
ATOM      4  N   UNL     1       3.190   6.616  19.424  0.00  0.00    +0.000 NA
ATOM      5  C   UNL     1       3.639   5.415  18.980  0.00  0.00    +0.000 A 
ATOM      6  C   UNL     1       2.929   4.216  19.006  0.00  0.00    +0.000 A 
ATOM      7  C   UNL     1       3.794   3.276  18.386  0.00  0.00    +0.000 A 
ATOM      8  C   UNL     1       3.585   1.839  18.059  0.00  0.00    +0.000 C 
ATOM      9  N   UNL     1       4.961   3.826  18.035  0.00  0.00    +0.000 NA
ATOM     10  N   UNL     1       4.884   5.130  18.422  0.00  0.00    +0.000 N 
ENDROOT
BRANCH  10  11
ATOM     11  C   UNL     1       6.003   5.995  18.217  0.00  0.00    +0.000 A 
ATOM     12  C   UNL     1       5.938   6.979  17.215  0.00  0.00    +0.000 A 
ATOM     13  C   UNL     1       7.014   7.842  16.997  0.00  0.00    +0.000 A 
ATOM     14  C   UNL     1       8.167   7.734  17.775  0.00  0.00    +0.000 A 
ATOM     15  C   UNL     1       8.245   6.755  18.761  0.00  0.00    +0.000 A 
ATOM     16  C   UNL     1       7.172   5.889  18.982  0.00  0.00    +0.000 A 
ENDBRANCH  10  11
BRANCH   3  17
ATOM     17  C   UNL     1       1.507   7.897  20.473  0.00  0.00    +0.000 A 
ATOM     18  C   UNL     1       1.167   8.347  21.734  0.00  0.00    +0.000 A 
ATOM     19  C   UNL     1       0.743   9.692  21.587  0.00  0.00    +0.000 A 
ATOM     20  C   UNL     1       0.868   9.988  20.252  0.00  0.00    +0.000 A 
ATOM     21  O   UNL     1       1.338   8.914  19.570  0.00  0.00    +0.000 OA
ENDBRANCH   3  17
BRANCH   1  22
ATOM     22  C   UNL     1       0.816   3.055  19.718  0.00  0.00    +0.000 C 
ATOM     23  O   UNL     1       0.261   2.475  18.801  0.00  0.00    +0.000 OA
BRANCH  22  24
ATOM     24  O   UNL     1       0.721   2.766  21.036  0.00  0.00    +0.000 OA
BRANCH  24  26
ATOM     25  C   UNL     1       2.852   1.955  21.696  0.00  0.00    +0.000 C 
ATOM     26  C   UNL     1       1.868   3.101  21.827  0.00  0.00    +0.000 C 
ENDBRANCH  24  26
ENDBRANCH  22  24
ENDBRANCH   1  22
TORSDOF 5
ENDMDL
MODEL 3
REMARK VINA RESULT:      -7.1      2.417      5.278
REMARK  Name = 
REMARK  7 active torsions:
REMARK  status: ('A' for Active; 'I' for Inactive)
REMARK    1  A    between atoms: C_1  and  C_2
REMARK    2  A    between atoms: C_2  and  O_3
REMARK    3  A    between atoms: O_3  and  C_4
REMARK    4  A    between atoms: C_4  and  C_6
REMARK    5  A    between atoms: C_8  and  C_9
REMARK    6  A    between atoms: C_17  and  C_18
REMARK    7  A    between atoms: N_20  and  C_21
REMARK                            x       y       z     vdW  Elec       q    Type
REMARK                         _______ _______ _______ _____ _____    ______ ____
ROOT
ATOM      1  C   UNL     1       4.116   3.401  19.226  0.00  0.00    +0.000 A 
ATOM      2  C   UNL     1       4.917   3.659  18.109  0.00  0.00    +0.000 A 
ATOM      3  C   UNL     1       4.842   4.897  17.497  0.00  0.00    +0.000 A 
ATOM      4  N   UNL     1       4.055   5.903  17.923  0.00  0.00    +0.000 NA
ATOM      5  C   UNL     1       3.306   5.633  19.021  0.00  0.00    +0.000 A 
ATOM      6  C   UNL     1       3.289   4.428  19.723  0.00  0.00    +0.000 A 
ATOM      7  C   UNL     1       2.403   4.661  20.808  0.00  0.00    +0.000 A 
ATOM      8  C   UNL     1       2.016   3.782  21.945  0.00  0.00    +0.000 C 
ATOM      9  N   UNL     1       1.880   5.891  20.772  0.00  0.00    +0.000 NA
ATOM     10  N   UNL     1       2.407   6.482  19.663  0.00  0.00    +0.000 N 
ENDROOT
BRANCH  10  11
ATOM     11  C   UNL     1       2.013   7.812  19.317  0.00  0.00    +0.000 A 
ATOM     12  C   UNL     1       1.329   8.595  20.263  0.00  0.00    +0.000 A 
ATOM     13  C   UNL     1       0.939   9.900  19.953  0.00  0.00    +0.000 A 
ATOM     14  C   UNL     1       1.227  10.438  18.700  0.00  0.00    +0.000 A 
ATOM     15  C   UNL     1       1.894   9.666  17.754  0.00  0.00    +0.000 A 
ATOM     16  C   UNL     1       2.285   8.361  18.057  0.00  0.00    +0.000 A 
ENDBRANCH  10  11
BRANCH   3  17
ATOM     17  C   UNL     1       5.581   5.180  16.272  0.00  0.00    +0.000 A 
ATOM     18  C   UNL     1       5.411   6.064  15.223  0.00  0.00    +0.000 A 
ATOM     19  C   UNL     1       6.436   5.786  14.285  0.00  0.00    +0.000 A 
ATOM     20  C   UNL     1       7.181   4.766  14.824  0.00  0.00    +0.000 A 
ATOM     21  O   UNL     1       6.679   4.398  16.029  0.00  0.00    +0.000 OA
ENDBRANCH   3  17
BRANCH   1  22
ATOM     22  C   UNL     1       4.128   2.062  19.830  0.00  0.00    +0.000 C 
ATOM     23  O   UNL     1       5.089   1.568  20.395  0.00  0.00    +0.000 OA
BRANCH  22  24
ATOM     24  O   UNL     1       2.943   1.461  19.571  0.00  0.00    +0.000 OA
BRANCH  24  26
ATOM     25  C   UNL     1       0.859   2.127  18.651  0.00  0.00    +0.000 C 
ATOM     26  C   UNL     1       2.315   1.840  18.340  0.00  0.00    +0.000 C 
ENDBRANCH  24  26
ENDBRANCH  22  24
ENDBRANCH   1  22
TORSDOF 5
ENDMDL
MODEL 4
REMARK VINA RESULT:      -6.9      2.431      5.972
REMARK  Name = 
REMARK  7 active torsions:
REMARK  status: ('A' for Active; 'I' for Inactive)
REMARK    1  A    between atoms: C_1  and  C_2
REMARK    2  A    between atoms: C_2  and  O_3
REMARK    3  A    between atoms: O_3  and  C_4
REMARK    4  A    between atoms: C_4  and  C_6
REMARK    5  A    between atoms: C_8  and  C_9
REMARK    6  A    between atoms: C_17  and  C_18
REMARK    7  A    between atoms: N_20  and  C_21
REMARK                            x       y       z     vdW  Elec       q    Type
REMARK                         _______ _______ _______ _____ _____    ______ ____
ROOT
ATOM      1  C   UNL     1       4.579   4.581  17.590  0.00  0.00    +0.000 A 
ATOM      2  C   UNL     1       3.977   3.727  18.519  0.00  0.00    +0.000 A 
ATOM      3  C   UNL     1       2.951   4.209  19.312  0.00  0.00    +0.000 A 
ATOM      4  N   UNL     1       2.462   5.461  19.235  0.00  0.00    +0.000 NA
ATOM      5  C   UNL     1       3.050   6.261  18.311  0.00  0.00    +0.000 A 
ATOM      6  C   UNL     1       4.091   5.896  17.458  0.00  0.00    +0.000 A 
ATOM      7  C   UNL     1       4.310   7.045  16.652  0.00  0.00    +0.000 A 
ATOM      8  C   UNL     1       5.246   7.264  15.516  0.00  0.00    +0.000 C 
ATOM      9  N   UNL     1       3.504   8.056  16.993  0.00  0.00    +0.000 NA
ATOM     10  N   UNL     1       2.750   7.592  18.028  0.00  0.00    +0.000 N 
ENDROOT
BRANCH  10  11
ATOM     11  C   UNL     1       1.798   8.457  18.652  0.00  0.00    +0.000 A 
ATOM     12  C   UNL     1       1.044   9.338  17.857  0.00  0.00    +0.000 A 
ATOM     13  C   UNL     1       0.103  10.190  18.440  0.00  0.00    +0.000 A 
ATOM     14  C   UNL     1      -0.098  10.172  19.820  0.00  0.00    +0.000 A 
ATOM     15  C   UNL     1       0.652   9.311  20.615  0.00  0.00    +0.000 A 
ATOM     16  C   UNL     1       1.595   8.458  20.038  0.00  0.00    +0.000 A 
ENDBRANCH  10  11
BRANCH   3  17
ATOM     17  C   UNL     1       2.359   3.389  20.363  0.00  0.00    +0.000 A 
ATOM     18  C   UNL     1       1.103   3.307  20.932  0.00  0.00    +0.000 A 
ATOM     19  C   UNL     1       1.190   2.356  21.980  0.00  0.00    +0.000 A 
ATOM     20  C   UNL     1       2.486   1.901  21.974  0.00  0.00    +0.000 A 
ATOM     21  O   UNL     1       3.199   2.511  20.995  0.00  0.00    +0.000 OA
ENDBRANCH   3  17
BRANCH   1  22
ATOM     22  C   UNL     1       5.724   4.101  16.804  0.00  0.00    +0.000 C 
ATOM     23  O   UNL     1       5.650   3.680  15.662  0.00  0.00    +0.000 OA
BRANCH  22  24
ATOM     24  O   UNL     1       6.826   4.126  17.589  0.00  0.00    +0.000 OA
BRANCH  24  26
ATOM     25  C   UNL     1       7.704   5.831  18.987  0.00  0.00    +0.000 C 
ATOM     26  C   UNL     1       7.580   5.344  17.557  0.00  0.00    +0.000 C 
ENDBRANCH  24  26
ENDBRANCH  22  24
ENDBRANCH   1  22
TORSDOF 5
ENDMDL
MODEL 5
REMARK VINA RESULT:      -6.9      2.744      5.916
REMARK  Name = 
REMARK  7 active torsions:
REMARK  status: ('A' for Active; 'I' for Inactive)
REMARK    1  A    between atoms: C_1  and  C_2
REMARK    2  A    between atoms: C_2  and  O_3
REMARK    3  A    between atoms: O_3  and  C_4
REMARK    4  A    between atoms: C_4  and  C_6
REMARK    5  A    between atoms: C_8  and  C_9
REMARK    6  A    between atoms: C_17  and  C_18
REMARK    7  A    between atoms: N_20  and  C_21
REMARK                            x       y       z     vdW  Elec       q    Type
REMARK                         _______ _______ _______ _____ _____    ______ ____
ROOT
ATOM      1  C   UNL     1       4.700   4.633  17.594  0.00  0.00    +0.000 A 
ATOM      2  C   UNL     1       4.097   3.769  18.513  0.00  0.00    +0.000 A 
ATOM      3  C   UNL     1       3.053   4.235  19.290  0.00  0.00    +0.000 A 
ATOM      4  N   UNL     1       2.545   5.479  19.207  0.00  0.00    +0.000 NA
ATOM      5  C   UNL     1       3.134   6.288  18.291  0.00  0.00    +0.000 A 
ATOM      6  C   UNL     1       4.193   5.940  17.454  0.00  0.00    +0.000 A 
ATOM      7  C   UNL     1       4.406   7.093  16.652  0.00  0.00    +0.000 A 
ATOM      8  C   UNL     1       5.355   7.326  15.529  0.00  0.00    +0.000 C 
ATOM      9  N   UNL     1       3.579   8.091  16.981  0.00  0.00    +0.000 NA
ATOM     10  N   UNL     1       2.817   7.615  18.004  0.00  0.00    +0.000 N 
ENDROOT
BRANCH  10  11
ATOM     11  C   UNL     1       1.842   8.464  18.613  0.00  0.00    +0.000 A 
ATOM     12  C   UNL     1       1.099   9.346  17.810  0.00  0.00    +0.000 A 
ATOM     13  C   UNL     1       0.136  10.183  18.378  0.00  0.00    +0.000 A 
ATOM     14  C   UNL     1      -0.098  10.149  19.753  0.00  0.00    +0.000 A 
ATOM     15  C   UNL     1       0.641   9.287  20.557  0.00  0.00    +0.000 A 
ATOM     16  C   UNL     1       1.606   8.449  19.994  0.00  0.00    +0.000 A 
ENDBRANCH  10  11
BRANCH   3  17
ATOM     17  C   UNL     1       2.458   3.405  20.333  0.00  0.00    +0.000 A 
ATOM     18  C   UNL     1       1.216   3.356  20.937  0.00  0.00    +0.000 A 
ATOM     19  C   UNL     1       1.295   2.368  21.951  0.00  0.00    +0.000 A 
ATOM     20  C   UNL     1       2.570   1.861  21.892  0.00  0.00    +0.000 A 
ATOM     21  O   UNL     1       3.279   2.474  20.911  0.00  0.00    +0.000 OA
ENDBRANCH   3  17
BRANCH   1  22
ATOM     22  C   UNL     1       5.864   4.171  16.825  0.00  0.00    +0.000 C 
ATOM     23  O   UNL     1       7.016   4.225  17.218  0.00  0.00    +0.000 OA
BRANCH  22  24
ATOM     24  O   UNL     1       5.442   3.773  15.602  0.00  0.00    +0.000 OA
BRANCH  24  26
ATOM     25  C   UNL     1       5.630   3.721  13.237  0.00  0.00    +0.000 C 
ATOM     26  C   UNL     1       6.377   3.964  14.534  0.00  0.00    +0.000 C 
ENDBRANCH  24  26
ENDBRANCH  22  24
ENDBRANCH   1  22
TORSDOF 5
ENDMDL
MODEL 6
REMARK VINA RESULT:      -6.9      5.049      8.677
REMARK  Name = 
REMARK  7 active torsions:
REMARK  status: ('A' for Active; 'I' for Inactive)
REMARK    1  A    between atoms: C_1  and  C_2
REMARK    2  A    between atoms: C_2  and  O_3
REMARK    3  A    between atoms: O_3  and  C_4
REMARK    4  A    between atoms: C_4  and  C_6
REMARK    5  A    between atoms: C_8  and  C_9
REMARK    6  A    between atoms: C_17  and  C_18
REMARK    7  A    between atoms: N_20  and  C_21
REMARK                            x       y       z     vdW  Elec       q    Type
REMARK                         _______ _______ _______ _____ _____    ______ ____
ROOT
ATOM      1  C   UNL     1      -2.614  12.240  20.009  0.00  0.00    +0.000 A 
ATOM      2  C   UNL     1      -3.161  11.961  18.753  0.00  0.00    +0.000 A 
ATOM      3  C   UNL     1      -2.545  11.026  17.942  0.00  0.00    +0.000 A 
ATOM      4  N   UNL     1      -1.448  10.328  18.292  0.00  0.00    +0.000 NA
ATOM      5  C   UNL     1      -0.952  10.602  19.524  0.00  0.00    +0.000 A 
ATOM      6  C   UNL     1      -1.477  11.523  20.430  0.00  0.00    +0.000 A 
ATOM      7  C   UNL     1      -0.650  11.402  21.579  0.00  0.00    +0.000 A 
ATOM      8  C   UNL     1      -0.735  12.072  22.905  0.00  0.00    +0.000 C 
ATOM      9  N   UNL     1       0.330  10.511  21.398  0.00  0.00    +0.000 NA
ATOM     10  N   UNL     1       0.169  10.039  20.131  0.00  0.00    +0.000 N 
ENDROOT
BRANCH  10  11
ATOM     11  C   UNL     1       1.094   9.081  19.611  0.00  0.00    +0.000 A 
ATOM     12  C   UNL     1       1.621   9.263  18.321  0.00  0.00    +0.000 A 
ATOM     13  C   UNL     1       2.532   8.346  17.791  0.00  0.00    +0.000 A 
ATOM     14  C   UNL     1       2.926   7.238  18.540  0.00  0.00    +0.000 A 
ATOM     15  C   UNL     1       2.400   7.044  19.814  0.00  0.00    +0.000 A 
ATOM     16  C   UNL     1       1.489   7.957  20.348  0.00  0.00    +0.000 A 
ENDBRANCH  10  11
BRANCH   3  17
ATOM     17  C   UNL     1      -3.018  10.774  16.585  0.00  0.00    +0.000 A 
ATOM     18  C   UNL     1      -4.176  11.073  15.894  0.00  0.00    +0.000 A 
ATOM     19  C   UNL     1      -4.057  10.472  14.616  0.00  0.00    +0.000 A 
ATOM     20  C   UNL     1      -2.827   9.860  14.596  0.00  0.00    +0.000 A 
ATOM     21  O   UNL     1      -2.187  10.044  15.777  0.00  0.00    +0.000 OA
ENDBRANCH   3  17
BRANCH   1  22
ATOM     22  C   UNL     1      -3.214  13.292  20.841  0.00  0.00    +0.000 C 
ATOM     23  O   UNL     1      -2.986  14.483  20.718  0.00  0.00    +0.000 OA
BRANCH  22  24
ATOM     24  O   UNL     1      -3.972  12.706  21.796  0.00  0.00    +0.000 OA
BRANCH  24  26
ATOM     25  C   UNL     1      -4.231  12.577  24.153  0.00  0.00    +0.000 C 
ATOM     26  C   UNL     1      -4.234  13.508  22.955  0.00  0.00    +0.000 C 
ENDBRANCH  24  26
ENDBRANCH  22  24
ENDBRANCH   1  22
TORSDOF 5
ENDMDL
MODEL 7
REMARK VINA RESULT:      -6.8      1.876      5.193
REMARK  Name = 
REMARK  7 active torsions:
REMARK  status: ('A' for Active; 'I' for Inactive)
REMARK    1  A    between atoms: C_1  and  C_2
REMARK    2  A    between atoms: C_2  and  O_3
REMARK    3  A    between atoms: O_3  and  C_4
REMARK    4  A    between atoms: C_4  and  C_6
REMARK    5  A    between atoms: C_8  and  C_9
REMARK    6  A    between atoms: C_17  and  C_18
REMARK    7  A    between atoms: N_20  and  C_21
REMARK                            x       y       z     vdW  Elec       q    Type
REMARK                         _______ _______ _______ _____ _____    ______ ____
ROOT
ATOM      1  C   UNL     1       4.337   3.547  19.750  0.00  0.00    +0.000 A 
ATOM      2  C   UNL     1       5.387   4.131  19.035  0.00  0.00    +0.000 A 
ATOM      3  C   UNL     1       5.311   5.470  18.699  0.00  0.00    +0.000 A 
ATOM      4  N   UNL     1       4.289   6.278  19.040  0.00  0.00    +0.000 NA
ATOM      5  C   UNL     1       3.296   5.691  19.752  0.00  0.00    +0.000 A 
ATOM      6  C   UNL     1       3.252   4.355  20.148  0.00  0.00    +0.000 A 
ATOM      7  C   UNL     1       2.057   4.247  20.907  0.00  0.00    +0.000 A 
ATOM      8  C   UNL     1       1.485   3.090  21.649  0.00  0.00    +0.000 C 
ATOM      9  N   UNL     1       1.388   5.403  20.954  0.00  0.00    +0.000 NA
ATOM     10  N   UNL     1       2.126   6.285  20.224  0.00  0.00    +0.000 N 
ENDROOT
BRANCH  10  11
ATOM     11  C   UNL     1       1.657   7.624  20.048  0.00  0.00    +0.000 A 
ATOM     12  C   UNL     1       1.046   8.286  21.127  0.00  0.00    +0.000 A 
ATOM     13  C   UNL     1       0.584   9.597  20.985  0.00  0.00    +0.000 A 
ATOM     14  C   UNL     1       0.726  10.261  19.767  0.00  0.00    +0.000 A 
ATOM     15  C   UNL     1       1.319   9.608  18.690  0.00  0.00    +0.000 A 
ATOM     16  C   UNL     1       1.782   8.298  18.827  0.00  0.00    +0.000 A 
ENDBRANCH  10  11
BRANCH   3  17
ATOM     17  C   UNL     1       6.332   6.100  17.869  0.00  0.00    +0.000 A 
ATOM     18  C   UNL     1       7.232   7.132  18.059  0.00  0.00    +0.000 A 
ATOM     19  C   UNL     1       7.901   7.323  16.825  0.00  0.00    +0.000 A 
ATOM     20  C   UNL     1       7.387   6.386  15.963  0.00  0.00    +0.000 A 
ATOM     21  O   UNL     1       6.444   5.635  16.585  0.00  0.00    +0.000 OA
ENDBRANCH   3  17
BRANCH   1  22
ATOM     22  C   UNL     1       4.371   2.107  20.037  0.00  0.00    +0.000 C 
ATOM     23  O   UNL     1       5.207   1.563  20.738  0.00  0.00    +0.000 OA
BRANCH  22  24
ATOM     24  O   UNL     1       3.389   1.503  19.329  0.00  0.00    +0.000 OA
BRANCH  24  26
ATOM     25  C   UNL     1       2.281   2.333  17.401  0.00  0.00    +0.000 C 
ATOM     26  C   UNL     1       3.508   1.597  17.904  0.00  0.00    +0.000 C 
ENDBRANCH  24  26
ENDBRANCH  22  24
ENDBRANCH   1  22
TORSDOF 5
ENDMDL
MODEL 8
REMARK VINA RESULT:      -6.7      2.688      5.574
REMARK  Name = 
REMARK  7 active torsions:
REMARK  status: ('A' for Active; 'I' for Inactive)
REMARK    1  A    between atoms: C_1  and  C_2
REMARK    2  A    between atoms: C_2  and  O_3
REMARK    3  A    between atoms: O_3  and  C_4
REMARK    4  A    between atoms: C_4  and  C_6
REMARK    5  A    between atoms: C_8  and  C_9
REMARK    6  A    between atoms: C_17  and  C_18
REMARK    7  A    between atoms: N_20  and  C_21
REMARK                            x       y       z     vdW  Elec       q    Type
REMARK                         _______ _______ _______ _____ _____    ______ ____
ROOT
ATOM      1  C   UNL     1       4.059   3.033  19.020  0.00  0.00    +0.000 A 
ATOM      2  C   UNL     1       4.820   3.301  17.878  0.00  0.00    +0.000 A 
ATOM      3  C   UNL     1       4.747   4.554  17.298  0.00  0.00    +0.000 A 
ATOM      4  N   UNL     1       4.001   5.567  17.779  0.00  0.00    +0.000 NA
ATOM      5  C   UNL     1       3.291   5.285  18.900  0.00  0.00    +0.000 A 
ATOM      6  C   UNL     1       3.276   4.065  19.574  0.00  0.00    +0.000 A 
ATOM      7  C   UNL     1       2.440   4.291  20.700  0.00  0.00    +0.000 A 
ATOM      8  C   UNL     1       2.080   3.392  21.830  0.00  0.00    +0.000 C 
ATOM      9  N   UNL     1       1.943   5.531  20.713  0.00  0.00    +0.000 NA
ATOM     10  N   UNL     1       2.437   6.138  19.598  0.00  0.00    +0.000 N 
ENDROOT
BRANCH  10  11
ATOM     11  C   UNL     1       2.059   7.483  19.299  0.00  0.00    +0.000 A 
ATOM     12  C   UNL     1       1.438   8.261  20.292  0.00  0.00    +0.000 A 
ATOM     13  C   UNL     1       1.065   9.581  20.030  0.00  0.00    +0.000 A 
ATOM     14  C   UNL     1       1.306  10.140  18.775  0.00  0.00    +0.000 A 
ATOM     15  C   UNL     1       1.909   9.374  17.783  0.00  0.00    +0.000 A 
ATOM     16  C   UNL     1       2.284   8.054  18.040  0.00  0.00    +0.000 A 
ENDBRANCH  10  11
BRANCH   3  17
ATOM     17  C   UNL     1       5.442   4.851  16.050  0.00  0.00    +0.000 A 
ATOM     18  C   UNL     1       5.540   5.967  15.241  0.00  0.00    +0.000 A 
ATOM     19  C   UNL     1       6.308   5.586  14.112  0.00  0.00    +0.000 A 
ATOM     20  C   UNL     1       6.650   4.271  14.309  0.00  0.00    +0.000 A 
ATOM     21  O   UNL     1       6.140   3.819  15.482  0.00  0.00    +0.000 OA
ENDBRANCH   3  17
BRANCH   1  22
ATOM     22  C   UNL     1       4.067   1.680  19.592  0.00  0.00    +0.000 C 
ATOM     23  O   UNL     1       3.281   0.798  19.289  0.00  0.00    +0.000 OA
BRANCH  22  24
ATOM     24  O   UNL     1       5.019   1.623  20.552  0.00  0.00    +0.000 OA
BRANCH  24  26
ATOM     25  C   UNL     1       6.139   0.359  22.220  0.00  0.00    +0.000 C 
ATOM     26  C   UNL     1       5.543   0.318  20.826  0.00  0.00    +0.000 C 
ENDBRANCH  24  26
ENDBRANCH  22  24
ENDBRANCH   1  22
TORSDOF 5
ENDMDL
MODEL 9
REMARK VINA RESULT:      -6.7      1.788      5.142
REMARK  Name = 
REMARK  7 active torsions:
REMARK  status: ('A' for Active; 'I' for Inactive)
REMARK    1  A    between atoms: C_1  and  C_2
REMARK    2  A    between atoms: C_2  and  O_3
REMARK    3  A    between atoms: O_3  and  C_4
REMARK    4  A    between atoms: C_4  and  C_6
REMARK    5  A    between atoms: C_8  and  C_9
REMARK    6  A    between atoms: C_17  and  C_18
REMARK    7  A    between atoms: N_20  and  C_21
REMARK                            x       y       z     vdW  Elec       q    Type
REMARK                         _______ _______ _______ _____ _____    ______ ____
ROOT
ATOM      1  C   UNL     1       4.322   3.570  19.686  0.00  0.00    +0.000 A 
ATOM      2  C   UNL     1       5.347   4.149  18.933  0.00  0.00    +0.000 A 
ATOM      3  C   UNL     1       5.260   5.486  18.590  0.00  0.00    +0.000 A 
ATOM      4  N   UNL     1       4.250   6.296  18.959  0.00  0.00    +0.000 NA
ATOM      5  C   UNL     1       3.280   5.714  19.708  0.00  0.00    +0.000 A 
ATOM      6  C   UNL     1       3.251   4.380  20.114  0.00  0.00    +0.000 A 
ATOM      7  C   UNL     1       2.081   4.277  20.913  0.00  0.00    +0.000 A 
ATOM      8  C   UNL     1       1.535   3.126  21.681  0.00  0.00    +0.000 C 
ATOM      9  N   UNL     1       1.413   5.434  20.973  0.00  0.00    +0.000 NA
ATOM     10  N   UNL     1       2.127   6.311  20.214  0.00  0.00    +0.000 N 
ENDROOT
BRANCH  10  11
ATOM     11  C   UNL     1       1.651   7.648  20.044  0.00  0.00    +0.000 A 
ATOM     12  C   UNL     1       1.784   8.272  18.792  0.00  0.00    +0.000 A 
ATOM     13  C   UNL     1       1.323   9.576  18.596  0.00  0.00    +0.000 A 
ATOM     14  C   UNL     1       0.724  10.271  19.646  0.00  0.00    +0.000 A 
ATOM     15  C   UNL     1       0.598   9.665  20.893  0.00  0.00    +0.000 A 
ATOM     16  C   UNL     1       1.059   8.362  21.094  0.00  0.00    +0.000 A 
ENDBRANCH  10  11
BRANCH   3  17
ATOM     17  C   UNL     1       6.253   6.110  17.722  0.00  0.00    +0.000 A 
ATOM     18  C   UNL     1       6.833   5.768  16.516  0.00  0.00    +0.000 A 
ATOM     19  C   UNL     1       7.801   6.764  16.231  0.00  0.00    +0.000 A 
ATOM     20  C   UNL     1       7.740   7.662  17.268  0.00  0.00    +0.000 A 
ATOM     21  O   UNL     1       6.801   7.283  18.170  0.00  0.00    +0.000 OA
ENDBRANCH   3  17
BRANCH   1  22
ATOM     22  C   UNL     1       4.367   2.132  19.982  0.00  0.00    +0.000 C 
ATOM     23  O   UNL     1       5.209   1.597  20.682  0.00  0.00    +0.000 OA
BRANCH  22  24
ATOM     24  O   UNL     1       3.385   1.517  19.282  0.00  0.00    +0.000 OA
BRANCH  24  26
ATOM     25  C   UNL     1       2.189   2.378  17.421  0.00  0.00    +0.000 C 
ATOM     26  C   UNL     1       3.455   1.667  17.859  0.00  0.00    +0.000 C 
ENDBRANCH  24  26
ENDBRANCH  22  24
ENDBRANCH   1  22
TORSDOF 5
ENDMDL
