MODEL 1
REMARK VINA RESULT:      -9.2      0.000      0.000
REMARK  Name = 
REMARK  7 active torsions:
REMARK  status: ('A' for Active; 'I' for Inactive)
REMARK    1  A    between atoms: C_2  and  C_3
REMARK    2  A    between atoms: N_5  and  C_6
REMARK    3  A    between atoms: C_10  and  O_11
REMARK    4  A    between atoms: O_11  and  C_12
REMARK    5  A    between atoms: C_17  and  C_18
REMARK    6  A    between atoms: C_21  and  O_22
REMARK    7  A    between atoms: O_22  and  C_23
REMARK                            x       y       z     vdW  Elec       q    Type
REMARK                         _______ _______ _______ _____ _____    ______ ____
ROOT
ATOM      1  C   UNL     1       3.642   3.733  19.311  0.00  0.00    +0.000 A 
ATOM      2  C   UNL     1       3.719   2.335  19.221  0.00  0.00    +0.000 A 
ATOM      3  C   UNL     1       2.556   1.616  19.035  0.00  0.00    +0.000 A 
ATOM      4  N   UNL     1       1.351   2.191  18.906  0.00  0.00    +0.000 NA
ATOM      5  C   UNL     1       1.315   3.547  18.944  0.00  0.00    +0.000 A 
ATOM      6  C   UNL     1       2.413   4.400  19.127  0.00  0.00    +0.000 A 
ENDROOT
BRANCH   6   7
ATOM      7  C   UNL     1       2.226   5.877  19.098  0.00  0.00    +0.000 A 
ATOM      8  C   UNL     1       2.471   6.657  17.953  0.00  0.00    +0.000 A 
ATOM      9  C   UNL     1       2.262   8.044  17.949  0.00  0.00    +0.000 A 
ATOM     10  C   UNL     1       1.825   8.695  19.099  0.00  0.00    +0.000 A 
ATOM     11  C   UNL     1       1.654   7.961  20.268  0.00  0.00    +0.000 A 
ATOM     12  C   UNL     1       1.810   6.571  20.253  0.00  0.00    +0.000 A 
BRANCH  10  13
ATOM     13  O   UNL     1       1.643  10.057  19.010  0.00  0.00    +0.000 OA
BRANCH  13  14
ATOM     14  C   UNL     1       0.367  10.575  19.045  0.00  0.00    +0.000 A 
ATOM     15  C   UNL     1       0.141  11.590  19.978  0.00  0.00    +0.000 A 
ATOM     16  C   UNL     1      -1.124  12.174  20.087  0.00  0.00    +0.000 A 
ATOM     17  C   UNL     1      -2.164  11.744  19.264  0.00  0.00    +0.000 A 
ATOM     18  C   UNL     1      -1.934  10.754  18.310  0.00  0.00    +0.000 A 
ATOM     19  C   UNL     1      -0.665  10.190  18.182  0.00  0.00    +0.000 A 
ENDBRANCH  13  14
ENDBRANCH  10  13
ENDBRANCH   6   7
BRANCH   1  20
ATOM     20  O   UNL     1       4.790   4.483  19.467  0.00  0.00    +0.000 OA
BRANCH  20  25
ATOM     21  C   UNL     1       6.315   4.595  16.064  0.00  0.00    +0.000 A 
ATOM     22  C   UNL     1       7.266   5.593  16.306  0.00  0.00    +0.000 A 
ATOM     23  C   UNL     1       7.386   6.171  17.571  0.00  0.00    +0.000 A 
ATOM     24  C   UNL     1       6.542   5.773  18.601  0.00  0.00    +0.000 A 
ATOM     25  C   UNL     1       5.557   4.810  18.368  0.00  0.00    +0.000 A 
ATOM     26  C   UNL     1       5.460   4.205  17.105  0.00  0.00    +0.000 A 
BRANCH  21  29
ATOM     27  C   UNL     1       6.739   4.392  13.622  0.00  0.00    +0.000 C 
ATOM     28  O   UNL     1       7.482   5.354  13.477  0.00  0.00    +0.000 OA
ATOM     29  N   UNL     1       6.173   3.961  14.808  0.00  0.00    +0.000 N 
ATOM     30  H   UNL     1       5.695   3.069  14.808  0.00  0.00    +0.000 HD
BRANCH  27  32
ATOM     31  C   UNL     1       5.102   3.374  12.124  0.00  0.00    +0.000 C 
ATOM     32  C   UNL     1       6.390   3.522  12.466  0.00  0.00    +0.000 C 
ENDBRANCH  27  32
ENDBRANCH  21  29
ENDBRANCH  20  25
ENDBRANCH   1  20
TORSDOF 7
ENDMDL
MODEL 2
REMARK VINA RESULT:      -9.2      2.007      3.249
REMARK  Name = 
REMARK  7 active torsions:
REMARK  status: ('A' for Active; 'I' for Inactive)
REMARK    1  A    between atoms: C_2  and  C_3
REMARK    2  A    between atoms: N_5  and  C_6
REMARK    3  A    between atoms: C_10  and  O_11
REMARK    4  A    between atoms: O_11  and  C_12
REMARK    5  A    between atoms: C_17  and  C_18
REMARK    6  A    between atoms: C_21  and  O_22
REMARK    7  A    between atoms: O_22  and  C_23
REMARK                            x       y       z     vdW  Elec       q    Type
REMARK                         _______ _______ _______ _____ _____    ______ ____
ROOT
ATOM      1  C   UNL     1       2.959   4.320  18.925  0.00  0.00    +0.000 A 
ATOM      2  C   UNL     1       3.207   2.965  19.192  0.00  0.00    +0.000 A 
ATOM      3  C   UNL     1       3.015   2.494  20.474  0.00  0.00    +0.000 A 
ATOM      4  N   UNL     1       2.574   3.265  21.480  0.00  0.00    +0.000 NA
ATOM      5  C   UNL     1       2.293   4.558  21.180  0.00  0.00    +0.000 A 
ATOM      6  C   UNL     1       2.441   5.168  19.926  0.00  0.00    +0.000 A 
ENDROOT
BRANCH   6   7
ATOM      7  C   UNL     1       2.044   6.590  19.735  0.00  0.00    +0.000 A 
ATOM      8  C   UNL     1       2.256   7.290  18.532  0.00  0.00    +0.000 A 
ATOM      9  C   UNL     1       1.849   8.622  18.374  0.00  0.00    +0.000 A 
ATOM     10  C   UNL     1       1.238   9.303  19.423  0.00  0.00    +0.000 A 
ATOM     11  C   UNL     1       1.089   8.663  20.649  0.00  0.00    +0.000 A 
ATOM     12  C   UNL     1       1.446   7.316  20.785  0.00  0.00    +0.000 A 
BRANCH  10  13
ATOM     13  O   UNL     1       0.867  10.607  19.185  0.00  0.00    +0.000 OA
BRANCH  13  14
ATOM     14  C   UNL     1      -0.454  10.900  18.922  0.00  0.00    +0.000 A 
ATOM     15  C   UNL     1      -1.019  11.927  19.681  0.00  0.00    +0.000 A 
ATOM     16  C   UNL     1      -2.353  12.293  19.487  0.00  0.00    +0.000 A 
ATOM     17  C   UNL     1      -3.125  11.630  18.533  0.00  0.00    +0.000 A 
ATOM     18  C   UNL     1      -2.556  10.627  17.751  0.00  0.00    +0.000 A 
ATOM     19  C   UNL     1      -1.216  10.281  17.925  0.00  0.00    +0.000 A 
ENDBRANCH  13  14
ENDBRANCH  10  13
ENDBRANCH   6   7
BRANCH   1  20
ATOM     20  O   UNL     1       3.112   4.816  17.646  0.00  0.00    +0.000 OA
BRANCH  20  25
ATOM     21  C   UNL     1       6.353   6.424  16.739  0.00  0.00    +0.000 A 
ATOM     22  C   UNL     1       6.893   5.373  15.989  0.00  0.00    +0.000 A 
ATOM     23  C   UNL     1       6.170   4.196  15.790  0.00  0.00    +0.000 A 
ATOM     24  C   UNL     1       4.910   4.047  16.359  0.00  0.00    +0.000 A 
ATOM     25  C   UNL     1       4.374   5.067  17.149  0.00  0.00    +0.000 A 
ATOM     26  C   UNL     1       5.086   6.264  17.319  0.00  0.00    +0.000 A 
BRANCH  21  29
ATOM     27  C   UNL     1       7.945   7.898  17.957  0.00  0.00    +0.000 C 
ATOM     28  O   UNL     1       8.338   7.100  18.798  0.00  0.00    +0.000 OA
ATOM     29  N   UNL     1       7.035   7.646  16.946  0.00  0.00    +0.000 N 
ATOM     30  H   UNL     1       6.910   8.355  16.235  0.00  0.00    +0.000 HD
BRANCH  27  32
ATOM     31  C   UNL     1       9.016   9.810  19.031  0.00  0.00    +0.000 C 
ATOM     32  C   UNL     1       8.479   9.286  17.920  0.00  0.00    +0.000 C 
ENDBRANCH  27  32
ENDBRANCH  21  29
ENDBRANCH  20  25
ENDBRANCH   1  20
TORSDOF 7
ENDMDL
MODEL 3
REMARK VINA RESULT:      -9.2      1.006      1.115
REMARK  Name = 
REMARK  7 active torsions:
REMARK  status: ('A' for Active; 'I' for Inactive)
REMARK    1  A    between atoms: C_2  and  C_3
REMARK    2  A    between atoms: N_5  and  C_6
REMARK    3  A    between atoms: C_10  and  O_11
REMARK    4  A    between atoms: O_11  and  C_12
REMARK    5  A    between atoms: C_17  and  C_18
REMARK    6  A    between atoms: C_21  and  O_22
REMARK    7  A    between atoms: O_22  and  C_23
REMARK                            x       y       z     vdW  Elec       q    Type
REMARK                         _______ _______ _______ _____ _____    ______ ____
ROOT
ATOM      1  C   UNL     1       3.516   4.710  19.979  0.00  0.00    +0.000 A 
ATOM      2  C   UNL     1       3.720   3.324  20.057  0.00  0.00    +0.000 A 
ATOM      3  C   UNL     1       2.635   2.504  20.285  0.00  0.00    +0.000 A 
ATOM      4  N   UNL     1       1.382   2.965  20.410  0.00  0.00    +0.000 NA
ATOM      5  C   UNL     1       1.207   4.303  20.278  0.00  0.00    +0.000 A 
ATOM      6  C   UNL     1       2.215   5.251  20.046  0.00  0.00    +0.000 A 
ENDROOT
BRANCH   6   7
ATOM      7  C   UNL     1       1.865   6.688  19.873  0.00  0.00    +0.000 A 
ATOM      8  C   UNL     1       2.178   7.419  18.713  0.00  0.00    +0.000 A 
ATOM      9  C   UNL     1       1.814   8.765  18.570  0.00  0.00    +0.000 A 
ATOM     10  C   UNL     1       1.146   9.428  19.595  0.00  0.00    +0.000 A 
ATOM     11  C   UNL     1       0.895   8.754  20.786  0.00  0.00    +0.000 A 
ATOM     12  C   UNL     1       1.211   7.396  20.903  0.00  0.00    +0.000 A 
BRANCH  10  13
ATOM     13  O   UNL     1       0.823  10.748  19.374  0.00  0.00    +0.000 OA
BRANCH  13  14
ATOM     14  C   UNL     1      -0.494  11.099  19.169  0.00  0.00    +0.000 A 
ATOM     15  C   UNL     1      -1.016  12.061  20.038  0.00  0.00    +0.000 A 
ATOM     16  C   UNL     1      -2.343  12.479  19.908  0.00  0.00    +0.000 A 
ATOM     17  C   UNL     1      -3.151  11.934  18.910  0.00  0.00    +0.000 A 
ATOM     18  C   UNL     1      -2.625  10.998  18.022  0.00  0.00    +0.000 A 
ATOM     19  C   UNL     1      -1.292  10.602  18.133  0.00  0.00    +0.000 A 
ENDBRANCH  13  14
ENDBRANCH  10  13
ENDBRANCH   6   7
BRANCH   1  20
ATOM     20  O   UNL     1       4.576   5.556  19.721  0.00  0.00    +0.000 OA
BRANCH  20  25
ATOM     21  C   UNL     1       6.231   4.391  16.588  0.00  0.00    +0.000 A 
ATOM     22  C   UNL     1       7.561   4.560  16.992  0.00  0.00    +0.000 A 
ATOM     23  C   UNL     1       7.862   5.023  18.273  0.00  0.00    +0.000 A 
ATOM     24  C   UNL     1       6.838   5.345  19.157  0.00  0.00    +0.000 A 
ATOM     25  C   UNL     1       5.505   5.226  18.757  0.00  0.00    +0.000 A 
ATOM     26  C   UNL     1       5.203   4.726  17.480  0.00  0.00    +0.000 A 
BRANCH  21  29
ATOM     27  C   UNL     1       6.397   4.338  14.107  0.00  0.00    +0.000 C 
ATOM     28  O   UNL     1       7.271   5.181  13.956  0.00  0.00    +0.000 OA
ATOM     29  N   UNL     1       5.876   3.899  15.310  0.00  0.00    +0.000 N 
ATOM     30  H   UNL     1       5.260   3.096  15.295  0.00  0.00    +0.000 HD
BRANCH  27  32
ATOM     31  C   UNL     1       6.605   3.286  11.914  0.00  0.00    +0.000 C 
ATOM     32  C   UNL     1       5.808   3.638  12.933  0.00  0.00    +0.000 C 
ENDBRANCH  27  32
ENDBRANCH  21  29
ENDBRANCH  20  25
ENDBRANCH   1  20
TORSDOF 7
ENDMDL
MODEL 4
REMARK VINA RESULT:      -9.0      1.186      1.645
REMARK  Name = 
REMARK  7 active torsions:
REMARK  status: ('A' for Active; 'I' for Inactive)
REMARK    1  A    between atoms: C_2  and  C_3
REMARK    2  A    between atoms: N_5  and  C_6
REMARK    3  A    between atoms: C_10  and  O_11
REMARK    4  A    between atoms: O_11  and  C_12
REMARK    5  A    between atoms: C_17  and  C_18
REMARK    6  A    between atoms: C_21  and  O_22
REMARK    7  A    between atoms: O_22  and  C_23
REMARK                            x       y       z     vdW  Elec       q    Type
REMARK                         _______ _______ _______ _____ _____    ______ ____
ROOT
ATOM      1  C   UNL     1       3.505   5.232  19.460  0.00  0.00    +0.000 A 
ATOM      2  C   UNL     1       3.802   3.869  19.613  0.00  0.00    +0.000 A 
ATOM      3  C   UNL     1       2.993   3.100  20.423  0.00  0.00    +0.000 A 
ATOM      4  N   UNL     1       1.914   3.585  21.055  0.00  0.00    +0.000 NA
ATOM      5  C   UNL     1       1.622   4.894  20.847  0.00  0.00    +0.000 A 
ATOM      6  C   UNL     1       2.353   5.789  20.052  0.00  0.00    +0.000 A 
ENDROOT
BRANCH   6   7
ATOM      7  C   UNL     1       1.881   7.191  19.877  0.00  0.00    +0.000 A 
ATOM      8  C   UNL     1       1.248   7.919  20.901  0.00  0.00    +0.000 A 
ATOM      9  C   UNL     1       0.837   9.247  20.713  0.00  0.00    +0.000 A 
ATOM     10  C   UNL     1       1.026   9.877  19.487  0.00  0.00    +0.000 A 
ATOM     11  C   UNL     1       1.576   9.156  18.432  0.00  0.00    +0.000 A 
ATOM     12  C   UNL     1       2.034   7.850  18.640  0.00  0.00    +0.000 A 
BRANCH  10  13
ATOM     13  O   UNL     1       0.596  11.181  19.387  0.00  0.00    +0.000 OA
BRANCH  13  14
ATOM     14  C   UNL     1      -0.752  11.446  19.275  0.00  0.00    +0.000 A 
ATOM     15  C   UNL     1      -1.294  12.297  20.241  0.00  0.00    +0.000 A 
ATOM     16  C   UNL     1      -2.652  12.620  20.209  0.00  0.00    +0.000 A 
ATOM     17  C   UNL     1      -3.472  12.092  19.212  0.00  0.00    +0.000 A 
ATOM     18  C   UNL     1      -2.928  11.268  18.228  0.00  0.00    +0.000 A 
ATOM     19  C   UNL     1      -1.566  10.967  18.243  0.00  0.00    +0.000 A 
ENDBRANCH  13  14
ENDBRANCH  10  13
ENDBRANCH   6   7
BRANCH   1  20
ATOM     20  O   UNL     1       4.276   6.022  18.632  0.00  0.00    +0.000 OA
BRANCH  20  25
ATOM     21  C   UNL     1       6.367   4.288  16.076  0.00  0.00    +0.000 A 
ATOM     22  C   UNL     1       7.596   4.360  16.742  0.00  0.00    +0.000 A 
ATOM     23  C   UNL     1       7.687   4.949  18.004  0.00  0.00    +0.000 A 
ATOM     24  C   UNL     1       6.557   5.493  18.603  0.00  0.00    +0.000 A 
ATOM     25  C   UNL     1       5.330   5.470  17.934  0.00  0.00    +0.000 A 
ATOM     26  C   UNL     1       5.232   4.846  16.681  0.00  0.00    +0.000 A 
BRANCH  21  29
ATOM     27  C   UNL     1       6.631   4.216  13.603  0.00  0.00    +0.000 C 
ATOM     28  O   UNL     1       7.224   5.275  13.445  0.00  0.00    +0.000 OA
ATOM     29  N   UNL     1       6.218   3.677  14.808  0.00  0.00    +0.000 N 
ATOM     30  H   UNL     1       5.866   2.728  14.807  0.00  0.00    +0.000 HD
BRANCH  27  32
ATOM     31  C   UNL     1       5.077   3.349  11.933  0.00  0.00    +0.000 C 
ATOM     32  C   UNL     1       6.317   3.341  12.442  0.00  0.00    +0.000 C 
ENDBRANCH  27  32
ENDBRANCH  21  29
ENDBRANCH  20  25
ENDBRANCH   1  20
TORSDOF 7
ENDMDL
MODEL 5
REMARK VINA RESULT:      -8.9      0.954      1.579
REMARK  Name = 
REMARK  7 active torsions:
REMARK  status: ('A' for Active; 'I' for Inactive)
REMARK    1  A    between atoms: C_2  and  C_3
REMARK    2  A    between atoms: N_5  and  C_6
REMARK    3  A    between atoms: C_10  and  O_11
REMARK    4  A    between atoms: O_11  and  C_12
REMARK    5  A    between atoms: C_17  and  C_18
REMARK    6  A    between atoms: C_21  and  O_22
REMARK    7  A    between atoms: O_22  and  C_23
REMARK                            x       y       z     vdW  Elec       q    Type
REMARK                         _______ _______ _______ _____ _____    ______ ____
ROOT
ATOM      1  C   UNL     1       3.470   4.691  19.927  0.00  0.00    +0.000 A 
ATOM      2  C   UNL     1       3.640   3.302  20.029  0.00  0.00    +0.000 A 
ATOM      3  C   UNL     1       2.523   2.503  20.152  0.00  0.00    +0.000 A 
ATOM      4  N   UNL     1       1.271   2.987  20.151  0.00  0.00    +0.000 NA
ATOM      5  C   UNL     1       1.136   4.328  19.998  0.00  0.00    +0.000 A 
ATOM      6  C   UNL     1       2.179   5.256  19.863  0.00  0.00    +0.000 A 
ENDROOT
BRANCH   6   7
ATOM      7  C   UNL     1       1.874   6.698  19.653  0.00  0.00    +0.000 A 
ATOM      8  C   UNL     1       1.340   7.523  20.659  0.00  0.00    +0.000 A 
ATOM      9  C   UNL     1       1.086   8.884  20.438  0.00  0.00    +0.000 A 
ATOM     10  C   UNL     1       1.338   9.456  19.195  0.00  0.00    +0.000 A 
ATOM     11  C   UNL     1       1.791   8.647  18.157  0.00  0.00    +0.000 A 
ATOM     12  C   UNL     1       2.094   7.302  18.398  0.00  0.00    +0.000 A 
BRANCH  10  13
ATOM     13  O   UNL     1       1.065  10.798  19.062  0.00  0.00    +0.000 OA
BRANCH  13  14
ATOM     14  C   UNL     1      -0.241  11.235  19.124  0.00  0.00    +0.000 A 
ATOM     15  C   UNL     1      -1.118  10.687  18.184  0.00  0.00    +0.000 A 
ATOM     16  C   UNL     1      -2.461  11.072  18.169  0.00  0.00    +0.000 A 
ATOM     17  C   UNL     1      -2.929  12.005  19.094  0.00  0.00    +0.000 A 
ATOM     18  C   UNL     1      -2.065  12.529  20.054  0.00  0.00    +0.000 A 
ATOM     19  C   UNL     1      -0.731  12.124  20.087  0.00  0.00    +0.000 A 
ENDBRANCH  13  14
ENDBRANCH  10  13
ENDBRANCH   6   7
BRANCH   1  20
ATOM     20  O   UNL     1       4.565   5.517  19.772  0.00  0.00    +0.000 OA
BRANCH  20  25
ATOM     21  C   UNL     1       6.410   4.300  16.767  0.00  0.00    +0.000 A 
ATOM     22  C   UNL     1       7.710   4.566  17.212  0.00  0.00    +0.000 A 
ATOM     23  C   UNL     1       7.933   5.107  18.479  0.00  0.00    +0.000 A 
ATOM     24  C   UNL     1       6.857   5.411  19.306  0.00  0.00    +0.000 A 
ATOM     25  C   UNL     1       5.550   5.195  18.862  0.00  0.00    +0.000 A 
ATOM     26  C   UNL     1       5.329   4.618  17.602  0.00  0.00    +0.000 A 
BRANCH  21  29
ATOM     27  C   UNL     1       6.454   4.289  14.280  0.00  0.00    +0.000 C 
ATOM     28  O   UNL     1       7.058   5.337  14.096  0.00  0.00    +0.000 OA
ATOM     29  N   UNL     1       6.135   3.727  15.503  0.00  0.00    +0.000 N 
ATOM     30  H   UNL     1       5.760   2.788  15.509  0.00  0.00    +0.000 HD
BRANCH  27  32
ATOM     31  C   UNL     1       4.918   3.803  12.447  0.00  0.00    +0.000 C 
ATOM     32  C   UNL     1       6.017   3.452  13.130  0.00  0.00    +0.000 C 
ENDBRANCH  27  32
ENDBRANCH  21  29
ENDBRANCH  20  25
ENDBRANCH   1  20
TORSDOF 7
ENDMDL
MODEL 6
REMARK VINA RESULT:      -8.9      3.885      9.920
REMARK  Name = 
REMARK  7 active torsions:
REMARK  status: ('A' for Active; 'I' for Inactive)
REMARK    1  A    between atoms: C_2  and  C_3
REMARK    2  A    between atoms: N_5  and  C_6
REMARK    3  A    between atoms: C_10  and  O_11
REMARK    4  A    between atoms: O_11  and  C_12
REMARK    5  A    between atoms: C_17  and  C_18
REMARK    6  A    between atoms: C_21  and  O_22
REMARK    7  A    between atoms: O_22  and  C_23
REMARK                            x       y       z     vdW  Elec       q    Type
REMARK                         _______ _______ _______ _____ _____    ______ ____
ROOT
ATOM      1  C   UNL     1      -0.338  10.831  20.606  0.00  0.00    +0.000 A 
ATOM      2  C   UNL     1      -0.984  11.695  21.504  0.00  0.00    +0.000 A 
ATOM      3  C   UNL     1      -0.999  11.370  22.844  0.00  0.00    +0.000 A 
ATOM      4  N   UNL     1      -0.401  10.276  23.340  0.00  0.00    +0.000 NA
ATOM      5  C   UNL     1       0.260   9.488  22.456  0.00  0.00    +0.000 A 
ATOM      6  C   UNL     1       0.357   9.696  21.072  0.00  0.00    +0.000 A 
ENDROOT
BRANCH   6   7
ATOM      7  C   UNL     1       1.161   8.767  20.231  0.00  0.00    +0.000 A 
ATOM      8  C   UNL     1       1.626   9.105  18.947  0.00  0.00    +0.000 A 
ATOM      9  C   UNL     1       2.402   8.218  18.187  0.00  0.00    +0.000 A 
ATOM     10  C   UNL     1       2.717   6.955  18.682  0.00  0.00    +0.000 A 
ATOM     11  C   UNL     1       2.203   6.563  19.913  0.00  0.00    +0.000 A 
ATOM     12  C   UNL     1       1.475   7.472  20.691  0.00  0.00    +0.000 A 
BRANCH  10  13
ATOM     13  O   UNL     1       3.485   6.147  17.874  0.00  0.00    +0.000 OA
BRANCH  13  14
ATOM     14  C   UNL     1       4.858   6.182  17.987  0.00  0.00    +0.000 A 
ATOM     15  C   UNL     1       5.413   5.392  18.997  0.00  0.00    +0.000 A 
ATOM     16  C   UNL     1       6.796   5.366  19.188  0.00  0.00    +0.000 A 
ATOM     17  C   UNL     1       7.627   6.131  18.370  0.00  0.00    +0.000 A 
ATOM     18  C   UNL     1       7.080   6.896  17.341  0.00  0.00    +0.000 A 
ATOM     19  C   UNL     1       5.702   6.900  17.132  0.00  0.00    +0.000 A 
ENDBRANCH  13  14
ENDBRANCH  10  13
ENDBRANCH   6   7
BRANCH   1  20
ATOM     20  O   UNL     1      -0.278  11.142  19.263  0.00  0.00    +0.000 OA
BRANCH  20  25
ATOM     21  C   UNL     1      -3.670  11.448  17.741  0.00  0.00    +0.000 A 
ATOM     22  C   UNL     1      -3.548  10.438  16.780  0.00  0.00    +0.000 A 
ATOM     23  C   UNL     1      -2.377   9.686  16.683  0.00  0.00    +0.000 A 
ATOM     24  C   UNL     1      -1.307   9.950  17.530  0.00  0.00    +0.000 A 
ATOM     25  C   UNL     1      -1.393  10.984  18.466  0.00  0.00    +0.000 A 
ATOM     26  C   UNL     1      -2.584  11.716  18.586  0.00  0.00    +0.000 A 
BRANCH  21  29
ATOM     27  C   UNL     1      -6.095  11.723  18.223  0.00  0.00    +0.000 C 
ATOM     28  O   UNL     1      -6.373  10.558  18.473  0.00  0.00    +0.000 OA
ATOM     29  N   UNL     1      -4.846  12.219  17.896  0.00  0.00    +0.000 N 
ATOM     30  H   UNL     1      -4.732  13.224  17.855  0.00  0.00    +0.000 HD
BRANCH  27  32
ATOM     31  C   UNL     1      -6.924  13.952  17.672  0.00  0.00    +0.000 C 
ATOM     32  C   UNL     1      -7.136  12.784  18.294  0.00  0.00    +0.000 C 
ENDBRANCH  27  32
ENDBRANCH  21  29
ENDBRANCH  20  25
ENDBRANCH   1  20
TORSDOF 7
ENDMDL
MODEL 7
REMARK VINA RESULT:      -8.8      1.916      3.306
REMARK  Name = 
REMARK  7 active torsions:
REMARK  status: ('A' for Active; 'I' for Inactive)
REMARK    1  A    between atoms: C_2  and  C_3
REMARK    2  A    between atoms: N_5  and  C_6
REMARK    3  A    between atoms: C_10  and  O_11
REMARK    4  A    between atoms: O_11  and  C_12
REMARK    5  A    between atoms: C_17  and  C_18
REMARK    6  A    between atoms: C_21  and  O_22
REMARK    7  A    between atoms: O_22  and  C_23
REMARK                            x       y       z     vdW  Elec       q    Type
REMARK                         _______ _______ _______ _____ _____    ______ ____
ROOT
ATOM      1  C   UNL     1       3.006   4.316  18.992  0.00  0.00    +0.000 A 
ATOM      2  C   UNL     1       3.169   2.976  19.377  0.00  0.00    +0.000 A 
ATOM      3  C   UNL     1       2.792   2.599  20.649  0.00  0.00    +0.000 A 
ATOM      4  N   UNL     1       2.247   3.448  21.534  0.00  0.00    +0.000 NA
ATOM      5  C   UNL     1       2.054   4.724  21.116  0.00  0.00    +0.000 A 
ATOM      6  C   UNL     1       2.389   5.243  19.857  0.00  0.00    +0.000 A 
ENDROOT
BRANCH   6   7
ATOM      7  C   UNL     1       2.071   6.659  19.522  0.00  0.00    +0.000 A 
ATOM      8  C   UNL     1       2.265   7.205  18.240  0.00  0.00    +0.000 A 
ATOM      9  C   UNL     1       1.933   8.536  17.949  0.00  0.00    +0.000 A 
ATOM     10  C   UNL     1       1.418   9.367  18.940  0.00  0.00    +0.000 A 
ATOM     11  C   UNL     1       1.291   8.878  20.236  0.00  0.00    +0.000 A 
ATOM     12  C   UNL     1       1.572   7.535  20.508  0.00  0.00    +0.000 A 
BRANCH  10  13
ATOM     13  O   UNL     1       1.115  10.659  18.570  0.00  0.00    +0.000 OA
BRANCH  13  14
ATOM     14  C   UNL     1      -0.144  11.159  18.819  0.00  0.00    +0.000 A 
ATOM     15  C   UNL     1      -1.186  10.598  18.076  0.00  0.00    +0.000 A 
ATOM     16  C   UNL     1      -2.498  11.044  18.258  0.00  0.00    +0.000 A 
ATOM     17  C   UNL     1      -2.769  12.052  19.183  0.00  0.00    +0.000 A 
ATOM     18  C   UNL     1      -1.737  12.591  19.949  0.00  0.00    +0.000 A 
ATOM     19  C   UNL     1      -0.432  12.127  19.788  0.00  0.00    +0.000 A 
ENDBRANCH  13  14
ENDBRANCH  10  13
ENDBRANCH   6   7
BRANCH   1  20
ATOM     20  O   UNL     1       3.346   4.719  17.716  0.00  0.00    +0.000 OA
BRANCH  20  25
ATOM     21  C   UNL     1       6.902   5.815  17.459  0.00  0.00    +0.000 A 
ATOM     22  C   UNL     1       7.300   4.955  16.429  0.00  0.00    +0.000 A 
ATOM     23  C   UNL     1       6.390   4.073  15.846  0.00  0.00    +0.000 A 
ATOM     24  C   UNL     1       5.078   4.023  16.302  0.00  0.00    +0.000 A 
ATOM     25  C   UNL     1       4.672   4.841  17.360  0.00  0.00    +0.000 A 
ATOM     26  C   UNL     1       5.579   5.753  17.922  0.00  0.00    +0.000 A 
BRANCH  21  29
ATOM     27  C   UNL     1       7.808   8.105  17.810  0.00  0.00    +0.000 C 
ATOM     28  O   UNL     1       7.056   8.723  17.068  0.00  0.00    +0.000 OA
ATOM     29  N   UNL     1       7.780   6.746  18.063  0.00  0.00    +0.000 N 
ATOM     30  H   UNL     1       8.367   6.390  18.807  0.00  0.00    +0.000 HD
BRANCH  27  32
ATOM     31  C   UNL     1       8.854  10.155  18.622  0.00  0.00    +0.000 C 
ATOM     32  C   UNL     1       8.858   8.815  18.589  0.00  0.00    +0.000 C 
ENDBRANCH  27  32
ENDBRANCH  21  29
ENDBRANCH  20  25
ENDBRANCH   1  20
TORSDOF 7
ENDMDL
MODEL 8
REMARK VINA RESULT:      -8.8      1.865      2.694
REMARK  Name = 
REMARK  7 active torsions:
REMARK  status: ('A' for Active; 'I' for Inactive)
REMARK    1  A    between atoms: C_2  and  C_3
REMARK    2  A    between atoms: N_5  and  C_6
REMARK    3  A    between atoms: C_10  and  O_11
REMARK    4  A    between atoms: O_11  and  C_12
REMARK    5  A    between atoms: C_17  and  C_18
REMARK    6  A    between atoms: C_21  and  O_22
REMARK    7  A    between atoms: O_22  and  C_23
REMARK                            x       y       z     vdW  Elec       q    Type
REMARK                         _______ _______ _______ _____ _____    ______ ____
ROOT
ATOM      1  C   UNL     1       3.521   5.499  19.432  0.00  0.00    +0.000 A 
ATOM      2  C   UNL     1       3.773   4.130  19.613  0.00  0.00    +0.000 A 
ATOM      3  C   UNL     1       2.875   3.380  20.343  0.00  0.00    +0.000 A 
ATOM      4  N   UNL     1       1.751   3.890  20.869  0.00  0.00    +0.000 NA
ATOM      5  C   UNL     1       1.508   5.203  20.634  0.00  0.00    +0.000 A 
ATOM      6  C   UNL     1       2.330   6.081  19.912  0.00  0.00    +0.000 A 
ENDROOT
BRANCH   6   7
ATOM      7  C   UNL     1       1.907   7.492  19.693  0.00  0.00    +0.000 A 
ATOM      8  C   UNL     1       1.348   8.290  20.707  0.00  0.00    +0.000 A 
ATOM      9  C   UNL     1       0.981   9.624  20.476  0.00  0.00    +0.000 A 
ATOM     10  C   UNL     1       1.142  10.192  19.215  0.00  0.00    +0.000 A 
ATOM     11  C   UNL     1       1.617   9.402  18.173  0.00  0.00    +0.000 A 
ATOM     12  C   UNL     1       2.032   8.089  18.422  0.00  0.00    +0.000 A 
BRANCH  10  13
ATOM     13  O   UNL     1       0.760  11.507  19.074  0.00  0.00    +0.000 OA
BRANCH  13  14
ATOM     14  C   UNL     1       1.682  12.509  19.288  0.00  0.00    +0.000 A 
ATOM     15  C   UNL     1       2.276  13.052  18.147  0.00  0.00    +0.000 A 
ATOM     16  C   UNL     1       3.224  14.071  18.266  0.00  0.00    +0.000 A 
ATOM     17  C   UNL     1       3.581  14.548  19.527  0.00  0.00    +0.000 A 
ATOM     18  C   UNL     1       2.967  14.031  20.666  0.00  0.00    +0.000 A 
ATOM     19  C   UNL     1       2.000  13.033  20.546  0.00  0.00    +0.000 A 
ENDBRANCH  13  14
ENDBRANCH  10  13
ENDBRANCH   6   7
BRANCH   1  20
ATOM     20  O   UNL     1       4.384   6.271  18.681  0.00  0.00    +0.000 OA
BRANCH  20  25
ATOM     21  C   UNL     1       6.474   4.590  16.088  0.00  0.00    +0.000 A 
ATOM     22  C   UNL     1       7.645   4.446  16.841  0.00  0.00    +0.000 A 
ATOM     23  C   UNL     1       7.698   4.881  18.166  0.00  0.00    +0.000 A 
ATOM     24  C   UNL     1       6.589   5.484  18.746  0.00  0.00    +0.000 A 
ATOM     25  C   UNL     1       5.425   5.678  17.997  0.00  0.00    +0.000 A 
ATOM     26  C   UNL     1       5.361   5.209  16.676  0.00  0.00    +0.000 A 
BRANCH  21  29
ATOM     27  C   UNL     1       7.044   4.667  13.668  0.00  0.00    +0.000 C 
ATOM     28  O   UNL     1       7.877   5.563  13.697  0.00  0.00    +0.000 OA
ATOM     29  N   UNL     1       6.363   4.142  14.751  0.00  0.00    +0.000 N 
ATOM     30  H   UNL     1       5.809   3.308  14.603  0.00  0.00    +0.000 HD
BRANCH  27  32
ATOM     31  C   UNL     1       5.602   3.224  12.328  0.00  0.00    +0.000 C 
ATOM     32  C   UNL     1       6.699   3.992  12.387  0.00  0.00    +0.000 C 
ENDBRANCH  27  32
ENDBRANCH  21  29
ENDBRANCH  20  25
ENDBRANCH   1  20
TORSDOF 7
ENDMDL
MODEL 9
REMARK VINA RESULT:      -8.8      0.662      1.091
REMARK  Name = 
REMARK  7 active torsions:
REMARK  status: ('A' for Active; 'I' for Inactive)
REMARK    1  A    between atoms: C_2  and  C_3
REMARK    2  A    between atoms: N_5  and  C_6
REMARK    3  A    between atoms: C_10  and  O_11
REMARK    4  A    between atoms: O_11  and  C_12
REMARK    5  A    between atoms: C_17  and  C_18
REMARK    6  A    between atoms: C_21  and  O_22
REMARK    7  A    between atoms: O_22  and  C_23
REMARK                            x       y       z     vdW  Elec       q    Type
REMARK                         _______ _______ _______ _____ _____    ______ ____
ROOT
ATOM      1  C   UNL     1       3.525   3.774  19.573  0.00  0.00    +0.000 A 
ATOM      2  C   UNL     1       3.629   2.380  19.453  0.00  0.00    +0.000 A 
ATOM      3  C   UNL     1       2.513   1.659  19.084  0.00  0.00    +0.000 A 
ATOM      4  N   UNL     1       1.331   2.230  18.804  0.00  0.00    +0.000 NA
ATOM      5  C   UNL     1       1.275   3.583  18.877  0.00  0.00    +0.000 A 
ATOM      6  C   UNL     1       2.326   4.438  19.238  0.00  0.00    +0.000 A 
ENDROOT
BRANCH   6   7
ATOM      7  C   UNL     1       2.129   5.914  19.226  0.00  0.00    +0.000 A 
ATOM      8  C   UNL     1       1.658   6.632  20.340  0.00  0.00    +0.000 A 
ATOM      9  C   UNL     1       1.505   8.026  20.307  0.00  0.00    +0.000 A 
ATOM     10  C   UNL     1       1.797   8.740  19.148  0.00  0.00    +0.000 A 
ATOM     11  C   UNL     1       2.187   8.047  18.006  0.00  0.00    +0.000 A 
ATOM     12  C   UNL     1       2.390   6.663  18.061  0.00  0.00    +0.000 A 
BRANCH  10  13
ATOM     13  O   UNL     1       1.623  10.104  19.200  0.00  0.00    +0.000 OA
BRANCH  13  14
ATOM     14  C   UNL     1       0.348  10.627  19.184  0.00  0.00    +0.000 A 
ATOM     15  C   UNL     1       0.076  11.615  20.134  0.00  0.00    +0.000 A 
ATOM     16  C   UNL     1      -1.190  12.201  20.195  0.00  0.00    +0.000 A 
ATOM     17  C   UNL     1      -2.188  11.800  19.307  0.00  0.00    +0.000 A 
ATOM     18  C   UNL     1      -1.911  10.839  18.337  0.00  0.00    +0.000 A 
ATOM     19  C   UNL     1      -0.639  10.273  18.257  0.00  0.00    +0.000 A 
ENDBRANCH  13  14
ENDBRANCH  10  13
ENDBRANCH   6   7
BRANCH   1  20
ATOM     20  O   UNL     1       4.631   4.527  19.911  0.00  0.00    +0.000 OA
BRANCH  20  25
ATOM     21  C   UNL     1       6.706   4.542  16.811  0.00  0.00    +0.000 A 
ATOM     22  C   UNL     1       7.727   5.388  17.260  0.00  0.00    +0.000 A 
ATOM     23  C   UNL     1       7.709   5.899  18.559  0.00  0.00    +0.000 A 
ATOM     24  C   UNL     1       6.659   5.588  19.415  0.00  0.00    +0.000 A 
ATOM     25  C   UNL     1       5.607   4.782  18.970  0.00  0.00    +0.000 A 
ATOM     26  C   UNL     1       5.645   4.241  17.676  0.00  0.00    +0.000 A 
BRANCH  21  29
ATOM     27  C   UNL     1       5.949   4.441  14.444  0.00  0.00    +0.000 C 
ATOM     28  O   UNL     1       5.223   5.427  14.433  0.00  0.00    +0.000 OA
ATOM     29  N   UNL     1       6.694   3.979  15.513  0.00  0.00    +0.000 N 
ATOM     30  H   UNL     1       7.360   3.237  15.341  0.00  0.00    +0.000 HD
BRANCH  27  32
ATOM     31  C   UNL     1       5.143   3.554  12.318  0.00  0.00    +0.000 C 
ATOM     32  C   UNL     1       6.137   3.624  13.214  0.00  0.00    +0.000 C 
ENDBRANCH  27  32
ENDBRANCH  21  29
ENDBRANCH  20  25
ENDBRANCH   1  20
TORSDOF 7
ENDMDL
