MODEL 1
REMARK VINA RESULT:      -7.9      0.000      0.000
REMARK  Name = 
REMARK  7 active torsions:
REMARK  status: ('A' for Active; 'I' for Inactive)
REMARK    1  A    between atoms: C_2  and  C_3
REMARK    2  A    between atoms: C_4  and  C_5
REMARK    3  A    between atoms: N_7  and  C_8
REMARK    4  A    between atoms: C_15  and  C_16
REMARK    5  A    between atoms: N_21  and  C_22
REMARK    6  A    between atoms: C_22  and  C_23
REMARK    7  A    between atoms: C_23  and  N_24
REMARK                            x       y       z     vdW  Elec       q    Type
REMARK                         _______ _______ _______ _____ _____    ______ ____
ROOT
ATOM      1  C   UNL     1       3.289   6.242  17.859  0.00  0.00    +0.000 A 
ATOM      2  C   UNL     1       4.077   6.388  16.735  0.00  0.00    +0.000 A 
ATOM      3  N   UNL     1       4.631   5.191  16.437  0.00  0.00    +0.000 N 
ATOM      4  N   UNL     1       4.213   4.287  17.315  0.00  0.00    +0.000 NA
ATOM      5  C   UNL     1       3.406   4.892  18.207  0.00  0.00    +0.000 A 
ENDROOT
BRANCH   3   6
ATOM      6  C   UNL     1       5.564   4.891  15.378  0.00  0.00    +0.000 A 
ATOM      7  C   UNL     1       5.199   4.072  14.287  0.00  0.00    +0.000 A 
ATOM      8  C   UNL     1       6.111   3.807  13.262  0.00  0.00    +0.000 A 
ATOM      9  C   UNL     1       7.396   4.351  13.306  0.00  0.00    +0.000 A 
ATOM     10  C   UNL     1       7.772   5.161  14.379  0.00  0.00    +0.000 A 
ATOM     11  C   UNL     1       6.865   5.432  15.407  0.00  0.00    +0.000 A 
ENDBRANCH   3   6
BRANCH   5  12
ATOM     12  C   UNL     1       2.810   4.170  19.358  0.00  0.00    +0.000 A 
ATOM     13  C   UNL     1       1.492   4.316  19.797  0.00  0.00    +0.000 A 
ATOM     14  C   UNL     1       1.173   3.498  20.891  0.00  0.00    +0.000 A 
ATOM     15  C   UNL     1       2.221   2.688  21.305  0.00  0.00    +0.000 A 
ATOM     16  S   UNL     1       3.543   3.009  20.328  0.00  0.00    +0.000 S 
ENDBRANCH   5  12
BRANCH   1  18
ATOM     17  C   UNL     1       2.135   8.477  18.003  0.00  0.00    +0.000 C 
ATOM     18  C   UNL     1       2.470   7.279  18.527  0.00  0.00    +0.000 C 
BRANCH  17  20
ATOM     19  O   UNL     1       1.198   9.248  20.000  0.00  0.00    +0.000 OA
ATOM     20  C   UNL     1       1.273   9.408  18.787  0.00  0.00    +0.000 C 
ATOM     21  N   UNL     1       0.547  10.409  18.197  0.00  0.00    +0.000 N 
ATOM     22  H   UNL     1       0.585  10.544  17.175  0.00  0.00    +0.000 HD
BRANCH  21  23
ATOM     23  C   UNL     1      -0.292  11.273  19.023  0.00  0.00    +0.000 C 
BRANCH  23  24
ATOM     24  C   UNL     1      -1.582  11.785  18.346  0.00  0.00    +0.000 C 
BRANCH  24  25
ATOM     25  N   UNL     1      -2.497  10.642  18.064  0.00  0.00    +0.000 NA
ATOM     26  C   UNL     1      -2.238   9.896  16.806  0.00  0.00    +0.000 C 
ATOM     27  C   UNL     1      -2.791  10.642  15.585  0.00  0.00    +0.000 C 
ATOM     28  O   UNL     1      -4.186  10.826  15.719  0.00  0.00    +0.000 OA
ATOM     29  C   UNL     1      -4.441  11.645  16.844  0.00  0.00    +0.000 C 
ATOM     30  C   UNL     1      -3.935  10.981  18.141  0.00  0.00    +0.000 C 
ENDBRANCH  24  25
ENDBRANCH  23  24
ENDBRANCH  21  23
ENDBRANCH  17  20
ENDBRANCH   1  18
TORSDOF 7
ENDMDL
MODEL 2
REMARK VINA RESULT:      -7.8      0.580      1.088
REMARK  Name = 
REMARK  7 active torsions:
REMARK  status: ('A' for Active; 'I' for Inactive)
REMARK    1  A    between atoms: C_2  and  C_3
REMARK    2  A    between atoms: C_4  and  C_5
REMARK    3  A    between atoms: N_7  and  C_8
REMARK    4  A    between atoms: C_15  and  C_16
REMARK    5  A    between atoms: N_21  and  C_22
REMARK    6  A    between atoms: C_22  and  C_23
REMARK    7  A    between atoms: C_23  and  N_24
REMARK                            x       y       z     vdW  Elec       q    Type
REMARK                         _______ _______ _______ _____ _____    ______ ____
ROOT
ATOM      1  C   UNL     1       3.131   6.519  17.859  0.00  0.00    +0.000 A 
ATOM      2  C   UNL     1       4.054   6.665  16.842  0.00  0.00    +0.000 A 
ATOM      3  N   UNL     1       4.538   5.445  16.519  0.00  0.00    +0.000 N 
ATOM      4  N   UNL     1       3.948   4.527  17.277  0.00  0.00    +0.000 NA
ATOM      5  C   UNL     1       3.096   5.144  18.117  0.00  0.00    +0.000 A 
ENDROOT
BRANCH   3   6
ATOM      6  C   UNL     1       5.560   5.130  15.550  0.00  0.00    +0.000 A 
ATOM      7  C   UNL     1       6.884   5.597  15.701  0.00  0.00    +0.000 A 
ATOM      8  C   UNL     1       7.864   5.266  14.761  0.00  0.00    +0.000 A 
ATOM      9  C   UNL     1       7.543   4.467  13.662  0.00  0.00    +0.000 A 
ATOM     10  C   UNL     1       6.239   3.999  13.499  0.00  0.00    +0.000 A 
ATOM     11  C   UNL     1       5.253   4.325  14.435  0.00  0.00    +0.000 A 
ENDBRANCH   3   6
BRANCH   5  12
ATOM     12  C   UNL     1       2.312   4.406  19.138  0.00  0.00    +0.000 A 
ATOM     13  C   UNL     1       1.335   3.448  18.858  0.00  0.00    +0.000 A 
ATOM     14  C   UNL     1       0.762   2.882  20.006  0.00  0.00    +0.000 A 
ATOM     15  C   UNL     1       1.295   3.367  21.192  0.00  0.00    +0.000 A 
ATOM     16  S   UNL     1       2.456   4.512  20.810  0.00  0.00    +0.000 S 
ENDBRANCH   5  12
BRANCH   1  18
ATOM     17  C   UNL     1       1.866   8.698  17.906  0.00  0.00    +0.000 C 
ATOM     18  C   UNL     1       2.329   7.581  18.508  0.00  0.00    +0.000 C 
BRANCH  17  20
ATOM     19  O   UNL     1       0.771   9.392  19.850  0.00  0.00    +0.000 OA
ATOM     20  C   UNL     1       1.040   9.664  18.685  0.00  0.00    +0.000 C 
ATOM     21  N   UNL     1       0.553  10.821  18.138  0.00  0.00    +0.000 N 
ATOM     22  H   UNL     1       0.755  11.054  17.154  0.00  0.00    +0.000 HD
BRANCH  21  23
ATOM     23  C   UNL     1      -0.266  11.715  18.954  0.00  0.00    +0.000 C 
BRANCH  23  24
ATOM     24  C   UNL     1      -1.625  12.113  18.337  0.00  0.00    +0.000 C 
BRANCH  24  25
ATOM     25  N   UNL     1      -2.470  10.900  18.141  0.00  0.00    +0.000 NA
ATOM     26  C   UNL     1      -2.199  10.109  16.914  0.00  0.00    +0.000 C 
ATOM     27  C   UNL     1      -2.835  10.754  15.676  0.00  0.00    +0.000 C 
ATOM     28  O   UNL     1      -4.234  10.855  15.845  0.00  0.00    +0.000 OA
ATOM     29  C   UNL     1      -4.510  11.712  16.935  0.00  0.00    +0.000 C 
ATOM     30  C   UNL     1      -3.925  11.149  18.247  0.00  0.00    +0.000 C 
ENDBRANCH  24  25
ENDBRANCH  23  24
ENDBRANCH  21  23
ENDBRANCH  17  20
ENDBRANCH   1  18
TORSDOF 7
ENDMDL
MODEL 3
REMARK VINA RESULT:      -7.7      1.413      1.909
REMARK  Name = 
REMARK  7 active torsions:
REMARK  status: ('A' for Active; 'I' for Inactive)
REMARK    1  A    between atoms: C_2  and  C_3
REMARK    2  A    between atoms: C_4  and  C_5
REMARK    3  A    between atoms: N_7  and  C_8
REMARK    4  A    between atoms: C_15  and  C_16
REMARK    5  A    between atoms: N_21  and  C_22
REMARK    6  A    between atoms: C_22  and  C_23
REMARK    7  A    between atoms: C_23  and  N_24
REMARK                            x       y       z     vdW  Elec       q    Type
REMARK                         _______ _______ _______ _____ _____    ______ ____
ROOT
ATOM      1  C   UNL     1       4.018   6.332  17.176  0.00  0.00    +0.000 A 
ATOM      2  C   UNL     1       4.733   6.403  15.997  0.00  0.00    +0.000 A 
ATOM      3  N   UNL     1       5.054   5.148  15.610  0.00  0.00    +0.000 N 
ATOM      4  N   UNL     1       4.556   4.282  16.485  0.00  0.00    +0.000 NA
ATOM      5  C   UNL     1       3.932   4.965  17.463  0.00  0.00    +0.000 A 
ENDROOT
BRANCH   3   6
ATOM      6  C   UNL     1       5.842   4.752  14.468  0.00  0.00    +0.000 A 
ATOM      7  C   UNL     1       5.360   3.806  13.536  0.00  0.00    +0.000 A 
ATOM      8  C   UNL     1       6.130   3.448  12.427  0.00  0.00    +0.000 A 
ATOM      9  C   UNL     1       7.386   4.024  12.227  0.00  0.00    +0.000 A 
ATOM     10  C   UNL     1       7.876   4.959  13.140  0.00  0.00    +0.000 A 
ATOM     11  C   UNL     1       7.112   5.323  14.252  0.00  0.00    +0.000 A 
ENDBRANCH   3   6
BRANCH   5  12
ATOM     12  C   UNL     1       3.310   4.294  18.630  0.00  0.00    +0.000 A 
ATOM     13  C   UNL     1       1.987   4.471  19.042  0.00  0.00    +0.000 A 
ATOM     14  C   UNL     1       1.642   3.699  20.162  0.00  0.00    +0.000 A 
ATOM     15  C   UNL     1       2.675   2.895  20.623  0.00  0.00    +0.000 A 
ATOM     16  S   UNL     1       4.015   3.165  19.656  0.00  0.00    +0.000 S 
ENDBRANCH   5  12
BRANCH   1  18
ATOM     17  C   UNL     1       2.388   8.214  17.566  0.00  0.00    +0.000 C 
ATOM     18  C   UNL     1       3.438   7.455  17.948  0.00  0.00    +0.000 C 
BRANCH  17  20
ATOM     19  O   UNL     1       2.059  10.459  18.125  0.00  0.00    +0.000 OA
ATOM     20  C   UNL     1       1.895   9.294  18.469  0.00  0.00    +0.000 C 
ATOM     21  N   UNL     1       1.295   9.028  19.671  0.00  0.00    +0.000 N 
ATOM     22  H   UNL     1       1.167   8.053  19.982  0.00  0.00    +0.000 HD
BRANCH  21  23
ATOM     23  C   UNL     1       0.852  10.135  20.515  0.00  0.00    +0.000 C 
BRANCH  23  24
ATOM     24  C   UNL     1      -0.655  10.465  20.434  0.00  0.00    +0.000 C 
BRANCH  24  25
ATOM     25  N   UNL     1      -0.883  11.567  19.456  0.00  0.00    +0.000 NA
ATOM     26  C   UNL     1      -1.707  12.706  19.937  0.00  0.00    +0.000 C 
ATOM     27  C   UNL     1      -3.203  12.369  19.909  0.00  0.00    +0.000 C 
ATOM     28  O   UNL     1      -3.604  12.050  18.593  0.00  0.00    +0.000 OA
ATOM     29  C   UNL     1      -2.920  10.887  18.167  0.00  0.00    +0.000 C 
ATOM     30  C   UNL     1      -1.395  11.119  18.142  0.00  0.00    +0.000 C 
ENDBRANCH  24  25
ENDBRANCH  23  24
ENDBRANCH  21  23
ENDBRANCH  17  20
ENDBRANCH   1  18
TORSDOF 7
ENDMDL
MODEL 4
REMARK VINA RESULT:      -7.6      2.683      3.134
REMARK  Name = 
REMARK  7 active torsions:
REMARK  status: ('A' for Active; 'I' for Inactive)
REMARK    1  A    between atoms: C_2  and  C_3
REMARK    2  A    between atoms: C_4  and  C_5
REMARK    3  A    between atoms: N_7  and  C_8
REMARK    4  A    between atoms: C_15  and  C_16
REMARK    5  A    between atoms: N_21  and  C_22
REMARK    6  A    between atoms: C_22  and  C_23
REMARK    7  A    between atoms: C_23  and  N_24
REMARK                            x       y       z     vdW  Elec       q    Type
REMARK                         _______ _______ _______ _____ _____    ______ ____
ROOT
ATOM      1  C   UNL     1       3.983   5.848  17.400  0.00  0.00    +0.000 A 
ATOM      2  C   UNL     1       4.719   6.070  16.252  0.00  0.00    +0.000 A 
ATOM      3  N   UNL     1       5.031   4.876  15.700  0.00  0.00    +0.000 N 
ATOM      4  N   UNL     1       4.508   3.904  16.440  0.00  0.00    +0.000 NA
ATOM      5  C   UNL     1       3.876   4.456  17.493  0.00  0.00    +0.000 A 
ENDROOT
BRANCH   3   6
ATOM      6  C   UNL     1       5.833   4.630  14.527  0.00  0.00    +0.000 A 
ATOM      7  C   UNL     1       5.389   3.767  13.501  0.00  0.00    +0.000 A 
ATOM      8  C   UNL     1       6.171   3.554  12.363  0.00  0.00    +0.000 A 
ATOM      9  C   UNL     1       7.403   4.197  12.228  0.00  0.00    +0.000 A 
ATOM     10  C   UNL     1       7.856   5.053  13.232  0.00  0.00    +0.000 A 
ATOM     11  C   UNL     1       7.079   5.271  14.373  0.00  0.00    +0.000 A 
ENDBRANCH   3   6
BRANCH   5  12
ATOM     12  C   UNL     1       3.226   3.639  18.547  0.00  0.00    +0.000 A 
ATOM     13  C   UNL     1       3.810   3.302  19.771  0.00  0.00    +0.000 A 
ATOM     14  C   UNL     1       2.973   2.541  20.599  0.00  0.00    +0.000 A 
ATOM     15  C   UNL     1       1.722   2.294  20.051  0.00  0.00    +0.000 A 
ATOM     16  S   UNL     1       1.672   2.999  18.533  0.00  0.00    +0.000 S 
ENDBRANCH   5  12
BRANCH   1  18
ATOM     17  C   UNL     1       2.230   7.504  18.129  0.00  0.00    +0.000 C 
ATOM     18  C   UNL     1       3.404   6.862  18.310  0.00  0.00    +0.000 C 
BRANCH  17  20
ATOM     19  O   UNL     1       1.934   8.208  20.338  0.00  0.00    +0.000 OA
ATOM     20  C   UNL     1       1.760   8.480  19.155  0.00  0.00    +0.000 C 
ATOM     21  N   UNL     1       1.122   9.645  18.821  0.00  0.00    +0.000 N 
ATOM     22  H   UNL     1       0.953   9.878  17.831  0.00  0.00    +0.000 HD
BRANCH  21  23
ATOM     23  C   UNL     1       0.672  10.547  19.877  0.00  0.00    +0.000 C 
BRANCH  23  24
ATOM     24  C   UNL     1       1.370  11.924  19.913  0.00  0.00    +0.000 C 
BRANCH  24  25
ATOM     25  N   UNL     1       1.225  12.604  18.594  0.00  0.00    +0.000 NA
ATOM     26  C   UNL     1       2.446  13.264  18.064  0.00  0.00    +0.000 C 
ATOM     27  C   UNL     1       2.689  14.621  18.737  0.00  0.00    +0.000 C 
ATOM     28  O   UNL     1       1.585  15.476  18.520  0.00  0.00    +0.000 OA
ATOM     29  C   UNL     1       0.439  14.920  19.133  0.00  0.00    +0.000 C 
ATOM     30  C   UNL     1       0.090  13.549  18.518  0.00  0.00    +0.000 C 
ENDBRANCH  24  25
ENDBRANCH  23  24
ENDBRANCH  21  23
ENDBRANCH  17  20
ENDBRANCH   1  18
TORSDOF 7
ENDMDL
MODEL 5
REMARK VINA RESULT:      -7.6      2.430      3.145
REMARK  Name = 
REMARK  7 active torsions:
REMARK  status: ('A' for Active; 'I' for Inactive)
REMARK    1  A    between atoms: C_2  and  C_3
REMARK    2  A    between atoms: C_4  and  C_5
REMARK    3  A    between atoms: N_7  and  C_8
REMARK    4  A    between atoms: C_15  and  C_16
REMARK    5  A    between atoms: N_21  and  C_22
REMARK    6  A    between atoms: C_22  and  C_23
REMARK    7  A    between atoms: C_23  and  N_24
REMARK                            x       y       z     vdW  Elec       q    Type
REMARK                         _______ _______ _______ _____ _____    ______ ____
ROOT
ATOM      1  C   UNL     1       3.948   5.960  17.431  0.00  0.00    +0.000 A 
ATOM      2  C   UNL     1       4.737   6.141  16.312  0.00  0.00    +0.000 A 
ATOM      3  N   UNL     1       4.932   4.940  15.722  0.00  0.00    +0.000 N 
ATOM      4  N   UNL     1       4.284   4.006  16.410  0.00  0.00    +0.000 NA
ATOM      5  C   UNL     1       3.686   4.586  17.468  0.00  0.00    +0.000 A 
ENDROOT
BRANCH   3   6
ATOM      6  C   UNL     1       5.735   4.649  14.560  0.00  0.00    +0.000 A 
ATOM      7  C   UNL     1       7.006   5.237  14.379  0.00  0.00    +0.000 A 
ATOM      8  C   UNL     1       7.778   4.929  13.255  0.00  0.00    +0.000 A 
ATOM      9  C   UNL     1       7.298   4.032  12.298  0.00  0.00    +0.000 A 
ATOM     10  C   UNL     1       6.044   3.444  12.463  0.00  0.00    +0.000 A 
ATOM     11  C   UNL     1       5.267   3.746  13.584  0.00  0.00    +0.000 A 
ENDBRANCH   3   6
BRANCH   5  12
ATOM     12  C   UNL     1       2.921   3.809  18.474  0.00  0.00    +0.000 A 
ATOM     13  C   UNL     1       1.552   3.537  18.401  0.00  0.00    +0.000 A 
ATOM     14  C   UNL     1       1.080   2.759  19.468  0.00  0.00    +0.000 A 
ATOM     15  C   UNL     1       2.068   2.393  20.371  0.00  0.00    +0.000 A 
ATOM     16  S   UNL     1       3.516   3.056  19.854  0.00  0.00    +0.000 S 
ENDBRANCH   5  12
BRANCH   1  18
ATOM     17  C   UNL     1       2.194   7.109  18.828  0.00  0.00    +0.000 C 
ATOM     18  C   UNL     1       3.458   6.999  18.366  0.00  0.00    +0.000 C 
BRANCH  17  20
ATOM     19  O   UNL     1       1.846   9.351  19.389  0.00  0.00    +0.000 OA
ATOM     20  C   UNL     1       1.856   8.194  19.794  0.00  0.00    +0.000 C 
ATOM     21  N   UNL     1       1.588   7.944  21.114  0.00  0.00    +0.000 N 
ATOM     22  H   UNL     1       1.612   6.977  21.473  0.00  0.00    +0.000 HD
BRANCH  21  23
ATOM     23  C   UNL     1       1.283   9.055  22.010  0.00  0.00    +0.000 C 
BRANCH  23  24
ATOM     24  C   UNL     1      -0.117   9.684  21.832  0.00  0.00    +0.000 C 
BRANCH  24  25
ATOM     25  N   UNL     1      -0.024  11.169  21.921  0.00  0.00    +0.000 NA
ATOM     26  C   UNL     1      -0.927  11.820  22.905  0.00  0.00    +0.000 C 
ATOM     27  C   UNL     1      -2.357  11.940  22.363  0.00  0.00    +0.000 C 
ATOM     28  O   UNL     1      -2.362  12.704  21.174  0.00  0.00    +0.000 OA
ATOM     29  C   UNL     1      -1.610  12.030  20.184  0.00  0.00    +0.000 C 
ATOM     30  C   UNL     1      -0.139  11.866  20.622  0.00  0.00    +0.000 C 
ENDBRANCH  24  25
ENDBRANCH  23  24
ENDBRANCH  21  23
ENDBRANCH  17  20
ENDBRANCH   1  18
TORSDOF 7
ENDMDL
MODEL 6
REMARK VINA RESULT:      -7.5      2.262      2.660
REMARK  Name = 
REMARK  7 active torsions:
REMARK  status: ('A' for Active; 'I' for Inactive)
REMARK    1  A    between atoms: C_2  and  C_3
REMARK    2  A    between atoms: C_4  and  C_5
REMARK    3  A    between atoms: N_7  and  C_8
REMARK    4  A    between atoms: C_15  and  C_16
REMARK    5  A    between atoms: N_21  and  C_22
REMARK    6  A    between atoms: C_22  and  C_23
REMARK    7  A    between atoms: C_23  and  N_24
REMARK                            x       y       z     vdW  Elec       q    Type
REMARK                         _______ _______ _______ _____ _____    ______ ____
ROOT
ATOM      1  C   UNL     1       3.911   6.116  17.324  0.00  0.00    +0.000 A 
ATOM      2  C   UNL     1       4.680   6.257  16.185  0.00  0.00    +0.000 A 
ATOM      3  N   UNL     1       4.946   5.028  15.688  0.00  0.00    +0.000 N 
ATOM      4  N   UNL     1       4.362   4.113  16.454  0.00  0.00    +0.000 NA
ATOM      5  C   UNL     1       3.735   4.736  17.469  0.00  0.00    +0.000 A 
ENDROOT
BRANCH   3   6
ATOM      6  C   UNL     1       5.759   4.697  14.544  0.00  0.00    +0.000 A 
ATOM      7  C   UNL     1       5.297   3.810  13.546  0.00  0.00    +0.000 A 
ATOM      8  C   UNL     1       6.092   3.515  12.435  0.00  0.00    +0.000 A 
ATOM      9  C   UNL     1       7.354   4.098  12.299  0.00  0.00    +0.000 A 
ATOM     10  C   UNL     1       7.824   4.975  13.277  0.00  0.00    +0.000 A 
ATOM     11  C   UNL     1       7.035   5.275  14.390  0.00  0.00    +0.000 A 
ENDBRANCH   3   6
BRANCH   5  12
ATOM     12  C   UNL     1       3.025   3.993  18.540  0.00  0.00    +0.000 A 
ATOM     13  C   UNL     1       1.652   4.064  18.787  0.00  0.00    +0.000 A 
ATOM     14  C   UNL     1       1.230   3.243  19.843  0.00  0.00    +0.000 A 
ATOM     15  C   UNL     1       2.255   2.505  20.417  0.00  0.00    +0.000 A 
ATOM     16  S   UNL     1       3.681   2.894  19.629  0.00  0.00    +0.000 S 
ENDBRANCH   5  12
BRANCH   1  18
ATOM     17  C   UNL     1       2.177   7.814  18.001  0.00  0.00    +0.000 C 
ATOM     18  C   UNL     1       3.362   7.192  18.180  0.00  0.00    +0.000 C 
BRANCH  17  20
ATOM     19  O   UNL     1       1.579   8.538  20.141  0.00  0.00    +0.000 OA
ATOM     20  C   UNL     1       1.743   8.862  18.970  0.00  0.00    +0.000 C 
ATOM     21  N   UNL     1       1.497  10.155  18.592  0.00  0.00    +0.000 N 
ATOM     22  H   UNL     1       1.613  10.438  17.607  0.00  0.00    +0.000 HD
BRANCH  21  23
ATOM     23  C   UNL     1       1.056  11.125  19.590  0.00  0.00    +0.000 C 
BRANCH  23  24
ATOM     24  C   UNL     1      -0.351  11.719  19.359  0.00  0.00    +0.000 C 
BRANCH  24  25
ATOM     25  N   UNL     1      -0.589  12.849  20.302  0.00  0.00    +0.000 NA
ATOM     26  C   UNL     1      -0.256  12.589  21.727  0.00  0.00    +0.000 C 
ATOM     27  C   UNL     1      -1.354  11.775  22.422  0.00  0.00    +0.000 C 
ATOM     28  O   UNL     1      -2.582  12.471  22.368  0.00  0.00    +0.000 OA
ATOM     29  C   UNL     1      -2.977  12.613  21.017  0.00  0.00    +0.000 C 
ATOM     30  C   UNL     1      -1.944  13.435  20.220  0.00  0.00    +0.000 C 
ENDBRANCH  24  25
ENDBRANCH  23  24
ENDBRANCH  21  23
ENDBRANCH  17  20
ENDBRANCH   1  18
TORSDOF 7
ENDMDL
MODEL 7
REMARK VINA RESULT:      -7.5      1.933      2.524
REMARK  Name = 
REMARK  7 active torsions:
REMARK  status: ('A' for Active; 'I' for Inactive)
REMARK    1  A    between atoms: C_2  and  C_3
REMARK    2  A    between atoms: C_4  and  C_5
REMARK    3  A    between atoms: N_7  and  C_8
REMARK    4  A    between atoms: C_15  and  C_16
REMARK    5  A    between atoms: N_21  and  C_22
REMARK    6  A    between atoms: C_22  and  C_23
REMARK    7  A    between atoms: C_23  and  N_24
REMARK                            x       y       z     vdW  Elec       q    Type
REMARK                         _______ _______ _______ _____ _____    ______ ____
ROOT
ATOM      1  C   UNL     1       4.065   5.843  17.366  0.00  0.00    +0.000 A 
ATOM      2  C   UNL     1       4.751   6.067  16.188  0.00  0.00    +0.000 A 
ATOM      3  N   UNL     1       5.109   4.874  15.662  0.00  0.00    +0.000 N 
ATOM      4  N   UNL     1       4.662   3.900  16.448  0.00  0.00    +0.000 NA
ATOM      5  C   UNL     1       4.035   4.451  17.505  0.00  0.00    +0.000 A 
ENDROOT
BRANCH   3   6
ATOM      6  C   UNL     1       5.884   4.632  14.470  0.00  0.00    +0.000 A 
ATOM      7  C   UNL     1       7.134   5.258  14.268  0.00  0.00    +0.000 A 
ATOM      8  C   UNL     1       7.879   4.998  13.115  0.00  0.00    +0.000 A 
ATOM      9  C   UNL     1       7.395   4.113  12.149  0.00  0.00    +0.000 A 
ATOM     10  C   UNL     1       6.161   3.488  12.335  0.00  0.00    +0.000 A 
ATOM     11  C   UNL     1       5.410   3.743  13.486  0.00  0.00    +0.000 A 
ENDBRANCH   3   6
BRANCH   5  12
ATOM     12  C   UNL     1       3.464   3.635  18.604  0.00  0.00    +0.000 A 
ATOM     13  C   UNL     1       4.210   3.008  19.605  0.00  0.00    +0.000 A 
ATOM     14  C   UNL     1       3.424   2.318  20.540  0.00  0.00    +0.000 A 
ATOM     15  C   UNL     1       2.061   2.415  20.300  0.00  0.00    +0.000 A 
ATOM     16  S   UNL     1       1.840   3.333  18.918  0.00  0.00    +0.000 S 
ENDBRANCH   5  12
BRANCH   1  18
ATOM     17  C   UNL     1       2.363   7.590  17.996  0.00  0.00    +0.000 C 
ATOM     18  C   UNL     1       3.462   6.853  18.264  0.00  0.00    +0.000 C 
BRANCH  17  20
ATOM     19  O   UNL     1       1.940   8.239  20.201  0.00  0.00    +0.000 OA
ATOM     20  C   UNL     1       1.853   8.549  19.018  0.00  0.00    +0.000 C 
ATOM     21  N   UNL     1       1.270   9.741  18.680  0.00  0.00    +0.000 N 
ATOM     22  H   UNL     1       1.173  10.008  17.688  0.00  0.00    +0.000 HD
BRANCH  21  23
ATOM     23  C   UNL     1       0.776  10.626  19.731  0.00  0.00    +0.000 C 
BRANCH  23  24
ATOM     24  C   UNL     1      -0.761  10.687  19.875  0.00  0.00    +0.000 C 
BRANCH  24  25
ATOM     25  N   UNL     1      -1.308  11.787  19.031  0.00  0.00    +0.000 NA
ATOM     26  C   UNL     1      -0.603  13.091  19.123  0.00  0.00    +0.000 C 
ATOM     27  C   UNL     1      -1.005  13.861  20.387  0.00  0.00    +0.000 C 
ATOM     28  O   UNL     1      -2.397  14.102  20.387  0.00  0.00    +0.000 OA
ATOM     29  C   UNL     1      -3.083  12.866  20.430  0.00  0.00    +0.000 C 
ATOM     30  C   UNL     1      -2.762  12.009  19.188  0.00  0.00    +0.000 C 
ENDBRANCH  24  25
ENDBRANCH  23  24
ENDBRANCH  21  23
ENDBRANCH  17  20
ENDBRANCH   1  18
TORSDOF 7
ENDMDL
MODEL 8
REMARK VINA RESULT:      -7.5      2.040      2.514
REMARK  Name = 
REMARK  7 active torsions:
REMARK  status: ('A' for Active; 'I' for Inactive)
REMARK    1  A    between atoms: C_2  and  C_3
REMARK    2  A    between atoms: C_4  and  C_5
REMARK    3  A    between atoms: N_7  and  C_8
REMARK    4  A    between atoms: C_15  and  C_16
REMARK    5  A    between atoms: N_21  and  C_22
REMARK    6  A    between atoms: C_22  and  C_23
REMARK    7  A    between atoms: C_23  and  N_24
REMARK                            x       y       z     vdW  Elec       q    Type
REMARK                         _______ _______ _______ _____ _____    ______ ____
ROOT
ATOM      1  C   UNL     1       3.692   6.153  17.413  0.00  0.00    +0.000 A 
ATOM      2  C   UNL     1       4.475   6.287  16.283  0.00  0.00    +0.000 A 
ATOM      3  N   UNL     1       4.814   5.054  15.844  0.00  0.00    +0.000 N 
ATOM      4  N   UNL     1       4.263   4.142  16.637  0.00  0.00    +0.000 NA
ATOM      5  C   UNL     1       3.585   4.772  17.614  0.00  0.00    +0.000 A 
ENDROOT
BRANCH   3   6
ATOM      6  C   UNL     1       5.666   4.719  14.728  0.00  0.00    +0.000 A 
ATOM      7  C   UNL     1       5.243   3.817  13.727  0.00  0.00    +0.000 A 
ATOM      8  C   UNL     1       6.075   3.519  12.645  0.00  0.00    +0.000 A 
ATOM      9  C   UNL     1       7.335   4.112  12.542  0.00  0.00    +0.000 A 
ATOM     10  C   UNL     1       7.766   5.004  13.524  0.00  0.00    +0.000 A 
ATOM     11  C   UNL     1       6.940   5.309  14.609  0.00  0.00    +0.000 A 
ENDBRANCH   3   6
BRANCH   5  12
ATOM     12  C   UNL     1       2.894   4.039  18.703  0.00  0.00    +0.000 A 
ATOM     13  C   UNL     1       1.508   3.969  18.866  0.00  0.00    +0.000 A 
ATOM     14  C   UNL     1       1.113   3.190  19.963  0.00  0.00    +0.000 A 
ATOM     15  C   UNL     1       2.174   2.622  20.654  0.00  0.00    +0.000 A 
ATOM     16  S   UNL     1       3.595   3.111  19.917  0.00  0.00    +0.000 S 
ENDBRANCH   5  12
BRANCH   1  18
ATOM     17  C   UNL     1       2.365   8.273  17.719  0.00  0.00    +0.000 C 
ATOM     18  C   UNL     1       3.071   7.233  18.213  0.00  0.00    +0.000 C 
BRANCH  17  20
ATOM     19  O   UNL     1       1.387   8.878  19.754  0.00  0.00    +0.000 OA
ATOM     20  C   UNL     1       1.770   9.269  18.656  0.00  0.00    +0.000 C 
ATOM     21  N   UNL     1       1.613  10.588  18.323  0.00  0.00    +0.000 N 
ATOM     22  H   UNL     1       1.913  10.928  17.396  0.00  0.00    +0.000 HD
BRANCH  21  23
ATOM     23  C   UNL     1       1.005  11.506  19.283  0.00  0.00    +0.000 C 
BRANCH  23  24
ATOM     24  C   UNL     1      -0.396  12.032  18.899  0.00  0.00    +0.000 C 
BRANCH  24  25
ATOM     25  N   UNL     1      -1.400  11.589  19.908  0.00  0.00    +0.000 NA
ATOM     26  C   UNL     1      -2.668  12.362  19.947  0.00  0.00    +0.000 C 
ATOM     27  C   UNL     1      -2.496  13.688  20.699  0.00  0.00    +0.000 C 
ATOM     28  O   UNL     1      -2.078  13.443  22.026  0.00  0.00    +0.000 OA
ATOM     29  C   UNL     1      -0.808  12.821  22.007  0.00  0.00    +0.000 C 
ATOM     30  C   UNL     1      -0.867  11.460  21.282  0.00  0.00    +0.000 C 
ENDBRANCH  24  25
ENDBRANCH  23  24
ENDBRANCH  21  23
ENDBRANCH  17  20
ENDBRANCH   1  18
TORSDOF 7
ENDMDL
MODEL 9
REMARK VINA RESULT:      -7.5      3.909     10.436
REMARK  Name = 
REMARK  7 active torsions:
REMARK  status: ('A' for Active; 'I' for Inactive)
REMARK    1  A    between atoms: C_2  and  C_3
REMARK    2  A    between atoms: C_4  and  C_5
REMARK    3  A    between atoms: N_7  and  C_8
REMARK    4  A    between atoms: C_15  and  C_16
REMARK    5  A    between atoms: N_21  and  C_22
REMARK    6  A    between atoms: C_22  and  C_23
REMARK    7  A    between atoms: C_23  and  N_24
REMARK                            x       y       z     vdW  Elec       q    Type
REMARK                         _______ _______ _______ _____ _____    ______ ____
ROOT
ATOM      1  C   UNL     1      -0.759  10.849  19.427  0.00  0.00    +0.000 A 
ATOM      2  C   UNL     1      -0.648  11.376  20.699  0.00  0.00    +0.000 A 
ATOM      3  N   UNL     1      -1.777  12.064  20.982  0.00  0.00    +0.000 N 
ATOM      4  N   UNL     1      -2.608  11.980  19.950  0.00  0.00    +0.000 NA
ATOM      5  C   UNL     1      -2.017  11.262  18.976  0.00  0.00    +0.000 A 
ENDROOT
BRANCH   3   6
ATOM      6  C   UNL     1      -2.072  12.820  22.174  0.00  0.00    +0.000 A 
ATOM      7  C   UNL     1      -1.166  13.778  22.680  0.00  0.00    +0.000 A 
ATOM      8  C   UNL     1      -1.478  14.514  23.827  0.00  0.00    +0.000 A 
ATOM      9  C   UNL     1      -2.693  14.310  24.484  0.00  0.00    +0.000 A 
ATOM     10  C   UNL     1      -3.598  13.367  23.997  0.00  0.00    +0.000 A 
ATOM     11  C   UNL     1      -3.294  12.627  22.850  0.00  0.00    +0.000 A 
ENDBRANCH   3   6
BRANCH   5  12
ATOM     12  C   UNL     1      -2.661  11.025  17.661  0.00  0.00    +0.000 A 
ATOM     13  C   UNL     1      -2.104  10.276  16.622  0.00  0.00    +0.000 A 
ATOM     14  C   UNL     1      -2.930  10.186  15.492  0.00  0.00    +0.000 A 
ATOM     15  C   UNL     1      -4.146  10.838  15.638  0.00  0.00    +0.000 A 
ATOM     16  S   UNL     1      -4.179  11.542  17.157  0.00  0.00    +0.000 S 
ENDBRANCH   5  12
BRANCH   1  18
ATOM     17  C   UNL     1       1.224   9.301  19.287  0.00  0.00    +0.000 C 
ATOM     18  C   UNL     1       0.224  10.003  18.713  0.00  0.00    +0.000 C 
BRANCH  17  20
ATOM     19  O   UNL     1       2.402   8.871  17.316  0.00  0.00    +0.000 OA
ATOM     20  C   UNL     1       2.118   8.463  18.436  0.00  0.00    +0.000 C 
ATOM     21  N   UNL     1       2.604   7.252  18.852  0.00  0.00    +0.000 N 
ATOM     22  H   UNL     1       2.358   6.888  19.785  0.00  0.00    +0.000 HD
BRANCH  21  23
ATOM     23  C   UNL     1       3.460   6.475  17.960  0.00  0.00    +0.000 C 
BRANCH  23  24
ATOM     24  C   UNL     1       3.807   5.052  18.450  0.00  0.00    +0.000 C 
BRANCH  24  25
ATOM     25  N   UNL     1       3.084   4.040  17.629  0.00  0.00    +0.000 NA
ATOM     26  C   UNL     1       1.611   3.986  17.810  0.00  0.00    +0.000 C 
ATOM     27  C   UNL     1       1.228   3.226  19.086  0.00  0.00    +0.000 C 
ATOM     28  O   UNL     1       1.722   1.903  19.030  0.00  0.00    +0.000 OA
ATOM     29  C   UNL     1       3.136   1.936  18.987  0.00  0.00    +0.000 C 
ATOM     30  C   UNL     1       3.636   2.671  17.726  0.00  0.00    +0.000 C 
ENDBRANCH  24  25
ENDBRANCH  23  24
ENDBRANCH  21  23
ENDBRANCH  17  20
ENDBRANCH   1  18
TORSDOF 7
ENDMDL
