MODEL 1
REMARK VINA RESULT:      -8.3      0.000      0.000
REMARK  Name = 
REMARK  6 active torsions:
REMARK  status: ('A' for Active; 'I' for Inactive)
REMARK    1  A    between atoms: C_1  and  N_2
REMARK    2  A    between atoms: C_3  and  S_4
REMARK    3  A    between atoms: S_4  and  C_5
REMARK    4  A    between atoms: C_5  and  C_6
REMARK    5  A    between atoms: C_9  and  C_10
REMARK    6  A    between atoms: C_19  and  C_20
REMARK                            x       y       z     vdW  Elec       q    Type
REMARK                         _______ _______ _______ _____ _____    ______ ____
ROOT
ATOM      1  C   UNL     1       5.179   7.064  17.210  0.00  0.00    +0.000 C 
ATOM      2  N   UNL     1       6.302   6.562  17.964  0.00  0.00    +0.000 N 
ATOM      3  C   UNL     1       7.516   7.140  18.193  0.00  0.00    +0.000 A 
ATOM      4  N   UNL     1       8.223   6.366  18.986  0.00  0.00    +0.000 NA
ATOM      5  N   UNL     1       7.490   5.243  19.250  0.00  0.00    +0.000 NA
ATOM      6  C   UNL     1       6.341   5.339  18.615  0.00  0.00    +0.000 A 
ENDROOT
BRANCH   6   7
ATOM      7  C   UNL     1       5.228   4.351  18.598  0.00  0.00    +0.000 C 
ATOM      8  C   UNL     1       4.695   4.002  17.215  0.00  0.00    +0.000 C 
ATOM      9  O   UNL     1       3.905   2.802  17.381  0.00  0.00    +0.000 OA
ATOM     10  C   UNL     1       2.955   3.015  18.358  0.00  0.00    +0.000 A 
ATOM     11  C   UNL     1       1.892   2.121  18.421  0.00  0.00    +0.000 A 
ATOM     12  C   UNL     1       0.796   2.426  19.228  0.00  0.00    +0.000 A 
ATOM     13  C   UNL     1       0.770   3.620  19.954  0.00  0.00    +0.000 A 
ATOM     14  C   UNL     1       1.891   4.453  19.980  0.00  0.00    +0.000 A 
ATOM     15  C   UNL     1       3.011   4.115  19.228  0.00  0.00    +0.000 A 
ATOM     16  O   UNL     1       4.135   4.902  19.362  0.00  0.00    +0.000 OA
ENDBRANCH   6   7
BRANCH   3  17
ATOM     17  S   UNL     1       8.060   8.652  17.534  0.00  0.00    +0.000 S 
BRANCH  17  18
ATOM     18  C   UNL     1       8.949   9.269  18.996  0.00  0.00    +0.000 C 
BRANCH  18  19
ATOM     19  C   UNL     1       9.390  10.697  18.930  0.00  0.00    +0.000 A 
ATOM     20  C   UNL     1       8.985  11.664  18.030  0.00  0.00    +0.000 A 
ATOM     21  N   UNL     1       9.403  12.952  18.296  0.00  0.00    +0.000 NA
ATOM     22  C   UNL     1      10.156  12.975  19.378  0.00  0.00    +0.000 A 
ATOM     23  S   UNL     1      10.376  11.432  20.127  0.00  0.00    +0.000 S 
BRANCH  22  24
ATOM     24  C   UNL     1      10.722  14.209  19.960  0.00  0.00    +0.000 A 
ATOM     25  C   UNL     1      10.194  14.702  21.164  0.00  0.00    +0.000 A 
ATOM     26  C   UNL     1      10.687  15.881  21.743  0.00  0.00    +0.000 A 
ATOM     27  C   UNL     1      11.704  16.592  21.105  0.00  0.00    +0.000 A 
ATOM     28  C   UNL     1      12.230  16.123  19.902  0.00  0.00    +0.000 A 
ATOM     29  C   UNL     1      11.747  14.937  19.336  0.00  0.00    +0.000 A 
ENDBRANCH  22  24
ENDBRANCH  18  19
ENDBRANCH  17  18
ENDBRANCH   3  17
TORSDOF 5
ENDMDL
MODEL 2
REMARK VINA RESULT:      -8.2      6.299      9.869
REMARK  Name = 
REMARK  6 active torsions:
REMARK  status: ('A' for Active; 'I' for Inactive)
REMARK    1  A    between atoms: C_1  and  N_2
REMARK    2  A    between atoms: C_3  and  S_4
REMARK    3  A    between atoms: S_4  and  C_5
REMARK    4  A    between atoms: C_5  and  C_6
REMARK    5  A    between atoms: C_9  and  C_10
REMARK    6  A    between atoms: C_19  and  C_20
REMARK                            x       y       z     vdW  Elec       q    Type
REMARK                         _______ _______ _______ _____ _____    ______ ____
ROOT
ATOM      1  C   UNL     1       1.165   7.937  20.964  0.00  0.00    +0.000 C 
ATOM      2  N   UNL     1       1.721   8.083  19.640  0.00  0.00    +0.000 N 
ATOM      3  C   UNL     1       2.376   7.165  18.872  0.00  0.00    +0.000 A 
ATOM      4  N   UNL     1       2.657   7.697  17.704  0.00  0.00    +0.000 NA
ATOM      5  N   UNL     1       2.225   8.994  17.711  0.00  0.00    +0.000 NA
ATOM      6  C   UNL     1       1.683   9.244  18.885  0.00  0.00    +0.000 A 
ENDROOT
BRANCH   6   7
ATOM      7  C   UNL     1       1.087  10.524  19.354  0.00  0.00    +0.000 C 
ATOM      8  C   UNL     1      -0.401  10.685  19.073  0.00  0.00    +0.000 C 
ATOM      9  O   UNL     1      -0.848  11.786  19.899  0.00  0.00    +0.000 OA
ATOM     10  C   UNL     1      -0.063  12.891  19.646  0.00  0.00    +0.000 A 
ATOM     11  C   UNL     1      -0.542  14.124  20.072  0.00  0.00    +0.000 A 
ATOM     12  C   UNL     1       0.095  15.287  19.637  0.00  0.00    +0.000 A 
ATOM     13  C   UNL     1       1.193  15.205  18.776  0.00  0.00    +0.000 A 
ATOM     14  C   UNL     1       1.741  13.961  18.451  0.00  0.00    +0.000 A 
ATOM     15  C   UNL     1       1.147  12.804  18.940  0.00  0.00    +0.000 A 
ATOM     16  O   UNL     1       1.777  11.603  18.688  0.00  0.00    +0.000 OA
ENDBRANCH   6   7
BRANCH   3  17
ATOM     17  S   UNL     1       2.793   5.551  19.357  0.00  0.00    +0.000 S 
BRANCH  17  18
ATOM     18  C   UNL     1       4.602   5.738  19.360  0.00  0.00    +0.000 C 
BRANCH  18  19
ATOM     19  C   UNL     1       5.249   5.793  18.012  0.00  0.00    +0.000 A 
ATOM     20  C   UNL     1       6.378   6.501  17.646  0.00  0.00    +0.000 A 
ATOM     21  N   UNL     1       6.875   6.238  16.386  0.00  0.00    +0.000 NA
ATOM     22  C   UNL     1       6.115   5.357  15.767  0.00  0.00    +0.000 A 
ATOM     23  S   UNL     1       4.769   4.798  16.699  0.00  0.00    +0.000 S 
BRANCH  22  24
ATOM     24  C   UNL     1       6.402   4.825  14.419  0.00  0.00    +0.000 A 
ATOM     25  C   UNL     1       7.497   5.331  13.703  0.00  0.00    +0.000 A 
ATOM     26  C   UNL     1       7.795   4.870  12.412  0.00  0.00    +0.000 A 
ATOM     27  C   UNL     1       6.979   3.908  11.816  0.00  0.00    +0.000 A 
ATOM     28  C   UNL     1       5.880   3.403  12.510  0.00  0.00    +0.000 A 
ATOM     29  C   UNL     1       5.595   3.854  13.804  0.00  0.00    +0.000 A 
ENDBRANCH  22  24
ENDBRANCH  18  19
ENDBRANCH  17  18
ENDBRANCH   3  17
TORSDOF 5
ENDMDL
MODEL 3
REMARK VINA RESULT:      -8.1      1.596      1.885
REMARK  Name = 
REMARK  6 active torsions:
REMARK  status: ('A' for Active; 'I' for Inactive)
REMARK    1  A    between atoms: C_1  and  N_2
REMARK    2  A    between atoms: C_3  and  S_4
REMARK    3  A    between atoms: S_4  and  C_5
REMARK    4  A    between atoms: C_5  and  C_6
REMARK    5  A    between atoms: C_9  and  C_10
REMARK    6  A    between atoms: C_19  and  C_20
REMARK                            x       y       z     vdW  Elec       q    Type
REMARK                         _______ _______ _______ _____ _____    ______ ____
ROOT
ATOM      1  C   UNL     1       5.286   7.165  17.084  0.00  0.00    +0.000 C 
ATOM      2  N   UNL     1       6.372   6.673  17.898  0.00  0.00    +0.000 N 
ATOM      3  C   UNL     1       7.570   7.259  18.184  0.00  0.00    +0.000 A 
ATOM      4  N   UNL     1       8.240   6.494  19.017  0.00  0.00    +0.000 NA
ATOM      5  N   UNL     1       7.500   5.368  19.251  0.00  0.00    +0.000 NA
ATOM      6  C   UNL     1       6.383   5.455  18.558  0.00  0.00    +0.000 A 
ENDROOT
BRANCH   6   7
ATOM      7  C   UNL     1       5.278   4.461  18.492  0.00  0.00    +0.000 C 
ATOM      8  C   UNL     1       4.699   4.231  17.102  0.00  0.00    +0.000 C 
ATOM      9  O   UNL     1       3.923   3.013  17.188  0.00  0.00    +0.000 OA
ATOM     10  C   UNL     1       3.007   3.129  18.213  0.00  0.00    +0.000 A 
ATOM     11  C   UNL     1       1.953   2.223  18.232  0.00  0.00    +0.000 A 
ATOM     12  C   UNL     1       0.884   2.444  19.101  0.00  0.00    +0.000 A 
ATOM     13  C   UNL     1       0.875   3.569  19.930  0.00  0.00    +0.000 A 
ATOM     14  C   UNL     1       1.991   4.408  19.991  0.00  0.00    +0.000 A 
ATOM     15  C   UNL     1       3.085   4.148  19.174  0.00  0.00    +0.000 A 
ATOM     16  O   UNL     1       4.209   4.932  19.339  0.00  0.00    +0.000 OA
ENDBRANCH   6   7
BRANCH   3  17
ATOM     17  S   UNL     1       8.140   8.769  17.543  0.00  0.00    +0.000 S 
BRANCH  17  18
ATOM     18  C   UNL     1       8.944   9.404  19.046  0.00  0.00    +0.000 C 
BRANCH  18  19
ATOM     19  C   UNL     1       9.565  10.759  18.924  0.00  0.00    +0.000 A 
ATOM     20  C   UNL     1      10.907  11.082  19.007  0.00  0.00    +0.000 A 
ATOM     21  N   UNL     1      11.237  12.381  18.678  0.00  0.00    +0.000 NA
ATOM     22  C   UNL     1      10.153  13.068  18.376  0.00  0.00    +0.000 A 
ATOM     23  S   UNL     1       8.685  12.158  18.464  0.00  0.00    +0.000 S 
BRANCH  22  24
ATOM     24  C   UNL     1      10.169  14.477  17.932  0.00  0.00    +0.000 A 
ATOM     25  C   UNL     1      11.300  14.971  17.265  0.00  0.00    +0.000 A 
ATOM     26  C   UNL     1      11.367  16.308  16.843  0.00  0.00    +0.000 A 
ATOM     27  C   UNL     1      10.303  17.170  17.109  0.00  0.00    +0.000 A 
ATOM     28  C   UNL     1       9.177  16.698  17.782  0.00  0.00    +0.000 A 
ATOM     29  C   UNL     1       9.107  15.360  18.186  0.00  0.00    +0.000 A 
ENDBRANCH  22  24
ENDBRANCH  18  19
ENDBRANCH  17  18
ENDBRANCH   3  17
TORSDOF 5
ENDMDL
MODEL 4
REMARK VINA RESULT:      -8.1      7.774     10.431
REMARK  Name = 
REMARK  6 active torsions:
REMARK  status: ('A' for Active; 'I' for Inactive)
REMARK    1  A    between atoms: C_1  and  N_2
REMARK    2  A    between atoms: C_3  and  S_4
REMARK    3  A    between atoms: S_4  and  C_5
REMARK    4  A    between atoms: C_5  and  C_6
REMARK    5  A    between atoms: C_9  and  C_10
REMARK    6  A    between atoms: C_19  and  C_20
REMARK                            x       y       z     vdW  Elec       q    Type
REMARK                         _______ _______ _______ _____ _____    ______ ____
ROOT
ATOM      1  C   UNL     1       1.347   8.239  20.782  0.00  0.00    +0.000 C 
ATOM      2  N   UNL     1       1.631   8.669  19.434  0.00  0.00    +0.000 N 
ATOM      3  C   UNL     1       1.267   9.820  18.800  0.00  0.00    +0.000 A 
ATOM      4  N   UNL     1       1.792   9.837  17.595  0.00  0.00    +0.000 NA
ATOM      5  N   UNL     1       2.473   8.667  17.411  0.00  0.00    +0.000 NA
ATOM      6  C   UNL     1       2.359   7.943  18.505  0.00  0.00    +0.000 A 
ENDROOT
BRANCH   6   7
ATOM      7  C   UNL     1       2.926   6.592  18.762  0.00  0.00    +0.000 C 
ATOM      8  C   UNL     1       4.273   6.321  18.105  0.00  0.00    +0.000 C 
ATOM      9  O   UNL     1       4.803   5.140  18.751  0.00  0.00    +0.000 OA
ATOM     10  C   UNL     1       3.876   4.123  18.669  0.00  0.00    +0.000 A 
ATOM     11  C   UNL     1       4.324   2.830  18.914  0.00  0.00    +0.000 A 
ATOM     12  C   UNL     1       3.489   1.753  18.616  0.00  0.00    +0.000 A 
ATOM     13  C   UNL     1       2.223   1.979  18.068  0.00  0.00    +0.000 A 
ATOM     14  C   UNL     1       1.735   3.282  17.936  0.00  0.00    +0.000 A 
ATOM     15  C   UNL     1       2.543   4.354  18.298  0.00  0.00    +0.000 A 
ATOM     16  O   UNL     1       1.990   5.617  18.257  0.00  0.00    +0.000 OA
ENDBRANCH   6   7
BRANCH   3  17
ATOM     17  S   UNL     1       0.256  11.067  19.463  0.00  0.00    +0.000 S 
BRANCH  17  18
ATOM     18  C   UNL     1      -1.142  10.909  18.311  0.00  0.00    +0.000 C 
BRANCH  18  19
ATOM     19  C   UNL     1      -2.415  11.565  18.745  0.00  0.00    +0.000 A 
ATOM     20  C   UNL     1      -3.664  11.450  18.163  0.00  0.00    +0.000 A 
ATOM     21  N   UNL     1      -4.711  12.012  18.864  0.00  0.00    +0.000 NA
ATOM     22  C   UNL     1      -4.270  12.589  19.964  0.00  0.00    +0.000 A 
ATOM     23  S   UNL     1      -2.562  12.459  20.202  0.00  0.00    +0.000 S 
BRANCH  22  24
ATOM     24  C   UNL     1      -5.146  13.241  20.960  0.00  0.00    +0.000 A 
ATOM     25  C   UNL     1      -4.836  13.124  22.323  0.00  0.00    +0.000 A 
ATOM     26  C   UNL     1      -5.650  13.708  23.305  0.00  0.00    +0.000 A 
ATOM     27  C   UNL     1      -6.801  14.401  22.925  0.00  0.00    +0.000 A 
ATOM     28  C   UNL     1      -7.129  14.516  21.575  0.00  0.00    +0.000 A 
ATOM     29  C   UNL     1      -6.306  13.945  20.598  0.00  0.00    +0.000 A 
ENDBRANCH  22  24
ENDBRANCH  18  19
ENDBRANCH  17  18
ENDBRANCH   3  17
TORSDOF 5
ENDMDL
MODEL 5
REMARK VINA RESULT:      -8.0      8.725     11.905
REMARK  Name = 
REMARK  6 active torsions:
REMARK  status: ('A' for Active; 'I' for Inactive)
REMARK    1  A    between atoms: C_1  and  N_2
REMARK    2  A    between atoms: C_3  and  S_4
REMARK    3  A    between atoms: S_4  and  C_5
REMARK    4  A    between atoms: C_5  and  C_6
REMARK    5  A    between atoms: C_9  and  C_10
REMARK    6  A    between atoms: C_19  and  C_20
REMARK                            x       y       z     vdW  Elec       q    Type
REMARK                         _______ _______ _______ _____ _____    ______ ____
ROOT
ATOM      1  C   UNL     1      -1.375  13.817  20.479  0.00  0.00    +0.000 C 
ATOM      2  N   UNL     1      -1.026  12.741  21.375  0.00  0.00    +0.000 N 
ATOM      3  C   UNL     1       0.072  11.932  21.367  0.00  0.00    +0.000 A 
ATOM      4  N   UNL     1       0.025  11.125  22.403  0.00  0.00    +0.000 NA
ATOM      5  N   UNL     1      -1.137  11.368  23.080  0.00  0.00    +0.000 NA
ATOM      6  C   UNL     1      -1.791  12.323  22.452  0.00  0.00    +0.000 A 
ENDROOT
BRANCH   6   7
ATOM      7  C   UNL     1      -3.108  12.911  22.817  0.00  0.00    +0.000 C 
ATOM      8  C   UNL     1      -3.598  12.577  24.220  0.00  0.00    +0.000 C 
ATOM      9  O   UNL     1      -4.672  13.505  24.501  0.00  0.00    +0.000 OA
ATOM     10  C   UNL     1      -5.614  13.426  23.497  0.00  0.00    +0.000 A 
ATOM     11  C   UNL     1      -6.867  13.971  23.754  0.00  0.00    +0.000 A 
ATOM     12  C   UNL     1      -7.915  13.710  22.871  0.00  0.00    +0.000 A 
ATOM     13  C   UNL     1      -7.703  12.902  21.750  0.00  0.00    +0.000 A 
ATOM     14  C   UNL     1      -6.416  12.459  21.436  0.00  0.00    +0.000 A 
ATOM     15  C   UNL     1      -5.359  12.776  22.280  0.00  0.00    +0.000 A 
ATOM     16  O   UNL     1      -4.089  12.414  21.882  0.00  0.00    +0.000 OA
ENDBRANCH   6   7
BRANCH   3  17
ATOM     17  S   UNL     1       1.333  11.946  20.172  0.00  0.00    +0.000 S 
BRANCH  17  18
ATOM     18  C   UNL     1       0.683  10.636  19.092  0.00  0.00    +0.000 C 
BRANCH  18  19
ATOM     19  C   UNL     1       1.431   9.341  19.124  0.00  0.00    +0.000 A 
ATOM     20  C   UNL     1       1.525   8.446  20.175  0.00  0.00    +0.000 A 
ATOM     21  N   UNL     1       2.126   7.238  19.888  0.00  0.00    +0.000 NA
ATOM     22  C   UNL     1       2.525   7.210  18.633  0.00  0.00    +0.000 A 
ATOM     23  S   UNL     1       2.173   8.649  17.740  0.00  0.00    +0.000 S 
BRANCH  22  24
ATOM     24  C   UNL     1       3.162   6.038  17.997  0.00  0.00    +0.000 A 
ATOM     25  C   UNL     1       4.356   6.213  17.281  0.00  0.00    +0.000 A 
ATOM     26  C   UNL     1       4.985   5.133  16.644  0.00  0.00    +0.000 A 
ATOM     27  C   UNL     1       4.406   3.864  16.703  0.00  0.00    +0.000 A 
ATOM     28  C   UNL     1       3.214   3.676  17.400  0.00  0.00    +0.000 A 
ATOM     29  C   UNL     1       2.598   4.753  18.047  0.00  0.00    +0.000 A 
ENDBRANCH  22  24
ENDBRANCH  18  19
ENDBRANCH  17  18
ENDBRANCH   3  17
TORSDOF 5
ENDMDL
MODEL 6
REMARK VINA RESULT:      -7.9      8.943     12.021
REMARK  Name = 
REMARK  6 active torsions:
REMARK  status: ('A' for Active; 'I' for Inactive)
REMARK    1  A    between atoms: C_1  and  N_2
REMARK    2  A    between atoms: C_3  and  S_4
REMARK    3  A    between atoms: S_4  and  C_5
REMARK    4  A    between atoms: C_5  and  C_6
REMARK    5  A    between atoms: C_9  and  C_10
REMARK    6  A    between atoms: C_19  and  C_20
REMARK                            x       y       z     vdW  Elec       q    Type
REMARK                         _______ _______ _______ _____ _____    ______ ____
ROOT
ATOM      1  C   UNL     1      -1.699  13.171  20.069  0.00  0.00    +0.000 C 
ATOM      2  N   UNL     1      -1.262  12.483  21.260  0.00  0.00    +0.000 N 
ATOM      3  C   UNL     1      -0.200  11.644  21.432  0.00  0.00    +0.000 A 
ATOM      4  N   UNL     1      -0.128  11.288  22.695  0.00  0.00    +0.000 NA
ATOM      5  N   UNL     1      -1.177  11.859  23.360  0.00  0.00    +0.000 NA
ATOM      6  C   UNL     1      -1.883  12.560  22.496  0.00  0.00    +0.000 A 
ENDROOT
BRANCH   6   7
ATOM      7  C   UNL     1      -3.118  13.345  22.761  0.00  0.00    +0.000 C 
ATOM      8  C   UNL     1      -3.144  14.078  24.096  0.00  0.00    +0.000 C 
ATOM      9  O   UNL     1      -4.223  15.038  24.005  0.00  0.00    +0.000 OA
ATOM     10  C   UNL     1      -5.384  14.385  23.652  0.00  0.00    +0.000 A 
ATOM     11  C   UNL     1      -6.582  15.061  23.851  0.00  0.00    +0.000 A 
ATOM     12  C   UNL     1      -7.784  14.362  23.733  0.00  0.00    +0.000 A 
ATOM     13  C   UNL     1      -7.775  12.998  23.429  0.00  0.00    +0.000 A 
ATOM     14  C   UNL     1      -6.575  12.355  23.112  0.00  0.00    +0.000 A 
ATOM     15  C   UNL     1      -5.384  13.069  23.164  0.00  0.00    +0.000 A 
ATOM     16  O   UNL     1      -4.235  12.432  22.742  0.00  0.00    +0.000 OA
ENDBRANCH   6   7
BRANCH   3  17
ATOM     17  S   UNL     1       0.883  11.110  20.184  0.00  0.00    +0.000 S 
BRANCH  17  18
ATOM     18  C   UNL     1       0.321   9.384  20.072  0.00  0.00    +0.000 C 
BRANCH  18  19
ATOM     19  C   UNL     1       1.374   8.382  19.720  0.00  0.00    +0.000 A 
ATOM     20  C   UNL     1       1.797   7.302  20.472  0.00  0.00    +0.000 A 
ATOM     21  N   UNL     1       2.656   6.424  19.842  0.00  0.00    +0.000 NA
ATOM     22  C   UNL     1       2.922   6.841  18.620  0.00  0.00    +0.000 A 
ATOM     23  S   UNL     1       2.127   8.313  18.179  0.00  0.00    +0.000 S 
BRANCH  22  24
ATOM     24  C   UNL     1       3.771   6.100  17.664  0.00  0.00    +0.000 A 
ATOM     25  C   UNL     1       4.580   6.817  16.769  0.00  0.00    +0.000 A 
ATOM     26  C   UNL     1       5.386   6.156  15.831  0.00  0.00    +0.000 A 
ATOM     27  C   UNL     1       5.371   4.762  15.767  0.00  0.00    +0.000 A 
ATOM     28  C   UNL     1       4.564   4.035  16.641  0.00  0.00    +0.000 A 
ATOM     29  C   UNL     1       3.773   4.698  17.587  0.00  0.00    +0.000 A 
ENDBRANCH  22  24
ENDBRANCH  18  19
ENDBRANCH  17  18
ENDBRANCH   3  17
TORSDOF 5
ENDMDL
MODEL 7
REMARK VINA RESULT:      -7.9      5.164      5.994
REMARK  Name = 
REMARK  6 active torsions:
REMARK  status: ('A' for Active; 'I' for Inactive)
REMARK    1  A    between atoms: C_1  and  N_2
REMARK    2  A    between atoms: C_3  and  S_4
REMARK    3  A    between atoms: S_4  and  C_5
REMARK    4  A    between atoms: C_5  and  C_6
REMARK    5  A    between atoms: C_9  and  C_10
REMARK    6  A    between atoms: C_19  and  C_20
REMARK                            x       y       z     vdW  Elec       q    Type
REMARK                         _______ _______ _______ _____ _____    ______ ____
ROOT
ATOM      1  C   UNL     1       1.451   8.242  20.961  0.00  0.00    +0.000 C 
ATOM      2  N   UNL     1       1.552   8.740  19.611  0.00  0.00    +0.000 N 
ATOM      3  C   UNL     1       1.070   9.901  19.080  0.00  0.00    +0.000 A 
ATOM      4  N   UNL     1       1.442   9.991  17.823  0.00  0.00    +0.000 NA
ATOM      5  N   UNL     1       2.138   8.860  17.502  0.00  0.00    +0.000 NA
ATOM      6  C   UNL     1       2.186   8.087  18.567  0.00  0.00    +0.000 A 
ENDROOT
BRANCH   6   7
ATOM      7  C   UNL     1       2.830   6.751  18.688  0.00  0.00    +0.000 C 
ATOM      8  C   UNL     1       4.052   6.540  17.805  0.00  0.00    +0.000 C 
ATOM      9  O   UNL     1       4.722   5.365  18.320  0.00  0.00    +0.000 OA
ATOM     10  C   UNL     1       3.826   4.318  18.372  0.00  0.00    +0.000 A 
ATOM     11  C   UNL     1       4.349   3.037  18.505  0.00  0.00    +0.000 A 
ATOM     12  C   UNL     1       3.508   1.939  18.327  0.00  0.00    +0.000 A 
ATOM     13  C   UNL     1       2.161   2.131  18.009  0.00  0.00    +0.000 A 
ATOM     14  C   UNL     1       1.618   3.418  17.996  0.00  0.00    +0.000 A 
ATOM     15  C   UNL     1       2.442   4.510  18.241  0.00  0.00    +0.000 A 
ATOM     16  O   UNL     1       1.852   5.754  18.327  0.00  0.00    +0.000 OA
ENDBRANCH   6   7
BRANCH   3  17
ATOM     17  S   UNL     1       0.103  11.074  19.919  0.00  0.00    +0.000 S 
BRANCH  17  18
ATOM     18  C   UNL     1      -0.069  12.283  18.571  0.00  0.00    +0.000 C 
BRANCH  18  19
ATOM     19  C   UNL     1       0.914  13.411  18.584  0.00  0.00    +0.000 A 
ATOM     20  C   UNL     1       0.704  14.708  19.016  0.00  0.00    +0.000 A 
ATOM     21  N   UNL     1       1.825  15.508  19.094  0.00  0.00    +0.000 NA
ATOM     22  C   UNL     1       2.891  14.845  18.693  0.00  0.00    +0.000 A 
ATOM     23  S   UNL     1       2.578  13.212  18.217  0.00  0.00    +0.000 S 
BRANCH  22  24
ATOM     24  C   UNL     1       4.259  15.403  18.702  0.00  0.00    +0.000 A 
ATOM     25  C   UNL     1       4.488  16.643  19.318  0.00  0.00    +0.000 A 
ATOM     26  C   UNL     1       5.766  17.221  19.333  0.00  0.00    +0.000 A 
ATOM     27  C   UNL     1       6.828  16.565  18.707  0.00  0.00    +0.000 A 
ATOM     28  C   UNL     1       6.615  15.338  18.081  0.00  0.00    +0.000 A 
ATOM     29  C   UNL     1       5.341  14.758  18.082  0.00  0.00    +0.000 A 
ENDBRANCH  22  24
ENDBRANCH  18  19
ENDBRANCH  17  18
ENDBRANCH   3  17
TORSDOF 5
ENDMDL
MODEL 8
REMARK VINA RESULT:      -7.9      6.576      8.203
REMARK  Name = 
REMARK  6 active torsions:
REMARK  status: ('A' for Active; 'I' for Inactive)
REMARK    1  A    between atoms: C_1  and  N_2
REMARK    2  A    between atoms: C_3  and  S_4
REMARK    3  A    between atoms: S_4  and  C_5
REMARK    4  A    between atoms: C_5  and  C_6
REMARK    5  A    between atoms: C_9  and  C_10
REMARK    6  A    between atoms: C_19  and  C_20
REMARK                            x       y       z     vdW  Elec       q    Type
REMARK                         _______ _______ _______ _____ _____    ______ ____
ROOT
ATOM      1  C   UNL     1       3.266   3.821  16.756  0.00  0.00    +0.000 C 
ATOM      2  N   UNL     1       4.118   3.913  17.917  0.00  0.00    +0.000 N 
ATOM      3  C   UNL     1       3.792   3.809  19.238  0.00  0.00    +0.000 A 
ATOM      4  N   UNL     1       4.885   3.890  19.963  0.00  0.00    +0.000 NA
ATOM      5  N   UNL     1       5.941   4.096  19.119  0.00  0.00    +0.000 NA
ATOM      6  C   UNL     1       5.484   4.138  17.885  0.00  0.00    +0.000 A 
ENDROOT
BRANCH   6   7
ATOM      7  C   UNL     1       6.265   4.351  16.637  0.00  0.00    +0.000 C 
ATOM      8  C   UNL     1       6.482   5.808  16.252  0.00  0.00    +0.000 C 
ATOM      9  O   UNL     1       7.531   5.808  15.256  0.00  0.00    +0.000 OA
ATOM     10  C   UNL     1       7.181   4.958  14.228  0.00  0.00    +0.000 A 
ATOM     11  C   UNL     1       7.879   5.082  13.032  0.00  0.00    +0.000 A 
ATOM     12  C   UNL     1       7.409   4.415  11.900  0.00  0.00    +0.000 A 
ATOM     13  C   UNL     1       6.247   3.643  11.973  0.00  0.00    +0.000 A 
ATOM     14  C   UNL     1       5.621   3.427  13.204  0.00  0.00    +0.000 A 
ATOM     15  C   UNL     1       6.129   4.037  14.345  0.00  0.00    +0.000 A 
ATOM     16  O   UNL     1       5.552   3.716  15.555  0.00  0.00    +0.000 OA
ENDBRANCH   6   7
BRANCH   3  17
ATOM     17  S   UNL     1       2.188   3.615  19.874  0.00  0.00    +0.000 S 
BRANCH  17  18
ATOM     18  C   UNL     1       2.209   4.994  21.060  0.00  0.00    +0.000 C 
BRANCH  18  19
ATOM     19  C   UNL     1       2.074   6.360  20.466  0.00  0.00    +0.000 A 
ATOM     20  C   UNL     1       2.505   6.786  19.224  0.00  0.00    +0.000 A 
ATOM     21  N   UNL     1       2.095   8.048  18.842  0.00  0.00    +0.000 NA
ATOM     22  C   UNL     1       1.380   8.607  19.797  0.00  0.00    +0.000 A 
ATOM     23  S   UNL     1       1.162   7.616  21.198  0.00  0.00    +0.000 S 
BRANCH  22  24
ATOM     24  C   UNL     1       0.751   9.939  19.682  0.00  0.00    +0.000 A 
ATOM     25  C   UNL     1       1.271  10.864  18.764  0.00  0.00    +0.000 A 
ATOM     26  C   UNL     1       0.719  12.147  18.635  0.00  0.00    +0.000 A 
ATOM     27  C   UNL     1      -0.353  12.522  19.446  0.00  0.00    +0.000 A 
ATOM     28  C   UNL     1      -0.874  11.619  20.372  0.00  0.00    +0.000 A 
ATOM     29  C   UNL     1      -0.330  10.335  20.486  0.00  0.00    +0.000 A 
ENDBRANCH  22  24
ENDBRANCH  18  19
ENDBRANCH  17  18
ENDBRANCH   3  17
TORSDOF 5
ENDMDL
MODEL 9
REMARK VINA RESULT:      -7.9      0.542      1.047
REMARK  Name = 
REMARK  6 active torsions:
REMARK  status: ('A' for Active; 'I' for Inactive)
REMARK    1  A    between atoms: C_1  and  N_2
REMARK    2  A    between atoms: C_3  and  S_4
REMARK    3  A    between atoms: S_4  and  C_5
REMARK    4  A    between atoms: C_5  and  C_6
REMARK    5  A    between atoms: C_9  and  C_10
REMARK    6  A    between atoms: C_19  and  C_20
REMARK                            x       y       z     vdW  Elec       q    Type
REMARK                         _______ _______ _______ _____ _____    ______ ____
ROOT
ATOM      1  C   UNL     1       4.953   7.139  17.744  0.00  0.00    +0.000 C 
ATOM      2  N   UNL     1       6.183   6.417  17.965  0.00  0.00    +0.000 N 
ATOM      3  C   UNL     1       7.470   6.867  17.915  0.00  0.00    +0.000 A 
ATOM      4  N   UNL     1       8.284   5.889  18.244  0.00  0.00    +0.000 NA
ATOM      5  N   UNL     1       7.536   4.768  18.470  0.00  0.00    +0.000 NA
ATOM      6  C   UNL     1       6.269   5.070  18.277  0.00  0.00    +0.000 A 
ENDROOT
BRANCH   6   7
ATOM      7  C   UNL     1       5.093   4.165  18.397  0.00  0.00    +0.000 C 
ATOM      8  C   UNL     1       4.394   3.837  17.085  0.00  0.00    +0.000 C 
ATOM      9  O   UNL     1       3.541   2.701  17.358  0.00  0.00    +0.000 OA
ATOM     10  C   UNL     1       2.718   2.996  18.424  0.00  0.00    +0.000 A 
ATOM     11  C   UNL     1       1.606   2.184  18.616  0.00  0.00    +0.000 A 
ATOM     12  C   UNL     1       0.626   2.579  19.526  0.00  0.00    +0.000 A 
ATOM     13  C   UNL     1       0.761   3.782  20.224  0.00  0.00    +0.000 A 
ATOM     14  C   UNL     1       1.936   4.531  20.115  0.00  0.00    +0.000 A 
ATOM     15  C   UNL     1       2.943   4.101  19.259  0.00  0.00    +0.000 A 
ATOM     16  O   UNL     1       4.129   4.806  19.258  0.00  0.00    +0.000 OA
ENDBRANCH   6   7
BRANCH   3  17
ATOM     17  S   UNL     1       7.967   8.471  17.473  0.00  0.00    +0.000 S 
BRANCH  17  18
ATOM     18  C   UNL     1       8.717   8.957  19.057  0.00  0.00    +0.000 C 
BRANCH  18  19
ATOM     19  C   UNL     1       9.330  10.321  19.091  0.00  0.00    +0.000 A 
ATOM     20  C   UNL     1       9.621  11.142  18.017  0.00  0.00    +0.000 A 
ATOM     21  N   UNL     1      10.015  12.428  18.328  0.00  0.00    +0.000 NA
ATOM     22  C   UNL     1      10.062  12.590  19.635  0.00  0.00    +0.000 A 
ATOM     23  S   UNL     1       9.614  11.188  20.544  0.00  0.00    +0.000 S 
BRANCH  22  24
ATOM     24  C   UNL     1      10.402  13.867  20.294  0.00  0.00    +0.000 A 
ATOM     25  C   UNL     1      11.336  14.722  19.689  0.00  0.00    +0.000 A 
ATOM     26  C   UNL     1      11.704  15.936  20.289  0.00  0.00    +0.000 A 
ATOM     27  C   UNL     1      11.150  16.294  21.519  0.00  0.00    +0.000 A 
ATOM     28  C   UNL     1      10.230  15.450  22.139  0.00  0.00    +0.000 A 
ATOM     29  C   UNL     1       9.853  14.248  21.529  0.00  0.00    +0.000 A 
ENDBRANCH  22  24
ENDBRANCH  18  19
ENDBRANCH  17  18
ENDBRANCH   3  17
TORSDOF 5
ENDMDL
