MODEL 1
REMARK VINA RESULT:      -7.9      0.000      0.000
REMARK  Name = 
REMARK  5 active torsions:
REMARK  status: ('A' for Active; 'I' for Inactive)
REMARK    1  A    between atoms: C_1  and  C_2
REMARK    2  A    between atoms: C_10  and  C_11
REMARK    3  A    between atoms: C_11  and  C_13
REMARK    4  A    between atoms: C_13  and  N_14
REMARK    5  A    between atoms: C_18  and  C_19
REMARK                            x       y       z     vdW  Elec       q    Type
REMARK                         _______ _______ _______ _____ _____    ______ ____
ROOT
ATOM      1  C   UNL     1       7.128   5.951  17.708  0.00  0.00    +0.000 C 
ATOM      2  C   UNL     1       6.808   5.366  16.381  0.00  0.00    +0.000 A 
ATOM      3  N   UNL     1       7.602   5.696  15.311  0.00  0.00    +0.000 N 
ATOM      4  C   UNL     1       7.211   5.040  14.177  0.00  0.00    +0.000 A 
ATOM      5  C   UNL     1       7.758   5.097  12.889  0.00  0.00    +0.000 A 
ATOM      6  C   UNL     1       7.162   4.319  11.898  0.00  0.00    +0.000 A 
ATOM      7  C   UNL     1       6.065   3.515  12.194  0.00  0.00    +0.000 A 
ATOM      8  C   UNL     1       5.531   3.474  13.494  0.00  0.00    +0.000 A 
ATOM      9  C   UNL     1       6.111   4.257  14.523  0.00  0.00    +0.000 A 
ATOM     10  C   UNL     1       5.826   4.480  15.929  0.00  0.00    +0.000 A 
ATOM     11  H   UNL     1       8.389   6.331  15.347  0.00  0.00    +0.000 HD
ENDROOT
BRANCH  10  12
ATOM     12  C   UNL     1       4.713   3.862  16.712  0.00  0.00    +0.000 C 
ATOM     13  O   UNL     1       4.585   2.638  16.739  0.00  0.00    +0.000 OA
BRANCH  12  14
ATOM     14  C   UNL     1       3.706   4.750  17.485  0.00  0.00    +0.000 C 
BRANCH  14  15
ATOM     15  N   UNL     1       3.892   4.649  18.950  0.00  0.00    +0.000 NA
ATOM     16  C   UNL     1       3.698   5.925  19.645  0.00  0.00    +0.000 C 
ATOM     17  C   UNL     1       2.222   6.285  19.787  0.00  0.00    +0.000 C 
ATOM     18  C   UNL     1       1.538   5.257  20.669  0.00  0.00    +0.000 C 
ATOM     19  C   UNL     1       1.722   3.838  20.117  0.00  0.00    +0.000 C 
ATOM     20  C   UNL     1       1.318   2.844  21.219  0.00  0.00    +0.000 C 
ATOM     21  C   UNL     1       3.163   3.558  19.615  0.00  0.00    +0.000 C 
ENDBRANCH  14  15
ENDBRANCH  12  14
ENDBRANCH  10  12
TORSDOF 3
ENDMDL
MODEL 2
REMARK VINA RESULT:      -7.4      1.731      6.659
REMARK  Name = 
REMARK  5 active torsions:
REMARK  status: ('A' for Active; 'I' for Inactive)
REMARK    1  A    between atoms: C_1  and  C_2
REMARK    2  A    between atoms: C_10  and  C_11
REMARK    3  A    between atoms: C_11  and  C_13
REMARK    4  A    between atoms: C_13  and  N_14
REMARK    5  A    between atoms: C_18  and  C_19
REMARK                            x       y       z     vdW  Elec       q    Type
REMARK                         _______ _______ _______ _____ _____    ______ ____
ROOT
ATOM      1  C   UNL     1       2.315   3.158  21.274  0.00  0.00    +0.000 C 
ATOM      2  C   UNL     1       2.245   4.394  20.454  0.00  0.00    +0.000 A 
ATOM      3  N   UNL     1       1.906   5.571  21.072  0.00  0.00    +0.000 N 
ATOM      4  C   UNL     1       1.934   6.621  20.196  0.00  0.00    +0.000 A 
ATOM      5  C   UNL     1       1.661   7.975  20.429  0.00  0.00    +0.000 A 
ATOM      6  C   UNL     1       1.762   8.850  19.350  0.00  0.00    +0.000 A 
ATOM      7  C   UNL     1       2.127   8.382  18.091  0.00  0.00    +0.000 A 
ATOM      8  C   UNL     1       2.397   7.018  17.879  0.00  0.00    +0.000 A 
ATOM      9  C   UNL     1       2.297   6.102  18.955  0.00  0.00    +0.000 A 
ATOM     10  C   UNL     1       2.472   4.668  19.102  0.00  0.00    +0.000 A 
ATOM     11  H   UNL     1       1.678   5.667  22.053  0.00  0.00    +0.000 HD
ENDROOT
BRANCH  10  12
ATOM     12  C   UNL     1       2.836   3.707  18.017  0.00  0.00    +0.000 C 
ATOM     13  O   UNL     1       1.967   3.004  17.501  0.00  0.00    +0.000 OA
BRANCH  12  14
ATOM     14  C   UNL     1       4.303   3.577  17.539  0.00  0.00    +0.000 C 
BRANCH  14  15
ATOM     15  N   UNL     1       4.710   4.716  16.687  0.00  0.00    +0.000 NA
ATOM     16  C   UNL     1       5.831   5.481  17.242  0.00  0.00    +0.000 C 
ATOM     17  C   UNL     1       7.167   4.768  17.048  0.00  0.00    +0.000 C 
ATOM     18  C   UNL     1       7.468   4.665  15.564  0.00  0.00    +0.000 C 
ATOM     19  C   UNL     1       6.336   3.954  14.814  0.00  0.00    +0.000 C 
ATOM     20  C   UNL     1       6.540   4.193  13.309  0.00  0.00    +0.000 C 
ATOM     21  C   UNL     1       4.922   4.409  15.264  0.00  0.00    +0.000 C 
ENDBRANCH  14  15
ENDBRANCH  12  14
ENDBRANCH  10  12
TORSDOF 3
ENDMDL
MODEL 3
REMARK VINA RESULT:      -7.4      2.150      6.303
REMARK  Name = 
REMARK  5 active torsions:
REMARK  status: ('A' for Active; 'I' for Inactive)
REMARK    1  A    between atoms: C_1  and  C_2
REMARK    2  A    between atoms: C_10  and  C_11
REMARK    3  A    between atoms: C_11  and  C_13
REMARK    4  A    between atoms: C_13  and  N_14
REMARK    5  A    between atoms: C_18  and  C_19
REMARK                            x       y       z     vdW  Elec       q    Type
REMARK                         _______ _______ _______ _____ _____    ______ ____
ROOT
ATOM      1  C   UNL     1       2.108   3.093  21.673  0.00  0.00    +0.000 C 
ATOM      2  C   UNL     1       2.172   4.255  20.751  0.00  0.00    +0.000 A 
ATOM      3  N   UNL     1       1.779   5.485  21.219  0.00  0.00    +0.000 N 
ATOM      4  C   UNL     1       1.944   6.456  20.270  0.00  0.00    +0.000 A 
ATOM      5  C   UNL     1       1.670   7.827  20.351  0.00  0.00    +0.000 A 
ATOM      6  C   UNL     1       1.931   8.606  19.226  0.00  0.00    +0.000 A 
ATOM      7  C   UNL     1       2.449   8.029  18.071  0.00  0.00    +0.000 A 
ATOM      8  C   UNL     1       2.716   6.650  18.010  0.00  0.00    +0.000 A 
ATOM      9  C   UNL     1       2.456   5.829  19.135  0.00  0.00    +0.000 A 
ATOM     10  C   UNL     1       2.581   4.412  19.424  0.00  0.00    +0.000 A 
ATOM     11  H   UNL     1       1.425   5.665  22.149  0.00  0.00    +0.000 HD
ENDROOT
BRANCH  10  12
ATOM     12  C   UNL     1       3.066   3.359  18.480  0.00  0.00    +0.000 C 
ATOM     13  O   UNL     1       3.114   2.183  18.843  0.00  0.00    +0.000 OA
BRANCH  12  14
ATOM     14  C   UNL     1       3.521   3.732  17.048  0.00  0.00    +0.000 C 
BRANCH  14  15
ATOM     15  N   UNL     1       4.991   3.652  16.897  0.00  0.00    +0.000 NA
ATOM     16  C   UNL     1       5.469   4.184  15.618  0.00  0.00    +0.000 C 
ATOM     17  C   UNL     1       5.481   5.710  15.597  0.00  0.00    +0.000 C 
ATOM     18  C   UNL     1       6.478   6.217  16.624  0.00  0.00    +0.000 C 
ATOM     19  C   UNL     1       6.162   5.675  18.022  0.00  0.00    +0.000 C 
ATOM     20  C   UNL     1       7.383   5.936  18.920  0.00  0.00    +0.000 C 
ATOM     21  C   UNL     1       5.781   4.171  18.025  0.00  0.00    +0.000 C 
ENDBRANCH  14  15
ENDBRANCH  12  14
ENDBRANCH  10  12
TORSDOF 3
ENDMDL
MODEL 4
REMARK VINA RESULT:      -7.3      1.461      1.800
REMARK  Name = 
REMARK  5 active torsions:
REMARK  status: ('A' for Active; 'I' for Inactive)
REMARK    1  A    between atoms: C_1  and  C_2
REMARK    2  A    between atoms: C_10  and  C_11
REMARK    3  A    between atoms: C_11  and  C_13
REMARK    4  A    between atoms: C_13  and  N_14
REMARK    5  A    between atoms: C_18  and  C_19
REMARK                            x       y       z     vdW  Elec       q    Type
REMARK                         _______ _______ _______ _____ _____    ______ ____
ROOT
ATOM      1  C   UNL     1       7.800   6.890  18.325  0.00  0.00    +0.000 C 
ATOM      2  C   UNL     1       7.267   6.027  17.241  0.00  0.00    +0.000 A 
ATOM      3  N   UNL     1       7.687   6.257  15.954  0.00  0.00    +0.000 N 
ATOM      4  C   UNL     1       7.146   5.351  15.084  0.00  0.00    +0.000 A 
ATOM      5  C   UNL     1       7.327   5.239  13.699  0.00  0.00    +0.000 A 
ATOM      6  C   UNL     1       6.652   4.213  13.040  0.00  0.00    +0.000 A 
ATOM      7  C   UNL     1       5.834   3.337  13.746  0.00  0.00    +0.000 A 
ATOM      8  C   UNL     1       5.667   3.467  15.136  0.00  0.00    +0.000 A 
ATOM      9  C   UNL     1       6.335   4.503  15.835  0.00  0.00    +0.000 A 
ATOM     10  C   UNL     1       6.383   4.945  17.217  0.00  0.00    +0.000 A 
ATOM     11  H   UNL     1       8.325   6.989  15.675  0.00  0.00    +0.000 HD
ENDROOT
BRANCH  10  12
ATOM     12  C   UNL     1       5.639   4.338  18.363  0.00  0.00    +0.000 C 
ATOM     13  O   UNL     1       6.148   4.320  19.485  0.00  0.00    +0.000 OA
BRANCH  12  14
ATOM     14  C   UNL     1       4.236   3.718  18.154  0.00  0.00    +0.000 C 
BRANCH  14  15
ATOM     15  N   UNL     1       3.205   4.399  18.967  0.00  0.00    +0.000 NA
ATOM     16  C   UNL     1       1.951   4.620  18.241  0.00  0.00    +0.000 C 
ATOM     17  C   UNL     1       1.118   3.346  18.126  0.00  0.00    +0.000 C 
ATOM     18  C   UNL     1       0.689   2.902  19.513  0.00  0.00    +0.000 C 
ATOM     19  C   UNL     1       1.897   2.706  20.435  0.00  0.00    +0.000 C 
ATOM     20  C   UNL     1       1.381   2.603  21.879  0.00  0.00    +0.000 C 
ATOM     21  C   UNL     1       2.959   3.829  20.301  0.00  0.00    +0.000 C 
ENDBRANCH  14  15
ENDBRANCH  12  14
ENDBRANCH  10  12
TORSDOF 3
ENDMDL
MODEL 5
REMARK VINA RESULT:      -7.3      1.601      2.275
REMARK  Name = 
REMARK  5 active torsions:
REMARK  status: ('A' for Active; 'I' for Inactive)
REMARK    1  A    between atoms: C_1  and  C_2
REMARK    2  A    between atoms: C_10  and  C_11
REMARK    3  A    between atoms: C_11  and  C_13
REMARK    4  A    between atoms: C_13  and  N_14
REMARK    5  A    between atoms: C_18  and  C_19
REMARK                            x       y       z     vdW  Elec       q    Type
REMARK                         _______ _______ _______ _____ _____    ______ ____
ROOT
ATOM      1  C   UNL     1       8.078   7.685  18.240  0.00  0.00    +0.000 C 
ATOM      2  C   UNL     1       7.366   6.633  17.472  0.00  0.00    +0.000 A 
ATOM      3  N   UNL     1       7.631   6.508  16.130  0.00  0.00    +0.000 N 
ATOM      4  C   UNL     1       6.937   5.467  15.579  0.00  0.00    +0.000 A 
ATOM      5  C   UNL     1       6.934   5.009  14.255  0.00  0.00    +0.000 A 
ATOM      6  C   UNL     1       6.126   3.915  13.952  0.00  0.00    +0.000 A 
ATOM      7  C   UNL     1       5.358   3.307  14.939  0.00  0.00    +0.000 A 
ATOM      8  C   UNL     1       5.375   3.784  16.262  0.00  0.00    +0.000 A 
ATOM      9  C   UNL     1       6.181   4.898  16.602  0.00  0.00    +0.000 A 
ATOM     10  C   UNL     1       6.428   5.656  17.816  0.00  0.00    +0.000 A 
ATOM     11  H   UNL     1       8.268   7.095  15.608  0.00  0.00    +0.000 HD
ENDROOT
BRANCH  10  12
ATOM     12  C   UNL     1       5.804   5.410  19.152  0.00  0.00    +0.000 C 
ATOM     13  O   UNL     1       6.513   5.133  20.120  0.00  0.00    +0.000 OA
BRANCH  12  14
ATOM     14  C   UNL     1       4.268   5.487  19.331  0.00  0.00    +0.000 C 
BRANCH  14  15
ATOM     15  N   UNL     1       3.739   4.324  20.076  0.00  0.00    +0.000 NA
ATOM     16  C   UNL     1       2.748   4.691  21.092  0.00  0.00    +0.000 C 
ATOM     17  C   UNL     1       1.385   5.006  20.479  0.00  0.00    +0.000 C 
ATOM     18  C   UNL     1       0.827   3.753  19.829  0.00  0.00    +0.000 C 
ATOM     19  C   UNL     1       1.797   3.186  18.787  0.00  0.00    +0.000 C 
ATOM     20  C   UNL     1       1.337   1.762  18.434  0.00  0.00    +0.000 C 
ATOM     21  C   UNL     1       3.275   3.194  19.257  0.00  0.00    +0.000 C 
ENDBRANCH  14  15
ENDBRANCH  12  14
ENDBRANCH  10  12
TORSDOF 3
ENDMDL
MODEL 6
REMARK VINA RESULT:      -7.3      2.457      3.891
REMARK  Name = 
REMARK  5 active torsions:
REMARK  status: ('A' for Active; 'I' for Inactive)
REMARK    1  A    between atoms: C_1  and  C_2
REMARK    2  A    between atoms: C_10  and  C_11
REMARK    3  A    between atoms: C_11  and  C_13
REMARK    4  A    between atoms: C_13  and  N_14
REMARK    5  A    between atoms: C_18  and  C_19
REMARK                            x       y       z     vdW  Elec       q    Type
REMARK                         _______ _______ _______ _____ _____    ______ ____
ROOT
ATOM      1  C   UNL     1       3.799   2.748  20.369  0.00  0.00    +0.000 C 
ATOM      2  C   UNL     1       4.337   3.488  19.201  0.00  0.00    +0.000 A 
ATOM      3  N   UNL     1       5.699   3.595  19.063  0.00  0.00    +0.000 N 
ATOM      4  C   UNL     1       6.035   4.259  17.916  0.00  0.00    +0.000 A 
ATOM      5  C   UNL     1       7.305   4.567  17.412  0.00  0.00    +0.000 A 
ATOM      6  C   UNL     1       7.370   5.262  16.206  0.00  0.00    +0.000 A 
ATOM      7  C   UNL     1       6.207   5.627  15.535  0.00  0.00    +0.000 A 
ATOM      8  C   UNL     1       4.942   5.308  16.060  0.00  0.00    +0.000 A 
ATOM      9  C   UNL     1       4.841   4.607  17.286  0.00  0.00    +0.000 A 
ATOM     10  C   UNL     1       3.744   4.141  18.116  0.00  0.00    +0.000 A 
ATOM     11  H   UNL     1       6.378   3.221  19.712  0.00  0.00    +0.000 HD
ENDROOT
BRANCH  10  12
ATOM     12  C   UNL     1       2.287   4.323  17.837  0.00  0.00    +0.000 C 
ATOM     13  O   UNL     1       1.624   3.384  17.396  0.00  0.00    +0.000 OA
BRANCH  12  14
ATOM     14  C   UNL     1       1.601   5.689  18.085  0.00  0.00    +0.000 C 
BRANCH  14  15
ATOM     15  N   UNL     1       2.499   6.640  18.777  0.00  0.00    +0.000 NA
ATOM     16  C   UNL     1       2.823   7.819  17.969  0.00  0.00    +0.000 C 
ATOM     17  C   UNL     1       1.675   8.824  17.929  0.00  0.00    +0.000 C 
ATOM     18  C   UNL     1       1.435   9.367  19.327  0.00  0.00    +0.000 C 
ATOM     19  C   UNL     1       1.161   8.236  20.324  0.00  0.00    +0.000 C 
ATOM     20  C   UNL     1       1.276   8.817  21.744  0.00  0.00    +0.000 C 
ATOM     21  C   UNL     1       2.103   7.017  20.143  0.00  0.00    +0.000 C 
ENDBRANCH  14  15
ENDBRANCH  12  14
ENDBRANCH  10  12
TORSDOF 3
ENDMDL
MODEL 7
REMARK VINA RESULT:      -7.2      2.089      6.414
REMARK  Name = 
REMARK  5 active torsions:
REMARK  status: ('A' for Active; 'I' for Inactive)
REMARK    1  A    between atoms: C_1  and  C_2
REMARK    2  A    between atoms: C_10  and  C_11
REMARK    3  A    between atoms: C_11  and  C_13
REMARK    4  A    between atoms: C_13  and  N_14
REMARK    5  A    between atoms: C_18  and  C_19
REMARK                            x       y       z     vdW  Elec       q    Type
REMARK                         _______ _______ _______ _____ _____    ______ ____
ROOT
ATOM      1  C   UNL     1       1.563   7.442  20.829  0.00  0.00    +0.000 C 
ATOM      2  C   UNL     1       1.809   6.183  20.082  0.00  0.00    +0.000 A 
ATOM      3  N   UNL     1       1.088   5.066  20.424  0.00  0.00    +0.000 N 
ATOM      4  C   UNL     1       1.394   4.007  19.614  0.00  0.00    +0.000 A 
ATOM      5  C   UNL     1       0.878   2.705  19.630  0.00  0.00    +0.000 A 
ATOM      6  C   UNL     1       1.366   1.805  18.684  0.00  0.00    +0.000 A 
ATOM      7  C   UNL     1       2.326   2.203  17.759  0.00  0.00    +0.000 A 
ATOM      8  C   UNL     1       2.830   3.516  17.761  0.00  0.00    +0.000 A 
ATOM      9  C   UNL     1       2.360   4.452  18.714  0.00  0.00    +0.000 A 
ATOM     10  C   UNL     1       2.655   5.840  19.023  0.00  0.00    +0.000 A 
ATOM     11  H   UNL     1       0.405   5.023  21.168  0.00  0.00    +0.000 HD
ENDROOT
BRANCH  10  12
ATOM     12  C   UNL     1       3.652   6.707  18.324  0.00  0.00    +0.000 C 
ATOM     13  O   UNL     1       3.272   7.685  17.680  0.00  0.00    +0.000 OA
BRANCH  12  14
ATOM     14  C   UNL     1       5.164   6.379  18.391  0.00  0.00    +0.000 C 
BRANCH  14  15
ATOM     15  N   UNL     1       5.833   6.590  17.088  0.00  0.00    +0.000 NA
ATOM     16  C   UNL     1       7.272   6.315  17.127  0.00  0.00    +0.000 C 
ATOM     17  C   UNL     1       7.573   4.818  17.117  0.00  0.00    +0.000 C 
ATOM     18  C   UNL     1       7.100   4.221  15.804  0.00  0.00    +0.000 C 
ATOM     19  C   UNL     1       5.611   4.499  15.569  0.00  0.00    +0.000 C 
ATOM     20  C   UNL     1       5.295   4.181  14.098  0.00  0.00    +0.000 C 
ATOM     21  C   UNL     1       5.194   5.950  15.928  0.00  0.00    +0.000 C 
ENDBRANCH  14  15
ENDBRANCH  12  14
ENDBRANCH  10  12
TORSDOF 3
ENDMDL
MODEL 8
REMARK VINA RESULT:      -7.2      1.119      1.142
REMARK  Name = 
REMARK  5 active torsions:
REMARK  status: ('A' for Active; 'I' for Inactive)
REMARK    1  A    between atoms: C_1  and  C_2
REMARK    2  A    between atoms: C_10  and  C_11
REMARK    3  A    between atoms: C_11  and  C_13
REMARK    4  A    between atoms: C_13  and  N_14
REMARK    5  A    between atoms: C_18  and  C_19
REMARK                            x       y       z     vdW  Elec       q    Type
REMARK                         _______ _______ _______ _____ _____    ______ ____
ROOT
ATOM      1  C   UNL     1       7.295   6.473  17.635  0.00  0.00    +0.000 C 
ATOM      2  C   UNL     1       6.765   5.803  16.421  0.00  0.00    +0.000 A 
ATOM      3  N   UNL     1       7.625   5.562  15.378  0.00  0.00    +0.000 N 
ATOM      4  C   UNL     1       7.000   4.896  14.359  0.00  0.00    +0.000 A 
ATOM      5  C   UNL     1       7.523   4.464  13.134  0.00  0.00    +0.000 A 
ATOM      6  C   UNL     1       6.662   3.800  12.262  0.00  0.00    +0.000 A 
ATOM      7  C   UNL     1       5.333   3.579  12.611  0.00  0.00    +0.000 A 
ATOM      8  C   UNL     1       4.829   4.023  13.847  0.00  0.00    +0.000 A 
ATOM      9  C   UNL     1       5.677   4.705  14.753  0.00  0.00    +0.000 A 
ATOM     10  C   UNL     1       5.508   5.308  16.063  0.00  0.00    +0.000 A 
ATOM     11  H   UNL     1       8.601   5.824  15.359  0.00  0.00    +0.000 HD
ENDROOT
BRANCH  10  12
ATOM     12  C   UNL     1       4.240   5.360  16.854  0.00  0.00    +0.000 C 
ATOM     13  O   UNL     1       3.652   6.432  17.003  0.00  0.00    +0.000 OA
BRANCH  12  14
ATOM     14  C   UNL     1       3.660   4.078  17.500  0.00  0.00    +0.000 C 
BRANCH  14  15
ATOM     15  N   UNL     1       4.042   3.956  18.924  0.00  0.00    +0.000 NA
ATOM     16  C   UNL     1       4.127   5.249  19.611  0.00  0.00    +0.000 C 
ATOM     17  C   UNL     1       2.749   5.808  19.957  0.00  0.00    +0.000 C 
ATOM     18  C   UNL     1       2.069   4.886  20.951  0.00  0.00    +0.000 C 
ATOM     19  C   UNL     1       1.977   3.454  20.411  0.00  0.00    +0.000 C 
ATOM     20  C   UNL     1       1.607   2.528  21.581  0.00  0.00    +0.000 C 
ATOM     21  C   UNL     1       3.277   2.978  19.713  0.00  0.00    +0.000 C 
ENDBRANCH  14  15
ENDBRANCH  12  14
ENDBRANCH  10  12
TORSDOF 3
ENDMDL
MODEL 9
REMARK VINA RESULT:      -7.2      1.729      2.479
REMARK  Name = 
REMARK  5 active torsions:
REMARK  status: ('A' for Active; 'I' for Inactive)
REMARK    1  A    between atoms: C_1  and  C_2
REMARK    2  A    between atoms: C_10  and  C_11
REMARK    3  A    between atoms: C_11  and  C_13
REMARK    4  A    between atoms: C_13  and  N_14
REMARK    5  A    between atoms: C_18  and  C_19
REMARK                            x       y       z     vdW  Elec       q    Type
REMARK                         _______ _______ _______ _____ _____    ______ ____
ROOT
ATOM      1  C   UNL     1       8.072   7.665  18.260  0.00  0.00    +0.000 C 
ATOM      2  C   UNL     1       7.414   6.592  17.473  0.00  0.00    +0.000 A 
ATOM      3  N   UNL     1       7.618   6.555  16.116  0.00  0.00    +0.000 N 
ATOM      4  C   UNL     1       6.988   5.484  15.546  0.00  0.00    +0.000 A 
ATOM      5  C   UNL     1       6.955   5.090  14.201  0.00  0.00    +0.000 A 
ATOM      6  C   UNL     1       6.229   3.944  13.881  0.00  0.00    +0.000 A 
ATOM      7  C   UNL     1       5.569   3.225  14.872  0.00  0.00    +0.000 A 
ATOM      8  C   UNL     1       5.615   3.638  16.215  0.00  0.00    +0.000 A 
ATOM      9  C   UNL     1       6.339   4.802  16.573  0.00  0.00    +0.000 A 
ATOM     10  C   UNL     1       6.583   5.520  17.811  0.00  0.00    +0.000 A 
ATOM     11  H   UNL     1       8.174   7.220  15.595  0.00  0.00    +0.000 HD
ENDROOT
BRANCH  10  12
ATOM     12  C   UNL     1       6.053   5.156  19.161  0.00  0.00    +0.000 C 
ATOM     13  O   UNL     1       6.831   4.989  20.102  0.00  0.00    +0.000 OA
BRANCH  12  14
ATOM     14  C   UNL     1       4.533   4.975  19.389  0.00  0.00    +0.000 C 
BRANCH  14  15
ATOM     15  N   UNL     1       4.088   3.599  19.077  0.00  0.00    +0.000 NA
ATOM     16  C   UNL     1       4.239   2.674  20.205  0.00  0.00    +0.000 C 
ATOM     17  C   UNL     1       3.147   2.863  21.255  0.00  0.00    +0.000 C 
ATOM     18  C   UNL     1       1.801   2.514  20.646  0.00  0.00    +0.000 C 
ATOM     19  C   UNL     1       1.525   3.347  19.389  0.00  0.00    +0.000 C 
ATOM     20  C   UNL     1       0.339   2.708  18.647  0.00  0.00    +0.000 C 
ATOM     21  C   UNL     1       2.759   3.479  18.458  0.00  0.00    +0.000 C 
ENDBRANCH  14  15
ENDBRANCH  12  14
ENDBRANCH  10  12
TORSDOF 3
ENDMDL
