MODEL 1
REMARK VINA RESULT:      -9.7      0.000      0.000
REMARK  Name = 
REMARK  7 active torsions:
REMARK  status: ('A' for Active; 'I' for Inactive)
REMARK    1  A    between atoms: C_1  and  O_2
REMARK    2  A    between atoms: O_2  and  C_3
REMARK    3  A    between atoms: C_5  and  C_6
REMARK    4  A    between atoms: C_10  and  C_11
REMARK    5  A    between atoms: C_16  and  N_17
REMARK    6  A    between atoms: C_24  and  S_25
REMARK    7  A    between atoms: S_25  and  N_28
REMARK                            x       y       z     vdW  Elec       q    Type
REMARK                         _______ _______ _______ _____ _____    ______ ____
ROOT
ATOM      1  N   UNL     1       0.014  11.687  19.955  0.00  0.00    +0.000 N 
ATOM      2  C   UNL     1       0.690  12.551  20.894  0.00  0.00    +0.000 A 
ATOM      3  O   UNL     1       1.863  12.559  21.209  0.00  0.00    +0.000 OA
ATOM      4  C   UNL     1      -0.235  13.500  21.597  0.00  0.00    +0.000 A 
ATOM      5  C   UNL     1      -0.989  12.671  22.343  0.00  0.00    +0.000 A 
ATOM      6  C   UNL     1      -2.016  12.151  21.438  0.00  0.00    +0.000 A 
ATOM      7  C   UNL     1      -3.341  12.569  21.756  0.00  0.00    +0.000 A 
ATOM      8  C   UNL     1      -4.253  12.727  20.738  0.00  0.00    +0.000 A 
ATOM      9  C   UNL     1      -3.834  12.367  19.435  0.00  0.00    +0.000 A 
ATOM     10  C   UNL     1      -2.494  11.827  19.153  0.00  0.00    +0.000 A 
ATOM     11  C   UNL     1      -1.520  11.670  20.168  0.00  0.00    +0.000 A 
ENDROOT
BRANCH   1  17
ATOM     12  C   UNL     1       1.053   9.311  20.296  0.00  0.00    +0.000 A 
ATOM     13  C   UNL     1       1.705   8.092  19.797  0.00  0.00    +0.000 A 
ATOM     14  C   UNL     1       2.264   7.945  18.514  0.00  0.00    +0.000 A 
ATOM     15  C   UNL     1       2.052   9.115  17.739  0.00  0.00    +0.000 A 
ATOM     16  C   UNL     1       1.402  10.353  18.224  0.00  0.00    +0.000 A 
ATOM     17  C   UNL     1       0.910  10.523  19.536  0.00  0.00    +0.000 A 
BRANCH  14  18
ATOM     18  C   UNL     1       3.060   6.675  18.054  0.00  0.00    +0.000 A 
ATOM     19  C   UNL     1       2.553   5.356  18.179  0.00  0.00    +0.000 A 
ATOM     20  C   UNL     1       3.234   4.196  17.692  0.00  0.00    +0.000 A 
ATOM     21  C   UNL     1       4.470   4.300  17.057  0.00  0.00    +0.000 A 
ATOM     22  C   UNL     1       5.033   5.576  16.921  0.00  0.00    +0.000 A 
ATOM     23  C   UNL     1       4.338   6.724  17.413  0.00  0.00    +0.000 A 
BRANCH  22  24
ATOM     24  C   UNL     1       6.319   5.706  16.262  0.00  0.00    +0.000 C 
ATOM     25  N   UNL     1       7.336   5.796  15.742  0.00  0.00    +0.000 NA
ENDBRANCH  22  24
ENDBRANCH  14  18
BRANCH  12  27
ATOM     26  C   UNL     1      -0.426   8.745  22.079  0.00  0.00    +0.000 C 
ATOM     27  O   UNL     1       0.842   9.231  21.662  0.00  0.00    +0.000 OA
ENDBRANCH  12  27
ENDBRANCH   1  17
BRANCH   8  28
ATOM     28  S   UNL     1      -5.894  13.356  21.161  0.00  0.00    +0.000 S 
ATOM     29  O   UNL     1      -6.129  13.116  22.567  0.00  0.00    +0.000 OA
ATOM     30  O   UNL     1      -5.951  14.698  20.608  0.00  0.00    +0.000 OA
BRANCH  28  31
ATOM     31  N   UNL     1      -7.068  12.507  20.291  0.00  0.00    +0.000 N 
ATOM     32  C   UNL     1      -7.219  11.133  20.316  0.00  0.00    +0.000 A 
ATOM     33  C   UNL     1      -7.917  10.364  21.272  0.00  0.00    +0.000 A 
ATOM     34  C   UNL     1      -7.889   9.091  20.759  0.00  0.00    +0.000 A 
ATOM     35  O   UNL     1      -7.259   9.103  19.558  0.00  0.00    +0.000 OA
ATOM     36  N   UNL     1      -6.879  10.399  19.255  0.00  0.00    +0.000 NA
ATOM     37  H   UNL     1      -7.231  12.935  19.381  0.00  0.00    +0.000 HD
ENDBRANCH  28  31
ENDBRANCH   8  28
TORSDOF 6
ENDMDL
MODEL 2
REMARK VINA RESULT:      -8.9      1.966      3.094
REMARK  Name = 
REMARK  7 active torsions:
REMARK  status: ('A' for Active; 'I' for Inactive)
REMARK    1  A    between atoms: C_1  and  O_2
REMARK    2  A    between atoms: O_2  and  C_3
REMARK    3  A    between atoms: C_5  and  C_6
REMARK    4  A    between atoms: C_10  and  C_11
REMARK    5  A    between atoms: C_16  and  N_17
REMARK    6  A    between atoms: C_24  and  S_25
REMARK    7  A    between atoms: S_25  and  N_28
REMARK                            x       y       z     vdW  Elec       q    Type
REMARK                         _______ _______ _______ _____ _____    ______ ____
ROOT
ATOM      1  N   UNL     1       0.199  11.544  19.919  0.00  0.00    +0.000 N 
ATOM      2  C   UNL     1       0.960  12.413  20.786  0.00  0.00    +0.000 A 
ATOM      3  O   UNL     1       2.144  12.372  21.052  0.00  0.00    +0.000 OA
ATOM      4  C   UNL     1       0.117  13.443  21.479  0.00  0.00    +0.000 A 
ATOM      5  C   UNL     1      -0.646  12.692  22.295  0.00  0.00    +0.000 A 
ATOM      6  C   UNL     1      -1.737  12.186  21.460  0.00  0.00    +0.000 A 
ATOM      7  C   UNL     1      -3.024  12.691  21.811  0.00  0.00    +0.000 A 
ATOM      8  C   UNL     1      -3.970  12.850  20.824  0.00  0.00    +0.000 A 
ATOM      9  C   UNL     1      -3.628  12.406  19.525  0.00  0.00    +0.000 A 
ATOM     10  C   UNL     1      -2.331  11.782  19.215  0.00  0.00    +0.000 A 
ATOM     11  C   UNL     1      -1.323  11.620  20.195  0.00  0.00    +0.000 A 
ENDROOT
BRANCH   1  17
ATOM     12  C   UNL     1       1.142   9.141  20.343  0.00  0.00    +0.000 A 
ATOM     13  C   UNL     1       1.706   7.865  19.883  0.00  0.00    +0.000 A 
ATOM     14  C   UNL     1       2.184   7.617  18.583  0.00  0.00    +0.000 A 
ATOM     15  C   UNL     1       1.983   8.752  17.753  0.00  0.00    +0.000 A 
ATOM     16  C   UNL     1       1.421  10.046  18.198  0.00  0.00    +0.000 A 
ATOM     17  C   UNL     1       1.014  10.314  19.522  0.00  0.00    +0.000 A 
BRANCH  14  18
ATOM     18  C   UNL     1       2.892   6.285  18.156  0.00  0.00    +0.000 A 
ATOM     19  C   UNL     1       2.192   5.068  17.949  0.00  0.00    +0.000 A 
ATOM     20  C   UNL     1       2.813   3.867  17.484  0.00  0.00    +0.000 A 
ATOM     21  C   UNL     1       4.179   3.822  17.208  0.00  0.00    +0.000 A 
ATOM     22  C   UNL     1       4.928   4.988  17.412  0.00  0.00    +0.000 A 
ATOM     23  C   UNL     1       4.291   6.180  17.876  0.00  0.00    +0.000 A 
BRANCH  22  24
ATOM     24  C   UNL     1       6.351   4.962  17.129  0.00  0.00    +0.000 C 
ATOM     25  N   UNL     1       7.476   4.946  16.916  0.00  0.00    +0.000 NA
ENDBRANCH  22  24
ENDBRANCH  14  18
BRANCH  12  27
ATOM     26  C   UNL     1      -0.277   8.819  22.232  0.00  0.00    +0.000 C 
ATOM     27  O   UNL     1       1.007   9.149  21.722  0.00  0.00    +0.000 OA
ENDBRANCH  12  27
ENDBRANCH   1  17
BRANCH   8  28
ATOM     28  S   UNL     1      -5.555  13.587  21.283  0.00  0.00    +0.000 S 
ATOM     29  O   UNL     1      -6.428  13.551  20.131  0.00  0.00    +0.000 OA
ATOM     30  O   UNL     1      -5.934  12.951  22.532  0.00  0.00    +0.000 OA
BRANCH  28  31
ATOM     31  N   UNL     1      -5.326  15.207  21.704  0.00  0.00    +0.000 N 
ATOM     32  C   UNL     1      -5.052  15.651  22.984  0.00  0.00    +0.000 A 
ATOM     33  C   UNL     1      -3.795  15.703  23.624  0.00  0.00    +0.000 A 
ATOM     34  C   UNL     1      -4.050  16.353  24.806  0.00  0.00    +0.000 A 
ATOM     35  O   UNL     1      -5.357  16.709  24.852  0.00  0.00    +0.000 OA
ATOM     36  N   UNL     1      -5.980  16.309  23.682  0.00  0.00    +0.000 NA
ATOM     37  H   UNL     1      -5.941  15.816  21.167  0.00  0.00    +0.000 HD
ENDBRANCH  28  31
ENDBRANCH   8  28
TORSDOF 6
ENDMDL
MODEL 3
REMARK VINA RESULT:      -8.8      2.356      3.517
REMARK  Name = 
REMARK  7 active torsions:
REMARK  status: ('A' for Active; 'I' for Inactive)
REMARK    1  A    between atoms: C_1  and  O_2
REMARK    2  A    between atoms: O_2  and  C_3
REMARK    3  A    between atoms: C_5  and  C_6
REMARK    4  A    between atoms: C_10  and  C_11
REMARK    5  A    between atoms: C_16  and  N_17
REMARK    6  A    between atoms: C_24  and  S_25
REMARK    7  A    between atoms: S_25  and  N_28
REMARK                            x       y       z     vdW  Elec       q    Type
REMARK                         _______ _______ _______ _____ _____    ______ ____
ROOT
ATOM      1  N   UNL     1      -0.004  11.868  20.217  0.00  0.00    +0.000 N 
ATOM      2  C   UNL     1       0.734  12.716  21.124  0.00  0.00    +0.000 A 
ATOM      3  O   UNL     1       1.927  12.732  21.348  0.00  0.00    +0.000 OA
ATOM      4  C   UNL     1      -0.145  13.635  21.921  0.00  0.00    +0.000 A 
ATOM      5  C   UNL     1      -0.830  12.777  22.701  0.00  0.00    +0.000 A 
ATOM      6  C   UNL     1      -1.918  12.267  21.864  0.00  0.00    +0.000 A 
ATOM      7  C   UNL     1      -3.219  12.660  22.294  0.00  0.00    +0.000 A 
ATOM      8  C   UNL     1      -4.209  12.831  21.354  0.00  0.00    +0.000 A 
ATOM      9  C   UNL     1      -3.888  12.509  20.014  0.00  0.00    +0.000 A 
ATOM     10  C   UNL     1      -2.567  11.994  19.615  0.00  0.00    +0.000 A 
ATOM     11  C   UNL     1      -1.516  11.825  20.547  0.00  0.00    +0.000 A 
ENDROOT
BRANCH   1  17
ATOM     12  C   UNL     1       1.035   9.472  20.385  0.00  0.00    +0.000 A 
ATOM     13  C   UNL     1       1.662   8.282  19.795  0.00  0.00    +0.000 A 
ATOM     14  C   UNL     1       2.173   8.205  18.486  0.00  0.00    +0.000 A 
ATOM     15  C   UNL     1       1.937   9.418  17.786  0.00  0.00    +0.000 A 
ATOM     16  C   UNL     1       1.312  10.629  18.364  0.00  0.00    +0.000 A 
ATOM     17  C   UNL     1       0.870  10.726  19.700  0.00  0.00    +0.000 A 
BRANCH  14  18
ATOM     18  C   UNL     1       2.944   6.961  17.926  0.00  0.00    +0.000 A 
ATOM     19  C   UNL     1       4.253   7.040  17.384  0.00  0.00    +0.000 A 
ATOM     20  C   UNL     1       4.998   5.901  16.943  0.00  0.00    +0.000 A 
ATOM     21  C   UNL     1       4.461   4.617  17.017  0.00  0.00    +0.000 A 
ATOM     22  C   UNL     1       3.163   4.476  17.525  0.00  0.00    +0.000 A 
ATOM     23  C   UNL     1       2.434   5.625  17.962  0.00  0.00    +0.000 A 
BRANCH  22  24
ATOM     24  C   UNL     1       2.587   3.147  17.611  0.00  0.00    +0.000 C 
ATOM     25  N   UNL     1       2.141   2.095  17.688  0.00  0.00    +0.000 NA
ENDBRANCH  22  24
ENDBRANCH  14  18
BRANCH  12  27
ATOM     26  C   UNL     1      -0.367   8.782  22.186  0.00  0.00    +0.000 C 
ATOM     27  O   UNL     1       0.875   9.316  21.752  0.00  0.00    +0.000 OA
ENDBRANCH  12  27
ENDBRANCH   1  17
BRANCH   8  28
ATOM     28  S   UNL     1      -5.819  13.428  21.918  0.00  0.00    +0.000 S 
ATOM     29  O   UNL     1      -6.190  14.573  21.118  0.00  0.00    +0.000 OA
ATOM     30  O   UNL     1      -6.668  12.252  21.986  0.00  0.00    +0.000 OA
BRANCH  28  31
ATOM     31  N   UNL     1      -5.702  13.940  23.525  0.00  0.00    +0.000 N 
ATOM     32  C   UNL     1      -5.308  15.205  23.916  0.00  0.00    +0.000 A 
ATOM     33  C   UNL     1      -6.107  16.364  24.004  0.00  0.00    +0.000 A 
ATOM     34  C   UNL     1      -5.279  17.298  24.577  0.00  0.00    +0.000 A 
ATOM     35  O   UNL     1      -4.081  16.726  24.856  0.00  0.00    +0.000 OA
ATOM     36  N   UNL     1      -4.114  15.393  24.483  0.00  0.00    +0.000 NA
ATOM     37  H   UNL     1      -5.370  13.187  24.125  0.00  0.00    +0.000 HD
ENDBRANCH  28  31
ENDBRANCH   8  28
TORSDOF 6
ENDMDL
MODEL 4
REMARK VINA RESULT:      -8.7      3.568      5.786
REMARK  Name = 
REMARK  7 active torsions:
REMARK  status: ('A' for Active; 'I' for Inactive)
REMARK    1  A    between atoms: C_1  and  O_2
REMARK    2  A    between atoms: O_2  and  C_3
REMARK    3  A    between atoms: C_5  and  C_6
REMARK    4  A    between atoms: C_10  and  C_11
REMARK    5  A    between atoms: C_16  and  N_17
REMARK    6  A    between atoms: C_24  and  S_25
REMARK    7  A    between atoms: S_25  and  N_28
REMARK                            x       y       z     vdW  Elec       q    Type
REMARK                         _______ _______ _______ _____ _____    ______ ____
ROOT
ATOM      1  N   UNL     1       0.295  11.022  19.666  0.00  0.00    +0.000 N 
ATOM      2  C   UNL     1      -1.018  10.848  19.089  0.00  0.00    +0.000 A 
ATOM      3  O   UNL     1      -1.479   9.874  18.529  0.00  0.00    +0.000 OA
ATOM      4  C   UNL     1      -1.861  12.087  19.155  0.00  0.00    +0.000 A 
ATOM      5  C   UNL     1      -1.209  12.927  18.329  0.00  0.00    +0.000 A 
ATOM      6  C   UNL     1      -0.112  13.486  19.121  0.00  0.00    +0.000 A 
ATOM      7  C   UNL     1      -0.228  14.884  19.374  0.00  0.00    +0.000 A 
ATOM      8  C   UNL     1       0.286  15.396  20.543  0.00  0.00    +0.000 A 
ATOM      9  C   UNL     1       0.987  14.500  21.385  0.00  0.00    +0.000 A 
ATOM     10  C   UNL     1       1.192  13.083  21.043  0.00  0.00    +0.000 A 
ATOM     11  C   UNL     1       0.661  12.514  19.861  0.00  0.00    +0.000 A 
ENDROOT
BRANCH   1  17
ATOM     12  C   UNL     1       1.375   8.666  20.026  0.00  0.00    +0.000 A 
ATOM     13  C   UNL     1       2.064   7.463  19.541  0.00  0.00    +0.000 A 
ATOM     14  C   UNL     1       2.659   7.332  18.272  0.00  0.00    +0.000 A 
ATOM     15  C   UNL     1       2.440   8.500  17.495  0.00  0.00    +0.000 A 
ATOM     16  C   UNL     1       1.753   9.722  17.966  0.00  0.00    +0.000 A 
ATOM     17  C   UNL     1       1.225   9.878  19.266  0.00  0.00    +0.000 A 
BRANCH  14  18
ATOM     18  C   UNL     1       3.492   6.080  17.829  0.00  0.00    +0.000 A 
ATOM     19  C   UNL     1       3.111   4.748  18.135  0.00  0.00    +0.000 A 
ATOM     20  C   UNL     1       3.819   3.595  17.670  0.00  0.00    +0.000 A 
ATOM     21  C   UNL     1       4.956   3.720  16.874  0.00  0.00    +0.000 A 
ATOM     22  C   UNL     1       5.394   5.013  16.553  0.00  0.00    +0.000 A 
ATOM     23  C   UNL     1       4.673   6.153  17.026  0.00  0.00    +0.000 A 
BRANCH  22  24
ATOM     24  C   UNL     1       6.575   5.164  15.724  0.00  0.00    +0.000 C 
ATOM     25  N   UNL     1       7.503   5.277  15.062  0.00  0.00    +0.000 NA
ENDBRANCH  22  24
ENDBRANCH  14  18
BRANCH  12  27
ATOM     26  C   UNL     1      -0.224   8.429  21.779  0.00  0.00    +0.000 C 
ATOM     27  O   UNL     1       1.133   8.578  21.387  0.00  0.00    +0.000 OA
ENDBRANCH  12  27
ENDBRANCH   1  17
BRANCH   8  28
ATOM     28  S   UNL     1       0.033  17.153  20.882  0.00  0.00    +0.000 S 
ATOM     29  O   UNL     1      -1.289  17.522  20.432  0.00  0.00    +0.000 OA
ATOM     30  O   UNL     1       0.438  17.346  22.263  0.00  0.00    +0.000 OA
BRANCH  28  31
ATOM     31  N   UNL     1       1.150  18.066  20.000  0.00  0.00    +0.000 N 
ATOM     32  C   UNL     1       1.323  17.980  18.632  0.00  0.00    +0.000 A 
ATOM     33  C   UNL     1       0.573  18.631  17.629  0.00  0.00    +0.000 A 
ATOM     34  C   UNL     1       1.240  18.330  16.467  0.00  0.00    +0.000 A 
ATOM     35  O   UNL     1       2.338  17.590  16.756  0.00  0.00    +0.000 OA
ATOM     36  N   UNL     1       2.418  17.409  18.126  0.00  0.00    +0.000 NA
ATOM     37  H   UNL     1       2.010  18.203  20.529  0.00  0.00    +0.000 HD
ENDBRANCH  28  31
ENDBRANCH   8  28
TORSDOF 6
ENDMDL
MODEL 5
REMARK VINA RESULT:      -8.7      2.108      2.941
REMARK  Name = 
REMARK  7 active torsions:
REMARK  status: ('A' for Active; 'I' for Inactive)
REMARK    1  A    between atoms: C_1  and  O_2
REMARK    2  A    between atoms: O_2  and  C_3
REMARK    3  A    between atoms: C_5  and  C_6
REMARK    4  A    between atoms: C_10  and  C_11
REMARK    5  A    between atoms: C_16  and  N_17
REMARK    6  A    between atoms: C_24  and  S_25
REMARK    7  A    between atoms: S_25  and  N_28
REMARK                            x       y       z     vdW  Elec       q    Type
REMARK                         _______ _______ _______ _____ _____    ______ ____
ROOT
ATOM      1  N   UNL     1       0.004  11.113  18.834  0.00  0.00    +0.000 N 
ATOM      2  C   UNL     1       0.524  12.273  19.520  0.00  0.00    +0.000 A 
ATOM      3  O   UNL     1       1.641  12.458  19.959  0.00  0.00    +0.000 OA
ATOM      4  C   UNL     1      -0.510  13.334  19.755  0.00  0.00    +0.000 A 
ATOM      5  C   UNL     1      -1.343  12.738  20.630  0.00  0.00    +0.000 A 
ATOM      6  C   UNL     1      -2.222  11.891  19.821  0.00  0.00    +0.000 A 
ATOM      7  C   UNL     1      -3.588  12.301  19.818  0.00  0.00    +0.000 A 
ATOM      8  C   UNL     1      -4.352  12.067  18.698  0.00  0.00    +0.000 A 
ATOM      9  C   UNL     1      -3.748  11.339  17.646  0.00  0.00    +0.000 A 
ATOM     10  C   UNL     1      -2.370  10.826  17.724  0.00  0.00    +0.000 A 
ATOM     11  C   UNL     1      -1.544  11.064  18.848  0.00  0.00    +0.000 A 
ENDROOT
BRANCH   1  17
ATOM     12  C   UNL     1       1.079   9.080  20.081  0.00  0.00    +0.000 A 
ATOM     13  C   UNL     1       1.817   7.810  20.103  0.00  0.00    +0.000 A 
ATOM     14  C   UNL     1       2.507   7.259  19.006  0.00  0.00    +0.000 A 
ATOM     15  C   UNL     1       2.335   8.068  17.852  0.00  0.00    +0.000 A 
ATOM     16  C   UNL     1       1.600   9.351  17.810  0.00  0.00    +0.000 A 
ATOM     17  C   UNL     1       0.975   9.937  18.931  0.00  0.00    +0.000 A 
BRANCH  14  18
ATOM     18  C   UNL     1       3.385   5.964  19.094  0.00  0.00    +0.000 A 
ATOM     19  C   UNL     1       2.948   4.774  19.731  0.00  0.00    +0.000 A 
ATOM     20  C   UNL     1       3.707   3.561  19.750  0.00  0.00    +0.000 A 
ATOM     21  C   UNL     1       4.954   3.482  19.132  0.00  0.00    +0.000 A 
ATOM     22  C   UNL     1       5.449   4.632  18.502  0.00  0.00    +0.000 A 
ATOM     23  C   UNL     1       4.676   5.834  18.492  0.00  0.00    +0.000 A 
BRANCH  22  24
ATOM     24  C   UNL     1       6.744   4.569  17.852  0.00  0.00    +0.000 C 
ATOM     25  N   UNL     1       7.763   4.511  17.332  0.00  0.00    +0.000 NA
ENDBRANCH  22  24
ENDBRANCH  14  18
BRANCH  12  27
ATOM     26  C   UNL     1      -0.427   8.871  21.917  0.00  0.00    +0.000 C 
ATOM     27  O   UNL     1       0.736   9.470  21.365  0.00  0.00    +0.000 OA
ENDBRANCH  12  27
ENDBRANCH   1  17
BRANCH   8  28
ATOM     28  S   UNL     1      -6.049  12.689  18.685  0.00  0.00    +0.000 S 
ATOM     29  O   UNL     1      -6.679  12.279  17.451  0.00  0.00    +0.000 OA
ATOM     30  O   UNL     1      -6.609  12.321  19.974  0.00  0.00    +0.000 OA
BRANCH  28  31
ATOM     31  N   UNL     1      -6.033  14.379  18.718  0.00  0.00    +0.000 N 
ATOM     32  C   UNL     1      -6.164  15.141  19.864  0.00  0.00    +0.000 A 
ATOM     33  C   UNL     1      -5.152  15.492  20.781  0.00  0.00    +0.000 A 
ATOM     34  C   UNL     1      -5.770  16.366  21.641  0.00  0.00    +0.000 A 
ATOM     35  O   UNL     1      -7.051  16.561  21.240  0.00  0.00    +0.000 OA
ATOM     36  N   UNL     1      -7.287  15.825  20.092  0.00  0.00    +0.000 NA
ATOM     37  H   UNL     1      -6.495  14.766  17.896  0.00  0.00    +0.000 HD
ENDBRANCH  28  31
ENDBRANCH   8  28
TORSDOF 6
ENDMDL
MODEL 6
REMARK VINA RESULT:      -8.6      3.805     10.999
REMARK  Name = 
REMARK  7 active torsions:
REMARK  status: ('A' for Active; 'I' for Inactive)
REMARK    1  A    between atoms: C_1  and  O_2
REMARK    2  A    between atoms: O_2  and  C_3
REMARK    3  A    between atoms: C_5  and  C_6
REMARK    4  A    between atoms: C_10  and  C_11
REMARK    5  A    between atoms: C_16  and  N_17
REMARK    6  A    between atoms: C_24  and  S_25
REMARK    7  A    between atoms: S_25  and  N_28
REMARK                            x       y       z     vdW  Elec       q    Type
REMARK                         _______ _______ _______ _____ _____    ______ ____
ROOT
ATOM      1  N   UNL     1       0.510  10.893  20.167  0.00  0.00    +0.000 N 
ATOM      2  C   UNL     1       1.114  11.874  19.297  0.00  0.00    +0.000 A 
ATOM      3  O   UNL     1       0.811  13.039  19.139  0.00  0.00    +0.000 OA
ATOM      4  C   UNL     1       2.214  11.311  18.446  0.00  0.00    +0.000 A 
ATOM      5  C   UNL     1       1.550  10.465  17.635  0.00  0.00    +0.000 A 
ATOM      6  C   UNL     1       1.362   9.239  18.414  0.00  0.00    +0.000 A 
ATOM      7  C   UNL     1       2.074   8.111  17.910  0.00  0.00    +0.000 A 
ATOM      8  C   UNL     1       2.520   7.155  18.793  0.00  0.00    +0.000 A 
ATOM      9  C   UNL     1       2.155   7.310  20.151  0.00  0.00    +0.000 A 
ATOM     10  C   UNL     1       1.319   8.426  20.626  0.00  0.00    +0.000 A 
ATOM     11  C   UNL     1       0.859   9.441  19.755  0.00  0.00    +0.000 A 
ENDROOT
BRANCH   1  17
ATOM     12  C   UNL     1      -1.023  11.681  22.136  0.00  0.00    +0.000 A 
ATOM     13  C   UNL     1      -2.185  12.402  22.671  0.00  0.00    +0.000 A 
ATOM     14  C   UNL     1      -3.235  12.927  21.895  0.00  0.00    +0.000 A 
ATOM     15  C   UNL     1      -2.983  12.725  20.512  0.00  0.00    +0.000 A 
ATOM     16  C   UNL     1      -1.821  11.998  19.954  0.00  0.00    +0.000 A 
ATOM     17  C   UNL     1      -0.810  11.407  20.740  0.00  0.00    +0.000 A 
BRANCH  14  18
ATOM     18  C   UNL     1      -4.521  13.585  22.504  0.00  0.00    +0.000 A 
ATOM     19  C   UNL     1      -5.786  12.943  22.520  0.00  0.00    +0.000 A 
ATOM     20  C   UNL     1      -6.948  13.499  23.142  0.00  0.00    +0.000 A 
ATOM     21  C   UNL     1      -6.902  14.738  23.779  0.00  0.00    +0.000 A 
ATOM     22  C   UNL     1      -5.684  15.430  23.779  0.00  0.00    +0.000 A 
ATOM     23  C   UNL     1      -4.533  14.859  23.153  0.00  0.00    +0.000 A 
BRANCH  22  24
ATOM     24  C   UNL     1      -5.615  16.721  24.438  0.00  0.00    +0.000 C 
ATOM     25  N   UNL     1      -5.570  17.744  24.951  0.00  0.00    +0.000 NA
ENDBRANCH  22  24
ENDBRANCH  14  18
BRANCH  12  27
ATOM     26  C   UNL     1      -0.515   9.676  23.323  0.00  0.00    +0.000 C 
ATOM     27  O   UNL     1      -0.311  11.072  23.156  0.00  0.00    +0.000 OA
ENDBRANCH  12  27
ENDBRANCH   1  17
BRANCH   8  28
ATOM     28  S   UNL     1       3.507   5.791  18.136  0.00  0.00    +0.000 S 
ATOM     29  O   UNL     1       4.527   5.456  19.103  0.00  0.00    +0.000 OA
ATOM     30  O   UNL     1       2.548   4.800  17.681  0.00  0.00    +0.000 OA
BRANCH  28  31
ATOM     31  N   UNL     1       4.284   6.285  16.718  0.00  0.00    +0.000 N 
ATOM     32  C   UNL     1       5.504   5.799  16.285  0.00  0.00    +0.000 A 
ATOM     33  C   UNL     1       5.746   4.618  15.554  0.00  0.00    +0.000 A 
ATOM     34  C   UNL     1       7.085   4.680  15.255  0.00  0.00    +0.000 A 
ATOM     35  O   UNL     1       7.600   5.840  15.733  0.00  0.00    +0.000 OA
ATOM     36  N   UNL     1       6.592   6.569  16.341  0.00  0.00    +0.000 NA
ATOM     37  H   UNL     1       4.138   7.278  16.548  0.00  0.00    +0.000 HD
ENDBRANCH  28  31
ENDBRANCH   8  28
TORSDOF 6
ENDMDL
MODEL 7
REMARK VINA RESULT:      -8.6      4.806     11.539
REMARK  Name = 
REMARK  7 active torsions:
REMARK  status: ('A' for Active; 'I' for Inactive)
REMARK    1  A    between atoms: C_1  and  O_2
REMARK    2  A    between atoms: O_2  and  C_3
REMARK    3  A    between atoms: C_5  and  C_6
REMARK    4  A    between atoms: C_10  and  C_11
REMARK    5  A    between atoms: C_16  and  N_17
REMARK    6  A    between atoms: C_24  and  S_25
REMARK    7  A    between atoms: S_25  and  N_28
REMARK                            x       y       z     vdW  Elec       q    Type
REMARK                         _______ _______ _______ _____ _____    ______ ____
ROOT
ATOM      1  N   UNL     1       2.275   6.903  19.261  0.00  0.00    +0.000 N 
ATOM      2  C   UNL     1       1.910   5.672  19.923  0.00  0.00    +0.000 A 
ATOM      3  O   UNL     1       1.108   5.500  20.819  0.00  0.00    +0.000 OA
ATOM      4  C   UNL     1       2.704   4.490  19.452  0.00  0.00    +0.000 A 
ATOM      5  C   UNL     1       3.945   4.783  19.886  0.00  0.00    +0.000 A 
ATOM      6  C   UNL     1       4.502   5.704  18.894  0.00  0.00    +0.000 A 
ATOM      7  C   UNL     1       5.602   5.175  18.157  0.00  0.00    +0.000 A 
ATOM      8  C   UNL     1       5.795   5.587  16.859  0.00  0.00    +0.000 A 
ATOM      9  C   UNL     1       4.932   6.595  16.367  0.00  0.00    +0.000 A 
ATOM     10  C   UNL     1       3.876   7.208  17.190  0.00  0.00    +0.000 A 
ATOM     11  C   UNL     1       3.631   6.796  18.521  0.00  0.00    +0.000 A 
ENDROOT
BRANCH   1  17
ATOM     12  C   UNL     1       1.192   9.283  19.349  0.00  0.00    +0.000 A 
ATOM     13  C   UNL     1       0.426  10.340  20.023  0.00  0.00    +0.000 A 
ATOM     14  C   UNL     1       0.091  10.345  21.391  0.00  0.00    +0.000 A 
ATOM     15  C   UNL     1       0.536   9.151  22.018  0.00  0.00    +0.000 A 
ATOM     16  C   UNL     1       1.311   8.078  21.357  0.00  0.00    +0.000 A 
ATOM     17  C   UNL     1       1.711   8.113  20.005  0.00  0.00    +0.000 A 
BRANCH  14  18
ATOM     18  C   UNL     1      -0.622  11.544  22.106  0.00  0.00    +0.000 A 
ATOM     19  C   UNL     1      -0.164  12.884  22.014  0.00  0.00    +0.000 A 
ATOM     20  C   UNL     1      -0.849  13.997  22.596  0.00  0.00    +0.000 A 
ATOM     21  C   UNL     1      -2.032  13.821  23.310  0.00  0.00    +0.000 A 
ATOM     22  C   UNL     1      -2.525  12.517  23.453  0.00  0.00    +0.000 A 
ATOM     23  C   UNL     1      -1.828  11.417  22.864  0.00  0.00    +0.000 A 
BRANCH  22  24
ATOM     24  C   UNL     1      -3.757  12.313  24.193  0.00  0.00    +0.000 C 
ATOM     25  N   UNL     1      -4.724  12.141  24.781  0.00  0.00    +0.000 NA
ENDBRANCH  22  24
ENDBRANCH  14  18
BRANCH  12  27
ATOM     26  C   UNL     1       2.162  10.979  17.982  0.00  0.00    +0.000 C 
ATOM     27  O   UNL     1       1.577   9.689  18.082  0.00  0.00    +0.000 OA
ENDBRANCH  12  27
ENDBRANCH   1  17
BRANCH   8  28
ATOM     28  S   UNL     1       7.136   4.822  15.918  0.00  0.00    +0.000 S 
ATOM     29  O   UNL     1       7.668   5.802  14.999  0.00  0.00    +0.000 OA
ATOM     30  O   UNL     1       7.985   4.177  16.904  0.00  0.00    +0.000 OA
BRANCH  28  31
ATOM     31  N   UNL     1       6.526   3.538  15.004  0.00  0.00    +0.000 N 
ATOM     32  C   UNL     1       6.136   3.635  13.682  0.00  0.00    +0.000 A 
ATOM     33  C   UNL     1       6.958   3.559  12.538  0.00  0.00    +0.000 A 
ATOM     34  C   UNL     1       6.071   3.562  11.489  0.00  0.00    +0.000 A 
ATOM     35  O   UNL     1       4.804   3.591  11.972  0.00  0.00    +0.000 OA
ATOM     36  N   UNL     1       4.843   3.588  13.356  0.00  0.00    +0.000 NA
ATOM     37  H   UNL     1       5.943   2.927  15.574  0.00  0.00    +0.000 HD
ENDBRANCH  28  31
ENDBRANCH   8  28
TORSDOF 6
ENDMDL
MODEL 8
REMARK VINA RESULT:      -8.6      2.194      2.626
REMARK  Name = 
REMARK  7 active torsions:
REMARK  status: ('A' for Active; 'I' for Inactive)
REMARK    1  A    between atoms: C_1  and  O_2
REMARK    2  A    between atoms: O_2  and  C_3
REMARK    3  A    between atoms: C_5  and  C_6
REMARK    4  A    between atoms: C_10  and  C_11
REMARK    5  A    between atoms: C_16  and  N_17
REMARK    6  A    between atoms: C_24  and  S_25
REMARK    7  A    between atoms: S_25  and  N_28
REMARK                            x       y       z     vdW  Elec       q    Type
REMARK                         _______ _______ _______ _____ _____    ______ ____
ROOT
ATOM      1  N   UNL     1       0.014  12.133  20.207  0.00  0.00    +0.000 N 
ATOM      2  C   UNL     1       0.904  13.177  20.657  0.00  0.00    +0.000 A 
ATOM      3  O   UNL     1       2.114  13.154  20.755  0.00  0.00    +0.000 OA
ATOM      4  C   UNL     1       0.184  14.410  21.118  0.00  0.00    +0.000 A 
ATOM      5  C   UNL     1      -0.456  13.977  22.221  0.00  0.00    +0.000 A 
ATOM      6  C   UNL     1      -1.664  13.306  21.738  0.00  0.00    +0.000 A 
ATOM      7  C   UNL     1      -2.879  13.960  22.097  0.00  0.00    +0.000 A 
ATOM      8  C   UNL     1      -3.961  13.870  21.251  0.00  0.00    +0.000 A 
ATOM      9  C   UNL     1      -3.820  13.043  20.111  0.00  0.00    +0.000 A 
ATOM     10  C   UNL     1      -2.590  12.286  19.825  0.00  0.00    +0.000 A 
ATOM     11  C   UNL     1      -1.449  12.369  20.658  0.00  0.00    +0.000 A 
ENDROOT
BRANCH   1  17
ATOM     12  C   UNL     1       0.836   9.837  21.155  0.00  0.00    +0.000 A 
ATOM     13  C   UNL     1       1.317   8.458  20.990  0.00  0.00    +0.000 A 
ATOM     14  C   UNL     1       1.744   7.894  19.773  0.00  0.00    +0.000 A 
ATOM     15  C   UNL     1       1.582   8.820  18.709  0.00  0.00    +0.000 A 
ATOM     16  C   UNL     1       1.104  10.213  18.855  0.00  0.00    +0.000 A 
ATOM     17  C   UNL     1       0.749  10.798  20.089  0.00  0.00    +0.000 A 
BRANCH  14  18
ATOM     18  C   UNL     1       2.365   6.460  19.651  0.00  0.00    +0.000 A 
ATOM     19  C   UNL     1       3.363   6.126  18.700  0.00  0.00    +0.000 A 
ATOM     20  C   UNL     1       3.994   4.844  18.630  0.00  0.00    +0.000 A 
ATOM     21  C   UNL     1       3.649   3.822  19.514  0.00  0.00    +0.000 A 
ATOM     22  C   UNL     1       2.654   4.085  20.465  0.00  0.00    +0.000 A 
ATOM     23  C   UNL     1       2.036   5.372  20.521  0.00  0.00    +0.000 A 
BRANCH  22  24
ATOM     24  C   UNL     1       2.282   3.035  21.395  0.00  0.00    +0.000 C 
ATOM     25  N   UNL     1       1.981   2.214  22.134  0.00  0.00    +0.000 NA
ENDBRANCH  22  24
ENDBRANCH  14  18
BRANCH  12  27
ATOM     26  C   UNL     1      -0.405   9.682  23.185  0.00  0.00    +0.000 C 
ATOM     27  O   UNL     1       0.740  10.165  22.497  0.00  0.00    +0.000 OA
ENDBRANCH  12  27
ENDBRANCH   1  17
BRANCH   8  28
ATOM     28  S   UNL     1      -5.453  14.793  21.683  0.00  0.00    +0.000 S 
ATOM     29  O   UNL     1      -5.469  14.995  23.114  0.00  0.00    +0.000 OA
ATOM     30  O   UNL     1      -5.494  15.918  20.766  0.00  0.00    +0.000 OA
BRANCH  28  31
ATOM     31  N   UNL     1      -6.819  13.886  21.276  0.00  0.00    +0.000 N 
ATOM     32  C   UNL     1      -7.107  12.634  21.786  0.00  0.00    +0.000 A 
ATOM     33  C   UNL     1      -7.739  12.330  23.009  0.00  0.00    +0.000 A 
ATOM     34  C   UNL     1      -7.916  10.969  22.965  0.00  0.00    +0.000 A 
ATOM     35  O   UNL     1      -7.463  10.495  21.778  0.00  0.00    +0.000 OA
ATOM     36  N   UNL     1      -6.996  11.551  21.013  0.00  0.00    +0.000 NA
ATOM     37  H   UNL     1      -7.062  14.010  20.294  0.00  0.00    +0.000 HD
ENDBRANCH  28  31
ENDBRANCH   8  28
TORSDOF 6
ENDMDL
MODEL 9
REMARK VINA RESULT:      -8.6      1.788      3.054
REMARK  Name = 
REMARK  7 active torsions:
REMARK  status: ('A' for Active; 'I' for Inactive)
REMARK    1  A    between atoms: C_1  and  O_2
REMARK    2  A    between atoms: O_2  and  C_3
REMARK    3  A    between atoms: C_5  and  C_6
REMARK    4  A    between atoms: C_10  and  C_11
REMARK    5  A    between atoms: C_16  and  N_17
REMARK    6  A    between atoms: C_24  and  S_25
REMARK    7  A    between atoms: S_25  and  N_28
REMARK                            x       y       z     vdW  Elec       q    Type
REMARK                         _______ _______ _______ _____ _____    ______ ____
ROOT
ATOM      1  N   UNL     1       0.056  11.774  20.078  0.00  0.00    +0.000 N 
ATOM      2  C   UNL     1       0.786  12.640  20.973  0.00  0.00    +0.000 A 
ATOM      3  O   UNL     1       1.974  12.643  21.227  0.00  0.00    +0.000 OA
ATOM      4  C   UNL     1      -0.095  13.602  21.715  0.00  0.00    +0.000 A 
ATOM      5  C   UNL     1      -0.815  12.785  22.506  0.00  0.00    +0.000 A 
ATOM      6  C   UNL     1      -1.891  12.264  21.660  0.00  0.00    +0.000 A 
ATOM      7  C   UNL     1      -3.195  12.695  22.042  0.00  0.00    +0.000 A 
ATOM      8  C   UNL     1      -4.158  12.850  21.072  0.00  0.00    +0.000 A 
ATOM      9  C   UNL     1      -3.809  12.476  19.752  0.00  0.00    +0.000 A 
ATOM     10  C   UNL     1      -2.489  11.924  19.406  0.00  0.00    +0.000 A 
ATOM     11  C   UNL     1      -1.465  11.769  20.370  0.00  0.00    +0.000 A 
ENDROOT
BRANCH   1  17
ATOM     12  C   UNL     1       1.074   9.382  20.373  0.00  0.00    +0.000 A 
ATOM     13  C   UNL     1       1.692   8.157  19.848  0.00  0.00    +0.000 A 
ATOM     14  C   UNL     1       2.206   8.009  18.545  0.00  0.00    +0.000 A 
ATOM     15  C   UNL     1       1.983   9.186  17.783  0.00  0.00    +0.000 A 
ATOM     16  C   UNL     1       1.366  10.430  18.295  0.00  0.00    +0.000 A 
ATOM     17  C   UNL     1       0.922  10.600  19.624  0.00  0.00    +0.000 A 
BRANCH  14  18
ATOM     18  C   UNL     1       2.968   6.731  18.053  0.00  0.00    +0.000 A 
ATOM     19  C   UNL     1       2.404   5.429  18.092  0.00  0.00    +0.000 A 
ATOM     20  C   UNL     1       3.058   4.267  17.574  0.00  0.00    +0.000 A 
ATOM     21  C   UNL     1       4.322   4.350  16.992  0.00  0.00    +0.000 A 
ATOM     22  C   UNL     1       4.940   5.607  16.942  0.00  0.00    +0.000 A 
ATOM     23  C   UNL     1       4.272   6.757  17.464  0.00  0.00    +0.000 A 
BRANCH  22  24
ATOM     24  C   UNL     1       6.256   5.715  16.340  0.00  0.00    +0.000 C 
ATOM     25  N   UNL     1       7.299   5.796  15.875  0.00  0.00    +0.000 NA
ENDBRANCH  22  24
ENDBRANCH  14  18
BRANCH  12  27
ATOM     26  C   UNL     1      -0.357   8.846  22.203  0.00  0.00    +0.000 C 
ATOM     27  O   UNL     1       0.909   9.298  21.746  0.00  0.00    +0.000 OA
ENDBRANCH  12  27
ENDBRANCH   1  17
BRANCH   8  28
ATOM     28  S   UNL     1      -5.770  13.494  21.573  0.00  0.00    +0.000 S 
ATOM     29  O   UNL     1      -6.789  12.564  21.146  0.00  0.00    +0.000 OA
ATOM     30  O   UNL     1      -5.625  13.861  22.971  0.00  0.00    +0.000 OA
BRANCH  28  31
ATOM     31  N   UNL     1      -6.059  14.967  20.795  0.00  0.00    +0.000 N 
ATOM     32  C   UNL     1      -5.390  16.144  21.075  0.00  0.00    +0.000 A 
ATOM     33  C   UNL     1      -4.139  16.559  20.573  0.00  0.00    +0.000 A 
ATOM     34  C   UNL     1      -4.005  17.845  21.036  0.00  0.00    +0.000 A 
ATOM     35  O   UNL     1      -5.118  18.193  21.727  0.00  0.00    +0.000 OA
ATOM     36  N   UNL     1      -6.013  17.137  21.712  0.00  0.00    +0.000 NA
ATOM     37  H   UNL     1      -7.049  15.081  20.584  0.00  0.00    +0.000 HD
ENDBRANCH  28  31
ENDBRANCH   8  28
TORSDOF 6
ENDMDL
