MODEL 1
REMARK VINA RESULT:      -6.5      0.000      0.000
REMARK  Name = 
REMARK  8 active torsions:
REMARK  status: ('A' for Active; 'I' for Inactive)
REMARK    1  A    between atoms: C_1  and  C_2
REMARK    2  A    between atoms: N_4  and  C_5
REMARK    3  A    between atoms: C_6  and  C_7
REMARK    4  A    between atoms: C_8  and  C_9
REMARK    5  A    between atoms: C_9  and  N_10
REMARK    6  A    between atoms: N_10  and  C_11
REMARK    7  A    between atoms: N_10  and  C_12
REMARK    8  A    between atoms: C_17  and  C_18
REMARK                            x       y       z     vdW  Elec       q    Type
REMARK                         _______ _______ _______ _____ _____    ______ ____
ROOT
ATOM      1  N   UNL     1       4.150   5.917  17.728  0.00  0.00    +0.000 N 
ATOM      2  C   UNL     1       4.115   7.370  17.499  0.00  0.00    +0.000 C 
ENDROOT
BRANCH   1   3
ATOM      3  C   UNL     1       5.142   5.348  16.892  0.00  0.00    +0.000 A 
ATOM      4  N   UNL     1       4.861   5.116  15.584  0.00  0.00    +0.000 NA
ATOM      5  C   UNL     1       5.894   4.707  14.796  0.00  0.00    +0.000 A 
ATOM      6  C   UNL     1       7.182   4.524  15.269  0.00  0.00    +0.000 A 
ATOM      7  N   UNL     1       7.493   4.708  16.564  0.00  0.00    +0.000 NA
ATOM      8  C   UNL     1       6.453   5.112  17.362  0.00  0.00    +0.000 A 
BRANCH   8   9
ATOM      9  C   UNL     1       6.812   5.271  18.745  0.00  0.00    +0.000 C 
ATOM     10  N   UNL     1       7.106   5.415  19.859  0.00  0.00    +0.000 NA
ENDBRANCH   8   9
ENDBRANCH   1   3
BRANCH   1  11
ATOM     11  C   UNL     1       2.803   5.280  17.719  0.00  0.00    +0.000 C 
BRANCH  11  19
ATOM     12  C   UNL     1       3.562   1.967  17.612  0.00  0.00    +0.000 C 
ATOM     13  C   UNL     1       2.916   2.775  18.679  0.00  0.00    +0.000 A 
ATOM     14  N   UNL     1       2.581   2.127  19.799  0.00  0.00    +0.000 NA
ATOM     15  N   UNL     1       2.069   3.066  20.598  0.00  0.00    +0.000 N 
ATOM     16  C   UNL     1       1.627   2.679  21.918  0.00  0.00    +0.000 C 
ATOM     17  C   UNL     1       2.065   4.316  20.038  0.00  0.00    +0.000 A 
ATOM     18  C   UNL     1       1.592   5.525  20.750  0.00  0.00    +0.000 C 
ATOM     19  C   UNL     1       2.586   4.172  18.747  0.00  0.00    +0.000 A 
ENDBRANCH  11  19
ENDBRANCH   1  11
TORSDOF 4
ENDMDL
MODEL 2
REMARK VINA RESULT:      -6.4      1.412      2.394
REMARK  Name = 
REMARK  8 active torsions:
REMARK  status: ('A' for Active; 'I' for Inactive)
REMARK    1  A    between atoms: C_1  and  C_2
REMARK    2  A    between atoms: N_4  and  C_5
REMARK    3  A    between atoms: C_6  and  C_7
REMARK    4  A    between atoms: C_8  and  C_9
REMARK    5  A    between atoms: C_9  and  N_10
REMARK    6  A    between atoms: N_10  and  C_11
REMARK    7  A    between atoms: N_10  and  C_12
REMARK    8  A    between atoms: C_17  and  C_18
REMARK                            x       y       z     vdW  Elec       q    Type
REMARK                         _______ _______ _______ _____ _____    ______ ____
ROOT
ATOM      1  N   UNL     1       4.821   6.070  18.124  0.00  0.00    +0.000 N 
ATOM      2  C   UNL     1       3.573   6.665  17.623  0.00  0.00    +0.000 C 
ENDROOT
BRANCH   1   3
ATOM      3  C   UNL     1       5.550   5.550  17.027  0.00  0.00    +0.000 A 
ATOM      4  N   UNL     1       4.952   4.671  16.182  0.00  0.00    +0.000 NA
ATOM      5  C   UNL     1       5.649   4.319  15.065  0.00  0.00    +0.000 A 
ATOM      6  C   UNL     1       6.908   4.812  14.771  0.00  0.00    +0.000 A 
ATOM      7  N   UNL     1       7.549   5.656  15.598  0.00  0.00    +0.000 NA
ATOM      8  C   UNL     1       6.854   6.005  16.728  0.00  0.00    +0.000 A 
BRANCH   8   9
ATOM      9  C   UNL     1       7.579   6.885  17.605  0.00  0.00    +0.000 C 
ATOM     10  N   UNL     1       8.161   7.584  18.326  0.00  0.00    +0.000 NA
ENDBRANCH   8   9
ENDBRANCH   1   3
BRANCH   1  11
ATOM     11  C   UNL     1       4.624   5.172  19.298  0.00  0.00    +0.000 C 
BRANCH  11  19
ATOM     12  C   UNL     1       1.771   6.340  20.733  0.00  0.00    +0.000 C 
ATOM     13  C   UNL     1       2.045   5.057  20.038  0.00  0.00    +0.000 A 
ATOM     14  N   UNL     1       1.020   4.206  19.928  0.00  0.00    +0.000 NA
ATOM     15  N   UNL     1       1.507   3.170  19.240  0.00  0.00    +0.000 N 
ATOM     16  C   UNL     1       0.619   2.072  18.931  0.00  0.00    +0.000 C 
ATOM     17  C   UNL     1       2.821   3.318  18.888  0.00  0.00    +0.000 A 
ATOM     18  C   UNL     1       3.565   2.324  18.081  0.00  0.00    +0.000 C 
ATOM     19  C   UNL     1       3.239   4.542  19.425  0.00  0.00    +0.000 A 
ENDBRANCH  11  19
ENDBRANCH   1  11
TORSDOF 4
ENDMDL
MODEL 3
REMARK VINA RESULT:      -6.4      1.692      3.564
REMARK  Name = 
REMARK  8 active torsions:
REMARK  status: ('A' for Active; 'I' for Inactive)
REMARK    1  A    between atoms: C_1  and  C_2
REMARK    2  A    between atoms: N_4  and  C_5
REMARK    3  A    between atoms: C_6  and  C_7
REMARK    4  A    between atoms: C_8  and  C_9
REMARK    5  A    between atoms: C_9  and  N_10
REMARK    6  A    between atoms: N_10  and  C_11
REMARK    7  A    between atoms: N_10  and  C_12
REMARK    8  A    between atoms: C_17  and  C_18
REMARK                            x       y       z     vdW  Elec       q    Type
REMARK                         _______ _______ _______ _____ _____    ______ ____
ROOT
ATOM      1  N   UNL     1       4.472   3.418  18.278  0.00  0.00    +0.000 N 
ATOM      2  C   UNL     1       4.485   2.601  19.501  0.00  0.00    +0.000 C 
ENDROOT
BRANCH   1   3
ATOM      3  C   UNL     1       5.539   4.347  18.339  0.00  0.00    +0.000 A 
ATOM      4  N   UNL     1       5.933   4.835  19.543  0.00  0.00    +0.000 NA
ATOM      5  C   UNL     1       7.055   5.608  19.557  0.00  0.00    +0.000 A 
ATOM      6  C   UNL     1       7.785   5.904  18.419  0.00  0.00    +0.000 A 
ATOM      7  N   UNL     1       7.409   5.470  17.204  0.00  0.00    +0.000 NA
ATOM      8  C   UNL     1       6.275   4.699  17.185  0.00  0.00    +0.000 A 
BRANCH   8   9
ATOM      9  C   UNL     1       5.883   4.276  15.868  0.00  0.00    +0.000 C 
ATOM     10  N   UNL     1       5.583   3.929  14.801  0.00  0.00    +0.000 NA
ENDBRANCH   8   9
ENDBRANCH   1   3
BRANCH   1  11
ATOM     11  C   UNL     1       3.123   3.950  17.932  0.00  0.00    +0.000 C 
BRANCH  11  19
ATOM     12  C   UNL     1       1.417   3.435  20.828  0.00  0.00    +0.000 C 
ATOM     13  C   UNL     1       1.807   4.698  20.150  0.00  0.00    +0.000 A 
ATOM     14  N   UNL     1       1.458   5.836  20.760  0.00  0.00    +0.000 NA
ATOM     15  N   UNL     1       1.953   6.804  19.985  0.00  0.00    +0.000 N 
ATOM     16  C   UNL     1       1.761   8.177  20.394  0.00  0.00    +0.000 C 
ATOM     17  C   UNL     1       2.624   6.336  18.887  0.00  0.00    +0.000 A 
ATOM     18  C   UNL     1       3.300   7.219  17.909  0.00  0.00    +0.000 C 
ATOM     19  C   UNL     1       2.526   4.940  18.930  0.00  0.00    +0.000 A 
ENDBRANCH  11  19
ENDBRANCH   1  11
TORSDOF 4
ENDMDL
MODEL 4
REMARK VINA RESULT:      -6.3      0.723      1.960
REMARK  Name = 
REMARK  8 active torsions:
REMARK  status: ('A' for Active; 'I' for Inactive)
REMARK    1  A    between atoms: C_1  and  C_2
REMARK    2  A    between atoms: N_4  and  C_5
REMARK    3  A    between atoms: C_6  and  C_7
REMARK    4  A    between atoms: C_8  and  C_9
REMARK    5  A    between atoms: C_9  and  N_10
REMARK    6  A    between atoms: N_10  and  C_11
REMARK    7  A    between atoms: N_10  and  C_12
REMARK    8  A    between atoms: C_17  and  C_18
REMARK                            x       y       z     vdW  Elec       q    Type
REMARK                         _______ _______ _______ _____ _____    ______ ____
ROOT
ATOM      1  N   UNL     1       4.257   5.799  17.611  0.00  0.00    +0.000 N 
ATOM      2  C   UNL     1       4.037   7.220  17.303  0.00  0.00    +0.000 C 
ENDROOT
BRANCH   1   3
ATOM      3  C   UNL     1       5.291   5.307  16.778  0.00  0.00    +0.000 A 
ATOM      4  N   UNL     1       5.045   5.098  15.459  0.00  0.00    +0.000 NA
ATOM      5  C   UNL     1       6.111   4.767  14.679  0.00  0.00    +0.000 A 
ATOM      6  C   UNL     1       7.399   4.638  15.170  0.00  0.00    +0.000 A 
ATOM      7  N   UNL     1       7.678   4.802  16.475  0.00  0.00    +0.000 NA
ATOM      8  C   UNL     1       6.605   5.127  17.264  0.00  0.00    +0.000 A 
BRANCH   8   9
ATOM      9  C   UNL     1       6.932   5.265  18.658  0.00  0.00    +0.000 C 
ATOM     10  N   UNL     1       7.189   5.360  19.786  0.00  0.00    +0.000 NA
ENDBRANCH   8   9
ENDBRANCH   1   3
BRANCH   1  11
ATOM     11  C   UNL     1       2.998   5.003  17.678  0.00  0.00    +0.000 C 
BRANCH  11  19
ATOM     12  C   UNL     1       1.976   6.928  20.288  0.00  0.00    +0.000 C 
ATOM     13  C   UNL     1       2.103   5.453  20.170  0.00  0.00    +0.000 A 
ATOM     14  N   UNL     1       1.751   4.735  21.241  0.00  0.00    +0.000 NA
ATOM     15  N   UNL     1       1.913   3.463  20.869  0.00  0.00    +0.000 N 
ATOM     16  C   UNL     1       1.587   2.423  21.818  0.00  0.00    +0.000 C 
ATOM     17  C   UNL     1       2.354   3.323  19.581  0.00  0.00    +0.000 A 
ATOM     18  C   UNL     1       2.561   2.010  18.930  0.00  0.00    +0.000 C 
ATOM     19  C   UNL     1       2.531   4.619  19.081  0.00  0.00    +0.000 A 
ENDBRANCH  11  19
ENDBRANCH   1  11
TORSDOF 4
ENDMDL
MODEL 5
REMARK VINA RESULT:      -6.3      1.672      5.569
REMARK  Name = 
REMARK  8 active torsions:
REMARK  status: ('A' for Active; 'I' for Inactive)
REMARK    1  A    between atoms: C_1  and  C_2
REMARK    2  A    between atoms: N_4  and  C_5
REMARK    3  A    between atoms: C_6  and  C_7
REMARK    4  A    between atoms: C_8  and  C_9
REMARK    5  A    between atoms: C_9  and  N_10
REMARK    6  A    between atoms: N_10  and  C_11
REMARK    7  A    between atoms: N_10  and  C_12
REMARK    8  A    between atoms: C_17  and  C_18
REMARK                            x       y       z     vdW  Elec       q    Type
REMARK                         _______ _______ _______ _____ _____    ______ ____
ROOT
ATOM      1  N   UNL     1       3.876   2.790  18.237  0.00  0.00    +0.000 N 
ATOM      2  C   UNL     1       3.680   1.389  17.837  0.00  0.00    +0.000 C 
ENDROOT
BRANCH   1   3
ATOM      3  C   UNL     1       3.004   3.082  19.315  0.00  0.00    +0.000 A 
ATOM      4  N   UNL     1       1.863   3.780  19.082  0.00  0.00    +0.000 NA
ATOM      5  C   UNL     1       0.994   3.904  20.123  0.00  0.00    +0.000 A 
ATOM      6  C   UNL     1       1.228   3.359  21.374  0.00  0.00    +0.000 A 
ATOM      7  N   UNL     1       2.360   2.692  21.656  0.00  0.00    +0.000 NA
ATOM      8  C   UNL     1       3.241   2.573  20.611  0.00  0.00    +0.000 A 
BRANCH   8   9
ATOM      9  C   UNL     1       4.455   1.882  20.953  0.00  0.00    +0.000 C 
ATOM     10  N   UNL     1       5.444   1.338  21.226  0.00  0.00    +0.000 NA
ENDBRANCH   8   9
ENDBRANCH   1   3
BRANCH   1  11
ATOM     11  C   UNL     1       3.883   3.742  17.089  0.00  0.00    +0.000 C 
BRANCH  11  19
ATOM     12  C   UNL     1       5.998   4.110  14.453  0.00  0.00    +0.000 C 
ATOM     13  C   UNL     1       6.029   4.722  15.806  0.00  0.00    +0.000 A 
ATOM     14  N   UNL     1       7.030   5.572  16.055  0.00  0.00    +0.000 NA
ATOM     15  N   UNL     1       6.808   6.006  17.299  0.00  0.00    +0.000 N 
ATOM     16  C   UNL     1       7.722   6.975  17.861  0.00  0.00    +0.000 C 
ATOM     17  C   UNL     1       5.686   5.471  17.872  0.00  0.00    +0.000 A 
ATOM     18  C   UNL     1       5.210   5.838  19.225  0.00  0.00    +0.000 C 
ATOM     19  C   UNL     1       5.149   4.582  16.933  0.00  0.00    +0.000 A 
ENDBRANCH  11  19
ENDBRANCH   1  11
TORSDOF 4
ENDMDL
MODEL 6
REMARK VINA RESULT:      -6.2      1.698      3.658
REMARK  Name = 
REMARK  8 active torsions:
REMARK  status: ('A' for Active; 'I' for Inactive)
REMARK    1  A    between atoms: C_1  and  C_2
REMARK    2  A    between atoms: N_4  and  C_5
REMARK    3  A    between atoms: C_6  and  C_7
REMARK    4  A    between atoms: C_8  and  C_9
REMARK    5  A    between atoms: C_9  and  N_10
REMARK    6  A    between atoms: N_10  and  C_11
REMARK    7  A    between atoms: N_10  and  C_12
REMARK    8  A    between atoms: C_17  and  C_18
REMARK                            x       y       z     vdW  Elec       q    Type
REMARK                         _______ _______ _______ _____ _____    ______ ____
ROOT
ATOM      1  N   UNL     1       4.494   3.469  18.325  0.00  0.00    +0.000 N 
ATOM      2  C   UNL     1       4.432   2.683  19.566  0.00  0.00    +0.000 C 
ENDROOT
BRANCH   1   3
ATOM      3  C   UNL     1       5.605   4.344  18.394  0.00  0.00    +0.000 A 
ATOM      4  N   UNL     1       5.954   4.888  19.588  0.00  0.00    +0.000 NA
ATOM      5  C   UNL     1       7.114   5.602  19.624  0.00  0.00    +0.000 A 
ATOM      6  C   UNL     1       7.924   5.787  18.517  0.00  0.00    +0.000 A 
ATOM      7  N   UNL     1       7.597   5.295  17.310  0.00  0.00    +0.000 NA
ATOM      8  C   UNL     1       6.425   4.583  17.269  0.00  0.00    +0.000 A 
BRANCH   8   9
ATOM      9  C   UNL     1       6.088   4.097  15.957  0.00  0.00    +0.000 C 
ATOM     10  N   UNL     1       5.827   3.716  14.892  0.00  0.00    +0.000 NA
ENDBRANCH   8   9
ENDBRANCH   1   3
BRANCH   1  11
ATOM     11  C   UNL     1       3.184   4.060  17.927  0.00  0.00    +0.000 C 
BRANCH  11  19
ATOM     12  C   UNL     1       3.862   7.255  16.983  0.00  0.00    +0.000 C 
ATOM     13  C   UNL     1       3.130   6.734  18.166  0.00  0.00    +0.000 A 
ATOM     14  N   UNL     1       2.630   7.644  19.008  0.00  0.00    +0.000 NA
ATOM     15  N   UNL     1       1.996   6.933  19.943  0.00  0.00    +0.000 N 
ATOM     16  C   UNL     1       1.318   7.642  21.004  0.00  0.00    +0.000 C 
ATOM     17  C   UNL     1       2.058   5.581  19.736  0.00  0.00    +0.000 A 
ATOM     18  C   UNL     1       1.389   4.592  20.612  0.00  0.00    +0.000 C 
ATOM     19  C   UNL     1       2.832   5.392  18.585  0.00  0.00    +0.000 A 
ENDBRANCH  11  19
ENDBRANCH   1  11
TORSDOF 4
ENDMDL
MODEL 7
REMARK VINA RESULT:      -6.0      1.722      5.695
REMARK  Name = 
REMARK  8 active torsions:
REMARK  status: ('A' for Active; 'I' for Inactive)
REMARK    1  A    between atoms: C_1  and  C_2
REMARK    2  A    between atoms: N_4  and  C_5
REMARK    3  A    between atoms: C_6  and  C_7
REMARK    4  A    between atoms: C_8  and  C_9
REMARK    5  A    between atoms: C_9  and  N_10
REMARK    6  A    between atoms: N_10  and  C_11
REMARK    7  A    between atoms: N_10  and  C_12
REMARK    8  A    between atoms: C_17  and  C_18
REMARK                            x       y       z     vdW  Elec       q    Type
REMARK                         _______ _______ _______ _____ _____    ______ ____
ROOT
ATOM      1  N   UNL     1       3.784   2.920  18.245  0.00  0.00    +0.000 N 
ATOM      2  C   UNL     1       3.661   1.515  17.831  0.00  0.00    +0.000 C 
ENDROOT
BRANCH   1   3
ATOM      3  C   UNL     1       2.932   3.145  19.354  0.00  0.00    +0.000 A 
ATOM      4  N   UNL     1       1.765   3.815  19.175  0.00  0.00    +0.000 NA
ATOM      5  C   UNL     1       0.919   3.873  20.242  0.00  0.00    +0.000 A 
ATOM      6  C   UNL     1       1.202   3.291  21.465  0.00  0.00    +0.000 A 
ATOM      7  N   UNL     1       2.361   2.650  21.694  0.00  0.00    +0.000 NA
ATOM      8  C   UNL     1       3.218   2.597  20.624  0.00  0.00    +0.000 A 
BRANCH   8   9
ATOM      9  C   UNL     1       4.461   1.932  20.911  0.00  0.00    +0.000 C 
ATOM     10  N   UNL     1       5.455   1.382  21.149  0.00  0.00    +0.000 NA
ENDBRANCH   8   9
ENDBRANCH   1   3
BRANCH   1  11
ATOM     11  C   UNL     1       3.697   3.885  17.111  0.00  0.00    +0.000 C 
BRANCH  11  19
ATOM     12  C   UNL     1       2.708   6.994  18.069  0.00  0.00    +0.000 C 
ATOM     13  C   UNL     1       4.050   6.484  17.686  0.00  0.00    +0.000 A 
ATOM     14  N   UNL     1       5.058   7.361  17.729  0.00  0.00    +0.000 NA
ATOM     15  N   UNL     1       6.140   6.657  17.389  0.00  0.00    +0.000 N 
ATOM     16  C   UNL     1       7.418   7.330  17.365  0.00  0.00    +0.000 C 
ATOM     17  C   UNL     1       5.874   5.339  17.130  0.00  0.00    +0.000 A 
ATOM     18  C   UNL     1       6.920   4.351  16.781  0.00  0.00    +0.000 C 
ATOM     19  C   UNL     1       4.491   5.178  17.279  0.00  0.00    +0.000 A 
ENDBRANCH  11  19
ENDBRANCH   1  11
TORSDOF 4
ENDMDL
MODEL 8
REMARK VINA RESULT:      -6.0      1.458      6.076
REMARK  Name = 
REMARK  8 active torsions:
REMARK  status: ('A' for Active; 'I' for Inactive)
REMARK    1  A    between atoms: C_1  and  C_2
REMARK    2  A    between atoms: N_4  and  C_5
REMARK    3  A    between atoms: C_6  and  C_7
REMARK    4  A    between atoms: C_8  and  C_9
REMARK    5  A    between atoms: C_9  and  N_10
REMARK    6  A    between atoms: N_10  and  C_11
REMARK    7  A    between atoms: N_10  and  C_12
REMARK    8  A    between atoms: C_17  and  C_18
REMARK                            x       y       z     vdW  Elec       q    Type
REMARK                         _______ _______ _______ _____ _____    ______ ____
ROOT
ATOM      1  N   UNL     1       3.877   4.726  18.403  0.00  0.00    +0.000 N 
ATOM      2  C   UNL     1       3.322   6.026  17.998  0.00  0.00    +0.000 C 
ENDROOT
BRANCH   1   3
ATOM      3  C   UNL     1       3.109   4.218  19.479  0.00  0.00    +0.000 A 
ATOM      4  N   UNL     1       2.567   5.078  20.378  0.00  0.00    +0.000 NA
ATOM      5  C   UNL     1       1.719   4.548  21.303  0.00  0.00    +0.000 A 
ATOM      6  C   UNL     1       1.402   3.202  21.357  0.00  0.00    +0.000 A 
ATOM      7  N   UNL     1       1.944   2.312  20.508  0.00  0.00    +0.000 NA
ATOM      8  C   UNL     1       2.805   2.842  19.581  0.00  0.00    +0.000 A 
BRANCH   8   9
ATOM      9  C   UNL     1       3.391   1.860  18.708  0.00  0.00    +0.000 C 
ATOM     10  N   UNL     1       3.857   1.055  18.013  0.00  0.00    +0.000 NA
ENDBRANCH   8   9
ENDBRANCH   1   3
BRANCH   1  11
ATOM     11  C   UNL     1       5.359   4.736  18.568  0.00  0.00    +0.000 C 
BRANCH  11  19
ATOM     12  C   UNL     1       7.751   7.110  18.117  0.00  0.00    +0.000 C 
ATOM     13  C   UNL     1       7.169   6.133  17.161  0.00  0.00    +0.000 A 
ATOM     14  N   UNL     1       7.655   6.154  15.915  0.00  0.00    +0.000 NA
ATOM     15  N   UNL     1       7.011   5.172  15.280  0.00  0.00    +0.000 N 
ATOM     16  C   UNL     1       7.337   4.920  13.895  0.00  0.00    +0.000 C 
ATOM     17  C   UNL     1       6.121   4.500  16.074  0.00  0.00    +0.000 A 
ATOM     18  C   UNL     1       5.326   3.342  15.606  0.00  0.00    +0.000 C 
ATOM     19  C   UNL     1       6.161   5.123  17.327  0.00  0.00    +0.000 A 
ENDBRANCH  11  19
ENDBRANCH   1  11
TORSDOF 4
ENDMDL
MODEL 9
REMARK VINA RESULT:      -5.9      1.719      5.856
REMARK  Name = 
REMARK  8 active torsions:
REMARK  status: ('A' for Active; 'I' for Inactive)
REMARK    1  A    between atoms: C_1  and  C_2
REMARK    2  A    between atoms: N_4  and  C_5
REMARK    3  A    between atoms: C_6  and  C_7
REMARK    4  A    between atoms: C_8  and  C_9
REMARK    5  A    between atoms: C_9  and  N_10
REMARK    6  A    between atoms: N_10  and  C_11
REMARK    7  A    between atoms: N_10  and  C_12
REMARK    8  A    between atoms: C_17  and  C_18
REMARK                            x       y       z     vdW  Elec       q    Type
REMARK                         _______ _______ _______ _____ _____    ______ ____
ROOT
ATOM      1  N   UNL     1       4.373   5.366  19.320  0.00  0.00    +0.000 N 
ATOM      2  C   UNL     1       5.577   4.526  19.414  0.00  0.00    +0.000 C 
ENDROOT
BRANCH   1   3
ATOM      3  C   UNL     1       3.231   4.544  19.477  0.00  0.00    +0.000 A 
ATOM      4  N   UNL     1       3.302   3.229  19.145  0.00  0.00    +0.000 NA
ATOM      5  C   UNL     1       2.224   2.457  19.455  0.00  0.00    +0.000 A 
ATOM      6  C   UNL     1       1.091   2.952  20.077  0.00  0.00    +0.000 A 
ATOM      7  N   UNL     1       0.966   4.253  20.389  0.00  0.00    +0.000 NA
ATOM      8  C   UNL     1       2.047   5.035  20.071  0.00  0.00    +0.000 A 
BRANCH   8   9
ATOM      9  C   UNL     1       1.870   6.426  20.391  0.00  0.00    +0.000 C 
ATOM     10  N   UNL     1       1.718   7.551  20.633  0.00  0.00    +0.000 NA
ENDBRANCH   8   9
ENDBRANCH   1   3
BRANCH   1  11
ATOM     11  C   UNL     1       4.387   6.298  18.157  0.00  0.00    +0.000 C 
BRANCH  11  19
ATOM     12  C   UNL     1       7.481   7.625  17.679  0.00  0.00    +0.000 C 
ATOM     13  C   UNL     1       6.747   6.588  16.909  0.00  0.00    +0.000 A 
ATOM     14  N   UNL     1       7.385   6.059  15.860  0.00  0.00    +0.000 NA
ATOM     15  N   UNL     1       6.545   5.142  15.375  0.00  0.00    +0.000 N 
ATOM     16  C   UNL     1       6.962   4.364  14.231  0.00  0.00    +0.000 C 
ATOM     17  C   UNL     1       5.375   5.047  16.080  0.00  0.00    +0.000 A 
ATOM     18  C   UNL     1       4.311   4.068  15.762  0.00  0.00    +0.000 C 
ATOM     19  C   UNL     1       5.443   6.013  17.091  0.00  0.00    +0.000 A 
ENDBRANCH  11  19
ENDBRANCH   1  11
TORSDOF 4
ENDMDL
