MODEL 1
REMARK VINA RESULT:      -7.0      0.000      0.000
REMARK  Name = 
REMARK  7 active torsions:
REMARK  status: ('A' for Active; 'I' for Inactive)
REMARK    1  A    between atoms: C_1  and  O_2
REMARK    2  A    between atoms: O_2  and  C_3
REMARK    3  A    between atoms: C_4  and  O_5
REMARK    4  A    between atoms: C_14  and  O_15
REMARK    5  A    between atoms: C_16  and  C_17
REMARK    6  A    between atoms: C_18  and  O_19
REMARK    7  A    between atoms: O_19  and  C_20
REMARK                            x       y       z     vdW  Elec       q    Type
REMARK                         _______ _______ _______ _____ _____    ______ ____
ROOT
ATOM      1  C   UNL     1       0.931   9.591  19.574  0.00  0.00    +0.000 A 
ATOM      2  C   UNL     1       0.318   9.410  20.810  0.00  0.00    +0.000 A 
ATOM      3  C   UNL     1       0.563   8.264  21.536  0.00  0.00    +0.000 A 
ATOM      4  C   UNL     1       1.395   7.268  21.022  0.00  0.00    +0.000 A 
ATOM      5  C   UNL     1       2.040   7.356  19.771  0.00  0.00    +0.000 A 
ATOM      6  C   UNL     1       1.799   8.565  19.061  0.00  0.00    +0.000 A 
ATOM      7  C   UNL     1       2.475   8.840  17.742  0.00  0.00    +0.000 C 
ATOM      8  C   UNL     1       3.403   7.774  17.185  0.00  0.00    +0.000 C 
ATOM      9  C   UNL     1       3.580   6.507  17.971  0.00  0.00    +0.000 A 
ATOM     10  C   UNL     1       4.435   5.555  17.391  0.00  0.00    +0.000 A 
ATOM     11  C   UNL     1       4.661   4.336  18.003  0.00  0.00    +0.000 A 
ATOM     12  C   UNL     1       4.046   3.999  19.214  0.00  0.00    +0.000 A 
ATOM     13  C   UNL     1       4.361   2.638  19.783  0.00  0.00    +0.000 C 
ATOM     14  C   UNL     1       3.180   4.959  19.814  0.00  0.00    +0.000 A 
ATOM     15  C   UNL     1       2.934   6.257  19.204  0.00  0.00    +0.000 A 
ENDROOT
BRANCH   1  17
ATOM     16  C   UNL     1       1.306  11.931  19.130  0.00  0.00    +0.000 C 
ATOM     17  O   UNL     1       0.740  10.678  18.750  0.00  0.00    +0.000 OA
ENDBRANCH   1  17
BRANCH   2  18
ATOM     18  O   UNL     1      -0.572  10.270  21.379  0.00  0.00    +0.000 OA
ATOM     19  H   UNL     1      -0.616  11.044  20.788  0.00  0.00    +0.000 HD
ENDBRANCH   2  18
BRANCH  11  20
ATOM     20  O   UNL     1       5.503   3.440  17.400  0.00  0.00    +0.000 OA
ATOM     21  H   UNL     1       6.100   3.061  18.063  0.00  0.00    +0.000 HD
ENDBRANCH  11  20
BRANCH  14  22
ATOM     22  O   UNL     1       2.498   4.760  20.982  0.00  0.00    +0.000 OA
ATOM     23  C   UNL     1       1.603   3.706  21.262  0.00  0.00    +0.000 C 
ENDBRANCH  14  22
TORSDOF 4
ENDMDL
MODEL 2
REMARK VINA RESULT:      -6.6      1.288      5.855
REMARK  Name = 
REMARK  7 active torsions:
REMARK  status: ('A' for Active; 'I' for Inactive)
REMARK    1  A    between atoms: C_1  and  O_2
REMARK    2  A    between atoms: O_2  and  C_3
REMARK    3  A    between atoms: C_4  and  O_5
REMARK    4  A    between atoms: C_14  and  O_15
REMARK    5  A    between atoms: C_16  and  C_17
REMARK    6  A    between atoms: C_18  and  O_19
REMARK    7  A    between atoms: O_19  and  C_20
REMARK                            x       y       z     vdW  Elec       q    Type
REMARK                         _______ _______ _______ _____ _____    ______ ____
ROOT
ATOM      1  C   UNL     1       3.416   4.404  19.326  0.00  0.00    +0.000 A 
ATOM      2  C   UNL     1       2.839   3.837  20.459  0.00  0.00    +0.000 A 
ATOM      3  C   UNL     1       1.947   4.569  21.214  0.00  0.00    +0.000 A 
ATOM      4  C   UNL     1       1.646   5.888  20.869  0.00  0.00    +0.000 A 
ATOM      5  C   UNL     1       2.199   6.550  19.753  0.00  0.00    +0.000 A 
ATOM      6  C   UNL     1       3.086   5.758  18.971  0.00  0.00    +0.000 A 
ATOM      7  C   UNL     1       3.700   6.301  17.706  0.00  0.00    +0.000 C 
ATOM      8  C   UNL     1       3.359   7.726  17.306  0.00  0.00    +0.000 C 
ATOM      9  C   UNL     1       2.446   8.514  18.200  0.00  0.00    +0.000 A 
ATOM     10  C   UNL     1       2.187   9.831  17.784  0.00  0.00    +0.000 A 
ATOM     11  C   UNL     1       1.382  10.668  18.534  0.00  0.00    +0.000 A 
ATOM     12  C   UNL     1       0.801  10.244  19.733  0.00  0.00    +0.000 A 
ATOM     13  C   UNL     1      -0.052  11.247  20.470  0.00  0.00    +0.000 C 
ATOM     14  C   UNL     1       1.052   8.909  20.164  0.00  0.00    +0.000 A 
ATOM     15  C   UNL     1       1.882   7.997  19.389  0.00  0.00    +0.000 A 
ENDROOT
BRANCH   1  17
ATOM     16  C   UNL     1       3.887   2.756  17.631  0.00  0.00    +0.000 C 
ATOM     17  O   UNL     1       4.338   3.782  18.514  0.00  0.00    +0.000 OA
ENDBRANCH   1  17
BRANCH   2  18
ATOM     18  O   UNL     1       3.113   2.593  20.942  0.00  0.00    +0.000 OA
ATOM     19  H   UNL     1       2.592   1.973  20.399  0.00  0.00    +0.000 HD
ENDBRANCH   2  18
BRANCH  11  20
ATOM     20  O   UNL     1       1.159  11.943  18.087  0.00  0.00    +0.000 OA
ATOM     21  H   UNL     1       1.765  12.140  17.357  0.00  0.00    +0.000 HD
ENDBRANCH  11  20
BRANCH  14  22
ATOM     22  O   UNL     1       0.568   8.366  21.321  0.00  0.00    +0.000 OA
ATOM     23  C   UNL     1       0.610   8.952  22.604  0.00  0.00    +0.000 C 
ENDBRANCH  14  22
TORSDOF 4
ENDMDL
MODEL 3
REMARK VINA RESULT:      -6.6      1.466      5.829
REMARK  Name = 
REMARK  7 active torsions:
REMARK  status: ('A' for Active; 'I' for Inactive)
REMARK    1  A    between atoms: C_1  and  O_2
REMARK    2  A    between atoms: O_2  and  C_3
REMARK    3  A    between atoms: C_4  and  O_5
REMARK    4  A    between atoms: C_14  and  O_15
REMARK    5  A    between atoms: C_16  and  C_17
REMARK    6  A    between atoms: C_18  and  O_19
REMARK    7  A    between atoms: O_19  and  C_20
REMARK                            x       y       z     vdW  Elec       q    Type
REMARK                         _______ _______ _______ _____ _____    ______ ____
ROOT
ATOM      1  C   UNL     1       3.461   3.319  19.933  0.00  0.00    +0.000 A 
ATOM      2  C   UNL     1       2.801   3.024  21.123  0.00  0.00    +0.000 A 
ATOM      3  C   UNL     1       1.979   3.967  21.703  0.00  0.00    +0.000 A 
ATOM      4  C   UNL     1       1.834   5.230  21.123  0.00  0.00    +0.000 A 
ATOM      5  C   UNL     1       2.481   5.622  19.932  0.00  0.00    +0.000 A 
ATOM      6  C   UNL     1       3.291   4.616  19.336  0.00  0.00    +0.000 A 
ATOM      7  C   UNL     1       3.990   4.859  18.023  0.00  0.00    +0.000 C 
ATOM      8  C   UNL     1       3.818   6.220  17.368  0.00  0.00    +0.000 C 
ATOM      9  C   UNL     1       2.978   7.244  18.075  0.00  0.00    +0.000 A 
ATOM     10  C   UNL     1       2.877   8.487  17.426  0.00  0.00    +0.000 A 
ATOM     11  C   UNL     1       2.153   9.524  17.987  0.00  0.00    +0.000 A 
ATOM     12  C   UNL     1       1.502   9.381  19.217  0.00  0.00    +0.000 A 
ATOM     13  C   UNL     1       0.751  10.583  19.733  0.00  0.00    +0.000 C 
ATOM     14  C   UNL     1       1.594   8.124  19.882  0.00  0.00    +0.000 A 
ATOM     15  C   UNL     1       2.335   7.008  19.311  0.00  0.00    +0.000 A 
ENDROOT
BRANCH   1  17
ATOM     16  C   UNL     1       3.780   1.396  18.515  0.00  0.00    +0.000 C 
ATOM     17  O   UNL     1       4.326   2.469  19.279  0.00  0.00    +0.000 OA
ENDBRANCH   1  17
BRANCH   2  18
ATOM     18  O   UNL     1       2.924   1.863  21.824  0.00  0.00    +0.000 OA
ATOM     19  H   UNL     1       2.059   1.418  21.762  0.00  0.00    +0.000 HD
ENDBRANCH   2  18
BRANCH  11  20
ATOM     20  O   UNL     1       2.082  10.716  17.318  0.00  0.00    +0.000 OA
ATOM     21  H   UNL     1       2.449  11.421  17.874  0.00  0.00    +0.000 HD
ENDBRANCH  11  20
BRANCH  14  22
ATOM     22  O   UNL     1       1.028   7.848  21.095  0.00  0.00    +0.000 OA
ATOM     23  C   UNL     1       1.045   8.677  22.236  0.00  0.00    +0.000 C 
ENDBRANCH  14  22
TORSDOF 4
ENDMDL
MODEL 4
REMARK VINA RESULT:      -6.6      1.511      3.291
REMARK  Name = 
REMARK  7 active torsions:
REMARK  status: ('A' for Active; 'I' for Inactive)
REMARK    1  A    between atoms: C_1  and  O_2
REMARK    2  A    between atoms: O_2  and  C_3
REMARK    3  A    between atoms: C_4  and  O_5
REMARK    4  A    between atoms: C_14  and  O_15
REMARK    5  A    between atoms: C_16  and  C_17
REMARK    6  A    between atoms: C_18  and  O_19
REMARK    7  A    between atoms: O_19  and  C_20
REMARK                            x       y       z     vdW  Elec       q    Type
REMARK                         _______ _______ _______ _____ _____    ______ ____
ROOT
ATOM      1  C   UNL     1       1.092   8.898  20.042  0.00  0.00    +0.000 A 
ATOM      2  C   UNL     1       1.380   9.871  19.089  0.00  0.00    +0.000 A 
ATOM      3  C   UNL     1       2.140   9.546  17.986  0.00  0.00    +0.000 A 
ATOM      4  C   UNL     1       2.652   8.256  17.836  0.00  0.00    +0.000 A 
ATOM      5  C   UNL     1       2.431   7.214  18.761  0.00  0.00    +0.000 A 
ATOM      6  C   UNL     1       1.612   7.568  19.870  0.00  0.00    +0.000 A 
ATOM      7  C   UNL     1       1.224   6.545  20.907  0.00  0.00    +0.000 C 
ATOM      8  C   UNL     1       1.754   5.130  20.741  0.00  0.00    +0.000 C 
ATOM      9  C   UNL     1       2.644   4.841  19.567  0.00  0.00    +0.000 A 
ATOM     10  C   UNL     1       3.116   3.519  19.484  0.00  0.00    +0.000 A 
ATOM     11  C   UNL     1       3.964   3.131  18.462  0.00  0.00    +0.000 A 
ATOM     12  C   UNL     1       4.389   4.032  17.481  0.00  0.00    +0.000 A 
ATOM     13  C   UNL     1       5.321   3.497  16.422  0.00  0.00    +0.000 C 
ATOM     14  C   UNL     1       3.914   5.374  17.553  0.00  0.00    +0.000 A 
ATOM     15  C   UNL     1       3.007   5.811  18.605  0.00  0.00    +0.000 A 
ENDROOT
BRANCH   1  17
ATOM     16  C   UNL     1       1.034   9.681  22.322  0.00  0.00    +0.000 C 
ATOM     17  O   UNL     1       0.370   9.112  21.195  0.00  0.00    +0.000 OA
ENDBRANCH   1  17
BRANCH   2  18
ATOM     18  O   UNL     1       1.006  11.179  19.163  0.00  0.00    +0.000 OA
ATOM     19  H   UNL     1       1.605  11.594  19.809  0.00  0.00    +0.000 HD
ENDBRANCH   2  18
BRANCH  11  20
ATOM     20  O   UNL     1       4.397   1.832  18.423  0.00  0.00    +0.000 OA
ATOM     21  H   UNL     1       4.512   1.503  19.327  0.00  0.00    +0.000 HD
ENDBRANCH  11  20
BRANCH  14  22
ATOM     22  O   UNL     1       4.260   6.364  16.676  0.00  0.00    +0.000 OA
ATOM     23  C   UNL     1       5.555   6.882  16.467  0.00  0.00    +0.000 C 
ENDBRANCH  14  22
TORSDOF 4
ENDMDL
MODEL 5
REMARK VINA RESULT:      -6.4      1.312      1.864
REMARK  Name = 
REMARK  7 active torsions:
REMARK  status: ('A' for Active; 'I' for Inactive)
REMARK    1  A    between atoms: C_1  and  O_2
REMARK    2  A    between atoms: O_2  and  C_3
REMARK    3  A    between atoms: C_4  and  O_5
REMARK    4  A    between atoms: C_14  and  O_15
REMARK    5  A    between atoms: C_16  and  C_17
REMARK    6  A    between atoms: C_18  and  O_19
REMARK    7  A    between atoms: O_19  and  C_20
REMARK                            x       y       z     vdW  Elec       q    Type
REMARK                         _______ _______ _______ _____ _____    ______ ____
ROOT
ATOM      1  C   UNL     1      -0.003  10.543  20.779  0.00  0.00    +0.000 A 
ATOM      2  C   UNL     1      -0.396  10.016  22.006  0.00  0.00    +0.000 A 
ATOM      3  C   UNL     1       0.053   8.771  22.393  0.00  0.00    +0.000 A 
ATOM      4  C   UNL     1       0.870   8.020  21.545  0.00  0.00    +0.000 A 
ATOM      5  C   UNL     1       1.300   8.465  20.277  0.00  0.00    +0.000 A 
ATOM      6  C   UNL     1       0.853   9.768  19.922  0.00  0.00    +0.000 A 
ATOM      7  C   UNL     1       1.287  10.412  18.630  0.00  0.00    +0.000 C 
ATOM      8  C   UNL     1       2.199   9.616  17.711  0.00  0.00    +0.000 C 
ATOM      9  C   UNL     1       2.598   8.232  18.136  0.00  0.00    +0.000 A 
ATOM     10  C   UNL     1       3.425   7.543  17.232  0.00  0.00    +0.000 A 
ATOM     11  C   UNL     1       3.842   6.250  17.494  0.00  0.00    +0.000 A 
ATOM     12  C   UNL     1       3.456   5.579  18.659  0.00  0.00    +0.000 A 
ATOM     13  C   UNL     1       3.965   4.169  18.833  0.00  0.00    +0.000 C 
ATOM     14  C   UNL     1       2.621   6.269  19.585  0.00  0.00    +0.000 A 
ATOM     15  C   UNL     1       2.178   7.635  19.346  0.00  0.00    +0.000 A 
ENDROOT
BRANCH   1  17
ATOM     16  C   UNL     1      -1.741  11.884  19.783  0.00  0.00    +0.000 C 
ATOM     17  O   UNL     1      -0.408  11.760  20.277  0.00  0.00    +0.000 OA
ENDBRANCH   1  17
BRANCH   2  18
ATOM     18  O   UNL     1      -1.251  10.615  22.881  0.00  0.00    +0.000 OA
ATOM     19  H   UNL     1      -1.011  11.559  22.889  0.00  0.00    +0.000 HD
ENDBRANCH   2  18
BRANCH  11  20
ATOM     20  O   UNL     1       4.647   5.619  16.584  0.00  0.00    +0.000 OA
ATOM     21  H   UNL     1       4.149   4.910  16.149  0.00  0.00    +0.000 HD
ENDBRANCH  11  20
BRANCH  14  22
ATOM     22  O   UNL     1       2.151   5.732  20.751  0.00  0.00    +0.000 OA
ATOM     23  C   UNL     1       1.462   4.509  20.893  0.00  0.00    +0.000 C 
ENDBRANCH  14  22
TORSDOF 4
ENDMDL
MODEL 6
REMARK VINA RESULT:      -6.1      1.442      3.285
REMARK  Name = 
REMARK  7 active torsions:
REMARK  status: ('A' for Active; 'I' for Inactive)
REMARK    1  A    between atoms: C_1  and  O_2
REMARK    2  A    between atoms: O_2  and  C_3
REMARK    3  A    between atoms: C_4  and  O_5
REMARK    4  A    between atoms: C_14  and  O_15
REMARK    5  A    between atoms: C_16  and  C_17
REMARK    6  A    between atoms: C_18  and  O_19
REMARK    7  A    between atoms: O_19  and  C_20
REMARK                            x       y       z     vdW  Elec       q    Type
REMARK                         _______ _______ _______ _____ _____    ______ ____
ROOT
ATOM      1  C   UNL     1       1.005  10.252  19.734  0.00  0.00    +0.000 A 
ATOM      2  C   UNL     1       1.422  10.898  18.574  0.00  0.00    +0.000 A 
ATOM      3  C   UNL     1       2.117  10.199  17.611  0.00  0.00    +0.000 A 
ATOM      4  C   UNL     1       2.437   8.854  17.808  0.00  0.00    +0.000 A 
ATOM      5  C   UNL     1       2.075   8.125  18.960  0.00  0.00    +0.000 A 
ATOM      6  C   UNL     1       1.326   8.862  19.919  0.00  0.00    +0.000 A 
ATOM      7  C   UNL     1       0.803   8.203  21.170  0.00  0.00    +0.000 C 
ATOM      8  C   UNL     1       1.122   6.732  21.384  0.00  0.00    +0.000 C 
ATOM      9  C   UNL     1       1.951   6.030  20.347  0.00  0.00    +0.000 A 
ATOM     10  C   UNL     1       2.226   4.678  20.615  0.00  0.00    +0.000 A 
ATOM     11  C   UNL     1       3.001   3.926  19.750  0.00  0.00    +0.000 A 
ATOM     12  C   UNL     1       3.543   4.477  18.585  0.00  0.00    +0.000 A 
ATOM     13  C   UNL     1       4.378   3.563  17.723  0.00  0.00    +0.000 C 
ATOM     14  C   UNL     1       3.267   5.846  18.301  0.00  0.00    +0.000 A 
ATOM     15  C   UNL     1       2.442   6.661  19.182  0.00  0.00    +0.000 A 
ENDROOT
BRANCH   1  17
ATOM     16  C   UNL     1      -1.015  11.276  20.561  0.00  0.00    +0.000 C 
ATOM     17  O   UNL     1       0.331  10.853  20.774  0.00  0.00    +0.000 OA
ENDBRANCH   1  17
BRANCH   2  18
ATOM     18  O   UNL     1       1.241  12.221  18.303  0.00  0.00    +0.000 OA
ATOM     19  H   UNL     1       0.578  12.539  18.943  0.00  0.00    +0.000 HD
ENDBRANCH   2  18
BRANCH  11  20
ATOM     20  O   UNL     1       3.242   2.612  20.054  0.00  0.00    +0.000 OA
ATOM     21  H   UNL     1       3.671   2.180  19.299  0.00  0.00    +0.000 HD
ENDBRANCH  11  20
BRANCH  14  22
ATOM     22  O   UNL     1       3.745   6.521  17.212  0.00  0.00    +0.000 OA
ATOM     23  C   UNL     1       5.098   6.797  16.925  0.00  0.00    +0.000 C 
ENDBRANCH  14  22
TORSDOF 4
ENDMDL
MODEL 7
REMARK VINA RESULT:      -6.0      1.659      6.229
REMARK  Name = 
REMARK  7 active torsions:
REMARK  status: ('A' for Active; 'I' for Inactive)
REMARK    1  A    between atoms: C_1  and  O_2
REMARK    2  A    between atoms: O_2  and  C_3
REMARK    3  A    between atoms: C_4  and  O_5
REMARK    4  A    between atoms: C_14  and  O_15
REMARK    5  A    between atoms: C_16  and  C_17
REMARK    6  A    between atoms: C_18  and  O_19
REMARK    7  A    between atoms: O_19  and  C_20
REMARK                            x       y       z     vdW  Elec       q    Type
REMARK                         _______ _______ _______ _____ _____    ______ ____
ROOT
ATOM      1  C   UNL     1       2.904   6.333  18.802  0.00  0.00    +0.000 A 
ATOM      2  C   UNL     1       2.636   5.423  19.820  0.00  0.00    +0.000 A 
ATOM      3  C   UNL     1       1.797   5.778  20.854  0.00  0.00    +0.000 A 
ATOM      4  C   UNL     1       1.243   7.059  20.905  0.00  0.00    +0.000 A 
ATOM      5  C   UNL     1       1.477   8.052  19.931  0.00  0.00    +0.000 A 
ATOM      6  C   UNL     1       2.315   7.644  18.856  0.00  0.00    +0.000 A 
ATOM      7  C   UNL     1       2.600   8.568  17.700  0.00  0.00    +0.000 C 
ATOM      8  C   UNL     1       1.982   9.956  17.731  0.00  0.00    +0.000 C 
ATOM      9  C   UNL     1       1.139  10.329  18.916  0.00  0.00    +0.000 A 
ATOM     10  C   UNL     1       0.614  11.632  18.892  0.00  0.00    +0.000 A 
ATOM     11  C   UNL     1      -0.158  12.107  19.937  0.00  0.00    +0.000 A 
ATOM     12  C   UNL     1      -0.441  11.317  21.056  0.00  0.00    +0.000 A 
ATOM     13  C   UNL     1      -1.286  11.944  22.137  0.00  0.00    +0.000 C 
ATOM     14  C   UNL     1       0.083   9.991  21.089  0.00  0.00    +0.000 A 
ATOM     15  C   UNL     1       0.885   9.456  19.999  0.00  0.00    +0.000 A 
ENDROOT
BRANCH   1  17
ATOM     16  C   UNL     1       5.145   5.978  17.986  0.00  0.00    +0.000 C 
ATOM     17  O   UNL     1       3.746   6.100  17.736  0.00  0.00    +0.000 OA
ENDBRANCH   1  17
BRANCH   2  18
ATOM     18  O   UNL     1       3.177   4.177  19.923  0.00  0.00    +0.000 OA
ATOM     19  H   UNL     1       3.636   4.011  19.080  0.00  0.00    +0.000 HD
ENDBRANCH   2  18
BRANCH  11  20
ATOM     20  O   UNL     1      -0.648  13.384  19.868  0.00  0.00    +0.000 OA
ATOM     21  H   UNL     1      -0.260  13.838  19.105  0.00  0.00    +0.000 HD
ENDBRANCH  11  20
BRANCH  14  22
ATOM     22  O   UNL     1      -0.095   9.116  22.125  0.00  0.00    +0.000 OA
ATOM     23  C   UNL     1       0.149   9.372  23.490  0.00  0.00    +0.000 C 
ENDBRANCH  14  22
TORSDOF 4
ENDMDL
MODEL 8
REMARK VINA RESULT:      -6.0      2.661      7.720
REMARK  Name = 
REMARK  7 active torsions:
REMARK  status: ('A' for Active; 'I' for Inactive)
REMARK    1  A    between atoms: C_1  and  O_2
REMARK    2  A    between atoms: O_2  and  C_3
REMARK    3  A    between atoms: C_4  and  O_5
REMARK    4  A    between atoms: C_14  and  O_15
REMARK    5  A    between atoms: C_16  and  C_17
REMARK    6  A    between atoms: C_18  and  O_19
REMARK    7  A    between atoms: O_19  and  C_20
REMARK                            x       y       z     vdW  Elec       q    Type
REMARK                         _______ _______ _______ _____ _____    ______ ____
ROOT
ATOM      1  C   UNL     1       2.016   7.923  19.686  0.00  0.00    +0.000 A 
ATOM      2  C   UNL     1       2.208   8.227  18.341  0.00  0.00    +0.000 A 
ATOM      3  C   UNL     1       1.593   9.333  17.794  0.00  0.00    +0.000 A 
ATOM      4  C   UNL     1       0.751  10.130  18.572  0.00  0.00    +0.000 A 
ATOM      5  C   UNL     1       0.482   9.885  19.935  0.00  0.00    +0.000 A 
ATOM      6  C   UNL     1       1.160   8.760  20.482  0.00  0.00    +0.000 A 
ATOM      7  C   UNL     1       1.032   8.412  21.943  0.00  0.00    +0.000 C 
ATOM      8  C   UNL     1       0.139   9.287  22.806  0.00  0.00    +0.000 C 
ATOM      9  C   UNL     1      -0.574  10.434  22.151  0.00  0.00    +0.000 A 
ATOM     10  C   UNL     1      -1.400  11.191  23.000  0.00  0.00    +0.000 A 
ATOM     11  C   UNL     1      -2.131  12.259  22.513  0.00  0.00    +0.000 A 
ATOM     12  C   UNL     1      -2.085  12.624  21.164  0.00  0.00    +0.000 A 
ATOM     13  C   UNL     1      -2.932  13.800  20.746  0.00  0.00    +0.000 C 
ATOM     14  C   UNL     1      -1.248  11.866  20.294  0.00  0.00    +0.000 A 
ATOM     15  C   UNL     1      -0.453  10.746  20.778  0.00  0.00    +0.000 A 
ENDROOT
BRANCH   1  17
ATOM     16  C   UNL     1       2.042   5.537  20.028  0.00  0.00    +0.000 C 
ATOM     17  O   UNL     1       2.554   6.833  20.333  0.00  0.00    +0.000 OA
ENDBRANCH   1  17
BRANCH   2  18
ATOM     18  O   UNL     1       2.939   7.484  17.464  0.00  0.00    +0.000 OA
ATOM     19  H   UNL     1       2.299   6.930  16.981  0.00  0.00    +0.000 HD
ENDBRANCH   2  18
BRANCH  11  20
ATOM     20  O   UNL     1      -2.921  12.968  23.379  0.00  0.00    +0.000 OA
ATOM     21  H   UNL     1      -3.058  13.863  23.033  0.00  0.00    +0.000 HD
ENDBRANCH  11  20
BRANCH  14  22
ATOM     22  O   UNL     1      -1.121  12.095  18.952  0.00  0.00    +0.000 OA
ATOM     23  C   UNL     1      -2.083  11.817  17.959  0.00  0.00    +0.000 C 
ENDBRANCH  14  22
TORSDOF 4
ENDMDL
MODEL 9
REMARK VINA RESULT:      -6.0      1.346      6.613
REMARK  Name = 
REMARK  7 active torsions:
REMARK  status: ('A' for Active; 'I' for Inactive)
REMARK    1  A    between atoms: C_1  and  O_2
REMARK    2  A    between atoms: O_2  and  C_3
REMARK    3  A    between atoms: C_4  and  O_5
REMARK    4  A    between atoms: C_14  and  O_15
REMARK    5  A    between atoms: C_16  and  C_17
REMARK    6  A    between atoms: C_18  and  O_19
REMARK    7  A    between atoms: O_19  and  C_20
REMARK                            x       y       z     vdW  Elec       q    Type
REMARK                         _______ _______ _______ _____ _____    ______ ____
ROOT
ATOM      1  C   UNL     1       4.170   4.790  18.083  0.00  0.00    +0.000 A 
ATOM      2  C   UNL     1       4.750   5.364  16.956  0.00  0.00    +0.000 A 
ATOM      3  C   UNL     1       4.490   6.682  16.647  0.00  0.00    +0.000 A 
ATOM      4  C   UNL     1       3.619   7.434  17.437  0.00  0.00    +0.000 A 
ATOM      5  C   UNL     1       2.969   6.929  18.583  0.00  0.00    +0.000 A 
ATOM      6  C   UNL     1       3.287   5.579  18.899  0.00  0.00    +0.000 A 
ATOM      7  C   UNL     1       2.729   4.919  20.135  0.00  0.00    +0.000 C 
ATOM      8  C   UNL     1       1.800   5.736  21.018  0.00  0.00    +0.000 C 
ATOM      9  C   UNL     1       1.481   7.143  20.600  0.00  0.00    +0.000 A 
ATOM     10  C   UNL     1       0.601   7.836  21.448  0.00  0.00    +0.000 A 
ATOM     11  C   UNL     1       0.208   9.130  21.160  0.00  0.00    +0.000 A 
ATOM     12  C   UNL     1       0.662   9.796  20.017  0.00  0.00    +0.000 A 
ATOM     13  C   UNL     1       0.159  11.202  19.803  0.00  0.00    +0.000 C 
ATOM     14  C   UNL     1       1.558   9.104  19.151  0.00  0.00    +0.000 A 
ATOM     15  C   UNL     1       2.004   7.748  19.434  0.00  0.00    +0.000 A 
ENDROOT
BRANCH   1  17
ATOM     16  C   UNL     1       3.582   2.468  17.807  0.00  0.00    +0.000 C 
ATOM     17  O   UNL     1       4.333   3.480  18.475  0.00  0.00    +0.000 OA
ENDBRANCH   1  17
BRANCH   2  18
ATOM     18  O   UNL     1       5.551   4.713  16.066  0.00  0.00    +0.000 OA
ATOM     19  H   UNL     1       5.481   5.207  15.229  0.00  0.00    +0.000 HD
ENDBRANCH   2  18
BRANCH  11  20
ATOM     20  O   UNL     1      -0.651   9.765  22.018  0.00  0.00    +0.000 OA
ATOM     21  H   UNL     1      -0.239  10.581  22.342  0.00  0.00    +0.000 HD
ENDBRANCH  11  20
BRANCH  14  22
ATOM     22  O   UNL     1       2.065   9.622  17.992  0.00  0.00    +0.000 OA
ATOM     23  C   UNL     1       2.532  10.938  17.794  0.00  0.00    +0.000 C 
ENDBRANCH  14  22
TORSDOF 4
ENDMDL
