MODEL 1
REMARK VINA RESULT:      -7.8      0.000      0.000
REMARK  Name = 
REMARK  9 active torsions:
REMARK  status: ('A' for Active; 'I' for Inactive)
REMARK    1  A    between atoms: C_1  and  C_2
REMARK    2  A    between atoms: C_2  and  C_3
REMARK    3  A    between atoms: C_3  and  N_4
REMARK    4  A    between atoms: C_9  and  C_10
REMARK    5  A    between atoms: C_10  and  C_11
REMARK    6  A    between atoms: C_10  and  C_12
REMARK    7  A    between atoms: N_20  and  C_21
REMARK    8  A    between atoms: C_21  and  C_22
REMARK    9  A    between atoms: C_22  and  C_23
REMARK                            x       y       z     vdW  Elec       q    Type
REMARK                         _______ _______ _______ _____ _____    ______ ____
ROOT
ATOM      1  N   UNL     1       5.068   4.208  18.610  0.00  0.00    +0.000 N 
ATOM      2  C   UNL     1       4.786   3.697  17.333  0.00  0.00    +0.000 A 
ATOM      3  O   UNL     1       3.974   2.802  17.110  0.00  0.00    +0.000 OA
ATOM      4  C   UNL     1       5.565   4.317  16.287  0.00  0.00    +0.000 A 
ATOM      5  N   UNL     1       5.526   4.074  14.939  0.00  0.00    +0.000 NA
ATOM      6  C   UNL     1       6.437   4.871  14.410  0.00  0.00    +0.000 A 
ATOM      7  N   UNL     1       7.051   5.632  15.389  0.00  0.00    +0.000 N 
ATOM      8  C   UNL     1       6.507   5.257  16.587  0.00  0.00    +0.000 A 
ATOM      9  N   UNL     1       6.830   5.684  17.861  0.00  0.00    +0.000 N 
ATOM     10  C   UNL     1       6.095   5.125  18.927  0.00  0.00    +0.000 A 
ATOM     11  O   UNL     1       6.350   5.421  20.100  0.00  0.00    +0.000 OA
ATOM     12  H   UNL     1       7.763   6.323  15.231  0.00  0.00    +0.000 HD
ENDROOT
BRANCH   6  13
ATOM     13  C   UNL     1       6.794   4.965  12.949  0.00  0.00    +0.000 C 
ATOM     14  C   UNL     1       8.248   5.434  12.775  0.00  0.00    +0.000 C 
BRANCH  13  15
ATOM     15  C   UNL     1       6.562   3.652  12.216  0.00  0.00    +0.000 A 
ATOM     16  C   UNL     1       5.257   3.197  11.968  0.00  0.00    +0.000 A 
ATOM     17  C   UNL     1       5.040   2.005  11.273  0.00  0.00    +0.000 A 
ATOM     18  C   UNL     1       6.122   1.256  10.814  0.00  0.00    +0.000 A 
ATOM     19  C   UNL     1       7.421   1.694  11.052  0.00  0.00    +0.000 A 
ATOM     20  C   UNL     1       7.641   2.882  11.748  0.00  0.00    +0.000 A 
ENDBRANCH  13  15
ENDBRANCH   6  13
BRANCH   1  21
ATOM     21  C   UNL     1       4.300   3.653  19.722  0.00  0.00    +0.000 C 
BRANCH  21  23
ATOM     22  C   UNL     1       1.964   3.613  20.758  0.00  0.00    +0.000 C 
ATOM     23  C   UNL     1       3.024   4.439  20.045  0.00  0.00    +0.000 C 
ENDBRANCH  21  23
ENDBRANCH   1  21
BRANCH   9  24
ATOM     24  C   UNL     1       7.925   6.606  18.165  0.00  0.00    +0.000 C 
BRANCH  24  25
ATOM     25  C   UNL     1       7.740   8.016  17.600  0.00  0.00    +0.000 C 
ATOM     26  C   UNL     1       8.520   9.087  18.347  0.00  0.00    +0.000 C 
ENDBRANCH  24  25
ENDBRANCH   9  24
TORSDOF 6
ENDMDL
MODEL 2
REMARK VINA RESULT:      -7.6      0.569      1.164
REMARK  Name = 
REMARK  9 active torsions:
REMARK  status: ('A' for Active; 'I' for Inactive)
REMARK    1  A    between atoms: C_1  and  C_2
REMARK    2  A    between atoms: C_2  and  C_3
REMARK    3  A    between atoms: C_3  and  N_4
REMARK    4  A    between atoms: C_9  and  C_10
REMARK    5  A    between atoms: C_10  and  C_11
REMARK    6  A    between atoms: C_10  and  C_12
REMARK    7  A    between atoms: N_20  and  C_21
REMARK    8  A    between atoms: C_21  and  C_22
REMARK    9  A    between atoms: C_22  and  C_23
REMARK                            x       y       z     vdW  Elec       q    Type
REMARK                         _______ _______ _______ _____ _____    ______ ____
ROOT
ATOM      1  N   UNL     1       4.601   4.193  18.507  0.00  0.00    +0.000 N 
ATOM      2  C   UNL     1       4.232   3.918  17.180  0.00  0.00    +0.000 A 
ATOM      3  O   UNL     1       3.199   3.338  16.855  0.00  0.00    +0.000 OA
ATOM      4  C   UNL     1       5.206   4.373  16.215  0.00  0.00    +0.000 A 
ATOM      5  N   UNL     1       5.153   4.286  14.848  0.00  0.00    +0.000 NA
ATOM      6  C   UNL     1       6.282   4.817  14.417  0.00  0.00    +0.000 A 
ATOM      7  N   UNL     1       7.054   5.257  15.478  0.00  0.00    +0.000 N 
ATOM      8  C   UNL     1       6.372   4.949  16.623  0.00  0.00    +0.000 A 
ATOM      9  N   UNL     1       6.754   5.131  17.939  0.00  0.00    +0.000 N 
ATOM     10  C   UNL     1       5.840   4.720  18.932  0.00  0.00    +0.000 A 
ATOM     11  O   UNL     1       6.123   4.809  20.132  0.00  0.00    +0.000 OA
ATOM     12  H   UNL     1       7.947   5.712  15.402  0.00  0.00    +0.000 HD
ENDROOT
BRANCH   6  13
ATOM     13  C   UNL     1       6.713   4.940  12.978  0.00  0.00    +0.000 C 
ATOM     14  C   UNL     1       8.178   5.397  12.888  0.00  0.00    +0.000 C 
BRANCH  13  15
ATOM     15  C   UNL     1       6.504   3.648  12.204  0.00  0.00    +0.000 A 
ATOM     16  C   UNL     1       7.605   2.892  11.770  0.00  0.00    +0.000 A 
ATOM     17  C   UNL     1       7.416   1.692  11.081  0.00  0.00    +0.000 A 
ATOM     18  C   UNL     1       6.127   1.230  10.821  0.00  0.00    +0.000 A 
ATOM     19  C   UNL     1       5.025   1.968  11.245  0.00  0.00    +0.000 A 
ATOM     20  C   UNL     1       5.212   3.168  11.931  0.00  0.00    +0.000 A 
ENDBRANCH  13  15
ENDBRANCH   6  13
BRANCH   1  21
ATOM     21  C   UNL     1       3.655   3.791  19.546  0.00  0.00    +0.000 C 
BRANCH  21  23
ATOM     22  C   UNL     1       1.243   4.295  20.226  0.00  0.00    +0.000 C 
ATOM     23  C   UNL     1       2.611   4.863  19.880  0.00  0.00    +0.000 C 
ENDBRANCH  21  23
ENDBRANCH   1  21
BRANCH   9  24
ATOM     24  C   UNL     1       8.061   5.644  18.351  0.00  0.00    +0.000 C 
BRANCH  24  25
ATOM     25  C   UNL     1       8.070   7.129  18.721  0.00  0.00    +0.000 C 
ATOM     26  C   UNL     1       7.849   8.060  17.538  0.00  0.00    +0.000 C 
ENDBRANCH  24  25
ENDBRANCH   9  24
TORSDOF 6
ENDMDL
MODEL 3
REMARK VINA RESULT:      -7.5      4.421      8.815
REMARK  Name = 
REMARK  9 active torsions:
REMARK  status: ('A' for Active; 'I' for Inactive)
REMARK    1  A    between atoms: C_1  and  C_2
REMARK    2  A    between atoms: C_2  and  C_3
REMARK    3  A    between atoms: C_3  and  N_4
REMARK    4  A    between atoms: C_9  and  C_10
REMARK    5  A    between atoms: C_10  and  C_11
REMARK    6  A    between atoms: C_10  and  C_12
REMARK    7  A    between atoms: N_20  and  C_21
REMARK    8  A    between atoms: C_21  and  C_22
REMARK    9  A    between atoms: C_22  and  C_23
REMARK                            x       y       z     vdW  Elec       q    Type
REMARK                         _______ _______ _______ _____ _____    ______ ____
ROOT
ATOM      1  N   UNL     1       4.376   5.050  18.279  0.00  0.00    +0.000 N 
ATOM      2  C   UNL     1       3.958   6.390  18.243  0.00  0.00    +0.000 A 
ATOM      3  O   UNL     1       4.413   7.237  17.477  0.00  0.00    +0.000 OA
ATOM      4  C   UNL     1       2.939   6.694  19.220  0.00  0.00    +0.000 A 
ATOM      5  N   UNL     1       2.301   7.887  19.441  0.00  0.00    +0.000 NA
ATOM      6  C   UNL     1       1.477   7.665  20.448  0.00  0.00    +0.000 A 
ATOM      7  N   UNL     1       1.561   6.350  20.871  0.00  0.00    +0.000 N 
ATOM      8  C   UNL     1       2.513   5.742  20.099  0.00  0.00    +0.000 A 
ATOM      9  N   UNL     1       3.001   4.451  20.174  0.00  0.00    +0.000 N 
ATOM     10  C   UNL     1       3.990   4.087  19.237  0.00  0.00    +0.000 A 
ATOM     11  O   UNL     1       4.509   2.965  19.264  0.00  0.00    +0.000 OA
ATOM     12  H   UNL     1       1.020   5.937  21.611  0.00  0.00    +0.000 HD
ENDROOT
BRANCH   6  13
ATOM     13  C   UNL     1       0.559   8.677  21.085  0.00  0.00    +0.000 C 
ATOM     14  C   UNL     1       1.111   9.129  22.446  0.00  0.00    +0.000 C 
BRANCH  13  15
ATOM     15  C   UNL     1       0.310   9.874  20.180  0.00  0.00    +0.000 A 
ATOM     16  C   UNL     1      -0.646   9.805  19.155  0.00  0.00    +0.000 A 
ATOM     17  C   UNL     1      -0.894  10.911  18.339  0.00  0.00    +0.000 A 
ATOM     18  C   UNL     1      -0.196  12.100  18.540  0.00  0.00    +0.000 A 
ATOM     19  C   UNL     1       0.755  12.185  19.553  0.00  0.00    +0.000 A 
ATOM     20  C   UNL     1       1.007  11.080  20.367  0.00  0.00    +0.000 A 
ENDBRANCH  13  15
ENDBRANCH   6  13
BRANCH   1  21
ATOM     21  C   UNL     1       5.386   4.653  17.301  0.00  0.00    +0.000 C 
BRANCH  21  23
ATOM     22  C   UNL     1       5.553   4.716  14.751  0.00  0.00    +0.000 C 
ATOM     23  C   UNL     1       4.801   4.186  15.963  0.00  0.00    +0.000 C 
ENDBRANCH  21  23
ENDBRANCH   1  21
BRANCH   9  24
ATOM     24  C   UNL     1       2.612   3.485  21.202  0.00  0.00    +0.000 C 
BRANCH  24  25
ATOM     25  C   UNL     1       1.201   2.917  21.035  0.00  0.00    +0.000 C 
ATOM     26  C   UNL     1       0.828   2.605  19.594  0.00  0.00    +0.000 C 
ENDBRANCH  24  25
ENDBRANCH   9  24
TORSDOF 6
ENDMDL
MODEL 4
REMARK VINA RESULT:      -7.4      4.499      8.916
REMARK  Name = 
REMARK  9 active torsions:
REMARK  status: ('A' for Active; 'I' for Inactive)
REMARK    1  A    between atoms: C_1  and  C_2
REMARK    2  A    between atoms: C_2  and  C_3
REMARK    3  A    between atoms: C_3  and  N_4
REMARK    4  A    between atoms: C_9  and  C_10
REMARK    5  A    between atoms: C_10  and  C_11
REMARK    6  A    between atoms: C_10  and  C_12
REMARK    7  A    between atoms: N_20  and  C_21
REMARK    8  A    between atoms: C_21  and  C_22
REMARK    9  A    between atoms: C_22  and  C_23
REMARK                            x       y       z     vdW  Elec       q    Type
REMARK                         _______ _______ _______ _____ _____    ______ ____
ROOT
ATOM      1  N   UNL     1       3.974   5.095  17.782  0.00  0.00    +0.000 N 
ATOM      2  C   UNL     1       3.604   6.449  17.826  0.00  0.00    +0.000 A 
ATOM      3  O   UNL     1       3.969   7.293  17.012  0.00  0.00    +0.000 OA
ATOM      4  C   UNL     1       2.752   6.768  18.948  0.00  0.00    +0.000 A 
ATOM      5  N   UNL     1       2.196   7.977  19.277  0.00  0.00    +0.000 NA
ATOM      6  C   UNL     1       1.523   7.764  20.393  0.00  0.00    +0.000 A 
ATOM      7  N   UNL     1       1.623   6.441  20.781  0.00  0.00    +0.000 N 
ATOM      8  C   UNL     1       2.428   5.816  19.868  0.00  0.00    +0.000 A 
ATOM      9  N   UNL     1       2.875   4.508  19.854  0.00  0.00    +0.000 N 
ATOM     10  C   UNL     1       3.701   4.128  18.775  0.00  0.00    +0.000 A 
ATOM     11  O   UNL     1       4.178   2.989  18.709  0.00  0.00    +0.000 OA
ATOM     12  H   UNL     1       1.183   6.033  21.588  0.00  0.00    +0.000 HD
ENDROOT
BRANCH   6  13
ATOM     13  C   UNL     1       0.747   8.795  21.172  0.00  0.00    +0.000 C 
ATOM     14  C   UNL     1       1.528   9.232  22.421  0.00  0.00    +0.000 C 
BRANCH  13  15
ATOM     15  C   UNL     1       0.376   9.999  20.320  0.00  0.00    +0.000 A 
ATOM     16  C   UNL     1       1.065  11.214  20.466  0.00  0.00    +0.000 A 
ATOM     17  C   UNL     1       0.744  12.314  19.668  0.00  0.00    +0.000 A 
ATOM     18  C   UNL     1      -0.264  12.213  18.710  0.00  0.00    +0.000 A 
ATOM     19  C   UNL     1      -0.956  11.016  18.553  0.00  0.00    +0.000 A 
ATOM     20  C   UNL     1      -0.639   9.917  19.352  0.00  0.00    +0.000 A 
ENDBRANCH  13  15
ENDBRANCH   6  13
BRANCH   1  21
ATOM     21  C   UNL     1       4.813   4.682  16.660  0.00  0.00    +0.000 C 
BRANCH  21  23
ATOM     22  C   UNL     1       7.137   5.051  15.659  0.00  0.00    +0.000 C 
ATOM     23  C   UNL     1       6.316   4.836  16.922  0.00  0.00    +0.000 C 
ENDBRANCH  21  23
ENDBRANCH   1  21
BRANCH   9  24
ATOM     24  C   UNL     1       2.609   3.537  20.915  0.00  0.00    +0.000 C 
BRANCH  24  25
ATOM     25  C   UNL     1       1.199   2.943  20.891  0.00  0.00    +0.000 C 
ATOM     26  C   UNL     1       0.751   2.473  19.515  0.00  0.00    +0.000 C 
ENDBRANCH  24  25
ENDBRANCH   9  24
TORSDOF 6
ENDMDL
MODEL 5
REMARK VINA RESULT:      -7.3      4.057      8.628
REMARK  Name = 
REMARK  9 active torsions:
REMARK  status: ('A' for Active; 'I' for Inactive)
REMARK    1  A    between atoms: C_1  and  C_2
REMARK    2  A    between atoms: C_2  and  C_3
REMARK    3  A    between atoms: C_3  and  N_4
REMARK    4  A    between atoms: C_9  and  C_10
REMARK    5  A    between atoms: C_10  and  C_11
REMARK    6  A    between atoms: C_10  and  C_12
REMARK    7  A    between atoms: N_20  and  C_21
REMARK    8  A    between atoms: C_21  and  C_22
REMARK    9  A    between atoms: C_22  and  C_23
REMARK                            x       y       z     vdW  Elec       q    Type
REMARK                         _______ _______ _______ _____ _____    ______ ____
ROOT
ATOM      1  N   UNL     1       4.903   5.039  17.271  0.00  0.00    +0.000 N 
ATOM      2  C   UNL     1       4.858   6.438  17.165  0.00  0.00    +0.000 A 
ATOM      3  O   UNL     1       5.756   7.125  16.684  0.00  0.00    +0.000 OA
ATOM      4  C   UNL     1       3.645   7.010  17.701  0.00  0.00    +0.000 A 
ATOM      5  N   UNL     1       3.270   8.328  17.740  0.00  0.00    +0.000 NA
ATOM      6  C   UNL     1       2.096   8.343  18.344  0.00  0.00    +0.000 A 
ATOM      7  N   UNL     1       1.701   7.061  18.682  0.00  0.00    +0.000 N 
ATOM      8  C   UNL     1       2.704   6.217  18.290  0.00  0.00    +0.000 A 
ATOM      9  N   UNL     1       2.808   4.850  18.462  0.00  0.00    +0.000 N 
ATOM     10  C   UNL     1       3.965   4.228  17.948  0.00  0.00    +0.000 A 
ATOM     11  O   UNL     1       4.155   3.015  18.097  0.00  0.00    +0.000 OA
ATOM     12  H   UNL     1       0.837   6.815  19.133  0.00  0.00    +0.000 HD
ENDROOT
BRANCH   6  13
ATOM     13  C   UNL     1       1.270   9.566  18.649  0.00  0.00    +0.000 C 
ATOM     14  C   UNL     1       0.034   9.627  17.738  0.00  0.00    +0.000 C 
BRANCH  13  15
ATOM     15  C   UNL     1       0.864   9.633  20.114  0.00  0.00    +0.000 A 
ATOM     16  C   UNL     1      -0.204  10.450  20.519  0.00  0.00    +0.000 A 
ATOM     17  C   UNL     1      -0.595  10.494  21.859  0.00  0.00    +0.000 A 
ATOM     18  C   UNL     1       0.070   9.721  22.809  0.00  0.00    +0.000 A 
ATOM     19  C   UNL     1       1.130   8.906  22.422  0.00  0.00    +0.000 A 
ATOM     20  C   UNL     1       1.526   8.863  21.085  0.00  0.00    +0.000 A 
ENDBRANCH  13  15
ENDBRANCH   6  13
BRANCH   1  21
ATOM     21  C   UNL     1       6.086   4.378  16.724  0.00  0.00    +0.000 C 
BRANCH  21  23
ATOM     22  C   UNL     1       6.801   4.749  14.298  0.00  0.00    +0.000 C 
ATOM     23  C   UNL     1       5.935   3.950  15.260  0.00  0.00    +0.000 C 
ENDBRANCH  21  23
ENDBRANCH   1  21
BRANCH   9  24
ATOM     24  C   UNL     1       1.841   4.039  19.202  0.00  0.00    +0.000 C 
BRANCH  24  25
ATOM     25  C   UNL     1       1.997   4.099  20.723  0.00  0.00    +0.000 C 
ATOM     26  C   UNL     1       1.487   2.861  21.445  0.00  0.00    +0.000 C 
ENDBRANCH  24  25
ENDBRANCH   9  24
TORSDOF 6
ENDMDL
MODEL 6
REMARK VINA RESULT:      -7.3      4.093      8.707
REMARK  Name = 
REMARK  9 active torsions:
REMARK  status: ('A' for Active; 'I' for Inactive)
REMARK    1  A    between atoms: C_1  and  C_2
REMARK    2  A    between atoms: C_2  and  C_3
REMARK    3  A    between atoms: C_3  and  N_4
REMARK    4  A    between atoms: C_9  and  C_10
REMARK    5  A    between atoms: C_10  and  C_11
REMARK    6  A    between atoms: C_10  and  C_12
REMARK    7  A    between atoms: N_20  and  C_21
REMARK    8  A    between atoms: C_21  and  C_22
REMARK    9  A    between atoms: C_22  and  C_23
REMARK                            x       y       z     vdW  Elec       q    Type
REMARK                         _______ _______ _______ _____ _____    ______ ____
ROOT
ATOM      1  N   UNL     1       4.727   4.993  17.274  0.00  0.00    +0.000 N 
ATOM      2  C   UNL     1       4.753   6.397  17.256  0.00  0.00    +0.000 A 
ATOM      3  O   UNL     1       5.708   7.066  16.869  0.00  0.00    +0.000 OA
ATOM      4  C   UNL     1       3.538   6.994  17.758  0.00  0.00    +0.000 A 
ATOM      5  N   UNL     1       3.222   8.324  17.859  0.00  0.00    +0.000 NA
ATOM      6  C   UNL     1       2.017   8.360  18.397  0.00  0.00    +0.000 A 
ATOM      7  N   UNL     1       1.545   7.081  18.631  0.00  0.00    +0.000 N 
ATOM      8  C   UNL     1       2.529   6.215  18.243  0.00  0.00    +0.000 A 
ATOM      9  N   UNL     1       2.560   4.836  18.333  0.00  0.00    +0.000 N 
ATOM     10  C   UNL     1       3.716   4.189  17.846  0.00  0.00    +0.000 A 
ATOM     11  O   UNL     1       3.841   2.963  17.928  0.00  0.00    +0.000 OA
ATOM     12  H   UNL     1       0.646   6.851  19.017  0.00  0.00    +0.000 HD
ENDROOT
BRANCH   6  13
ATOM     13  C   UNL     1       1.232   9.602  18.733  0.00  0.00    +0.000 C 
ATOM     14  C   UNL     1       0.016   9.743  17.803  0.00  0.00    +0.000 C 
BRANCH  13  15
ATOM     15  C   UNL     1       0.800   9.631  20.191  0.00  0.00    +0.000 A 
ATOM     16  C   UNL     1       1.491   8.878  21.153  0.00  0.00    +0.000 A 
ATOM     17  C   UNL     1       1.114   8.923  22.497  0.00  0.00    +0.000 A 
ATOM     18  C   UNL     1       0.045   9.723  22.897  0.00  0.00    +0.000 A 
ATOM     19  C   UNL     1      -0.650  10.476  21.955  0.00  0.00    +0.000 A 
ATOM     20  C   UNL     1      -0.277  10.430  20.612  0.00  0.00    +0.000 A 
ENDBRANCH  13  15
ENDBRANCH   6  13
BRANCH   1  21
ATOM     21  C   UNL     1       5.909   4.309  16.754  0.00  0.00    +0.000 C 
BRANCH  21  23
ATOM     22  C   UNL     1       6.867   4.725  14.421  0.00  0.00    +0.000 C 
ATOM     23  C   UNL     1       5.830   3.990  15.256  0.00  0.00    +0.000 C 
ENDBRANCH  21  23
ENDBRANCH   1  21
BRANCH   9  24
ATOM     24  C   UNL     1       1.515   4.031  18.966  0.00  0.00    +0.000 C 
BRANCH  24  25
ATOM     25  C   UNL     1       1.402   4.218  20.480  0.00  0.00    +0.000 C 
ATOM     26  C   UNL     1       2.283   3.276  21.286  0.00  0.00    +0.000 C 
ENDBRANCH  24  25
ENDBRANCH   9  24
TORSDOF 6
ENDMDL
MODEL 7
REMARK VINA RESULT:      -7.2      4.355      8.863
REMARK  Name = 
REMARK  9 active torsions:
REMARK  status: ('A' for Active; 'I' for Inactive)
REMARK    1  A    between atoms: C_1  and  C_2
REMARK    2  A    between atoms: C_2  and  C_3
REMARK    3  A    between atoms: C_3  and  N_4
REMARK    4  A    between atoms: C_9  and  C_10
REMARK    5  A    between atoms: C_10  and  C_11
REMARK    6  A    between atoms: C_10  and  C_12
REMARK    7  A    between atoms: N_20  and  C_21
REMARK    8  A    between atoms: C_21  and  C_22
REMARK    9  A    between atoms: C_22  and  C_23
REMARK                            x       y       z     vdW  Elec       q    Type
REMARK                         _______ _______ _______ _____ _____    ______ ____
ROOT
ATOM      1  N   UNL     1       4.573   5.159  17.690  0.00  0.00    +0.000 N 
ATOM      2  C   UNL     1       4.291   6.445  17.201  0.00  0.00    +0.000 A 
ATOM      3  O   UNL     1       4.840   6.950  16.224  0.00  0.00    +0.000 OA
ATOM      4  C   UNL     1       3.290   7.140  17.975  0.00  0.00    +0.000 A 
ATOM      5  N   UNL     1       2.770   8.391  17.766  0.00  0.00    +0.000 NA
ATOM      6  C   UNL     1       1.910   8.585  18.750  0.00  0.00    +0.000 A 
ATOM      7  N   UNL     1       1.857   7.479  19.580  0.00  0.00    +0.000 N 
ATOM      8  C   UNL     1       2.757   6.571  19.094  0.00  0.00    +0.000 A 
ATOM      9  N   UNL     1       3.113   5.338  19.608  0.00  0.00    +0.000 N 
ATOM     10  C   UNL     1       4.077   4.601  18.889  0.00  0.00    +0.000 A 
ATOM     11  O   UNL     1       4.482   3.509  19.303  0.00  0.00    +0.000 OA
ATOM     12  H   UNL     1       1.264   7.381  20.386  0.00  0.00    +0.000 HD
ENDROOT
BRANCH   6  13
ATOM     13  C   UNL     1       1.086   9.826  18.978  0.00  0.00    +0.000 C 
ATOM     14  C   UNL     1      -0.066   9.906  17.964  0.00  0.00    +0.000 C 
BRANCH  13  15
ATOM     15  C   UNL     1       0.558   9.910  20.402  0.00  0.00    +0.000 A 
ATOM     16  C   UNL     1       1.129   9.131  21.421  0.00  0.00    +0.000 A 
ATOM     17  C   UNL     1       0.663   9.225  22.733  0.00  0.00    +0.000 A 
ATOM     18  C   UNL     1      -0.376  10.100  23.047  0.00  0.00    +0.000 A 
ATOM     19  C   UNL     1      -0.953  10.879  22.048  0.00  0.00    +0.000 A 
ATOM     20  C   UNL     1      -0.491  10.785  20.735  0.00  0.00    +0.000 A 
ENDBRANCH  13  15
ENDBRANCH   6  13
BRANCH   1  21
ATOM     21  C   UNL     1       5.556   4.376  16.944  0.00  0.00    +0.000 C 
BRANCH  21  23
ATOM     22  C   UNL     1       7.547   5.110  18.370  0.00  0.00    +0.000 C 
ATOM     23  C   UNL     1       6.968   4.971  16.969  0.00  0.00    +0.000 C 
ENDBRANCH  21  23
ENDBRANCH   1  21
BRANCH   9  24
ATOM     24  C   UNL     1       2.613   4.800  20.873  0.00  0.00    +0.000 C 
BRANCH  24  25
ATOM     25  C   UNL     1       1.331   3.973  20.747  0.00  0.00    +0.000 C 
ATOM     26  C   UNL     1       1.378   2.646  21.489  0.00  0.00    +0.000 C 
ENDBRANCH  24  25
ENDBRANCH   9  24
TORSDOF 6
ENDMDL
MODEL 8
REMARK VINA RESULT:      -7.2      4.759      8.653
REMARK  Name = 
REMARK  9 active torsions:
REMARK  status: ('A' for Active; 'I' for Inactive)
REMARK    1  A    between atoms: C_1  and  C_2
REMARK    2  A    between atoms: C_2  and  C_3
REMARK    3  A    between atoms: C_3  and  N_4
REMARK    4  A    between atoms: C_9  and  C_10
REMARK    5  A    between atoms: C_10  and  C_11
REMARK    6  A    between atoms: C_10  and  C_12
REMARK    7  A    between atoms: N_20  and  C_21
REMARK    8  A    between atoms: C_21  and  C_22
REMARK    9  A    between atoms: C_22  and  C_23
REMARK                            x       y       z     vdW  Elec       q    Type
REMARK                         _______ _______ _______ _____ _____    ______ ____
ROOT
ATOM      1  N   UNL     1       4.568   5.633  17.829  0.00  0.00    +0.000 N 
ATOM      2  C   UNL     1       4.294   6.863  17.207  0.00  0.00    +0.000 A 
ATOM      3  O   UNL     1       4.943   7.324  16.270  0.00  0.00    +0.000 OA
ATOM      4  C   UNL     1       3.172   7.558  17.792  0.00  0.00    +0.000 A 
ATOM      5  N   UNL     1       2.628   8.760  17.420  0.00  0.00    +0.000 NA
ATOM      6  C   UNL     1       1.641   8.978  18.269  0.00  0.00    +0.000 A 
ATOM      7  N   UNL     1       1.530   7.935  19.171  0.00  0.00    +0.000 N 
ATOM      8  C   UNL     1       2.524   7.043  18.876  0.00  0.00    +0.000 A 
ATOM      9  N   UNL     1       2.865   5.873  19.528  0.00  0.00    +0.000 N 
ATOM     10  C   UNL     1       3.947   5.139  18.997  0.00  0.00    +0.000 A 
ATOM     11  O   UNL     1       4.342   4.103  19.544  0.00  0.00    +0.000 OA
ATOM     12  H   UNL     1       0.843   7.864  19.902  0.00  0.00    +0.000 HD
ENDROOT
BRANCH   6  13
ATOM     13  C   UNL     1       0.740  10.186  18.293  0.00  0.00    +0.000 C 
ATOM     14  C   UNL     1      -0.518   9.909  19.132  0.00  0.00    +0.000 C 
BRANCH  13  15
ATOM     15  C   UNL     1       1.460  11.429  18.796  0.00  0.00    +0.000 A 
ATOM     16  C   UNL     1       1.262  11.883  20.109  0.00  0.00    +0.000 A 
ATOM     17  C   UNL     1       1.941  13.008  20.582  0.00  0.00    +0.000 A 
ATOM     18  C   UNL     1       2.828  13.691  19.751  0.00  0.00    +0.000 A 
ATOM     19  C   UNL     1       3.035  13.252  18.446  0.00  0.00    +0.000 A 
ATOM     20  C   UNL     1       2.356  12.130  17.971  0.00  0.00    +0.000 A 
ENDBRANCH  13  15
ENDBRANCH   6  13
BRANCH   1  21
ATOM     21  C   UNL     1       5.672   4.852  17.277  0.00  0.00    +0.000 C 
BRANCH  21  23
ATOM     22  C   UNL     1       6.146   3.996  14.915  0.00  0.00    +0.000 C 
ATOM     23  C   UNL     1       5.255   3.905  16.145  0.00  0.00    +0.000 C 
ENDBRANCH  21  23
ENDBRANCH   1  21
BRANCH   9  24
ATOM     24  C   UNL     1       2.230   5.403  20.759  0.00  0.00    +0.000 C 
BRANCH  24  25
ATOM     25  C   UNL     1       1.136   4.354  20.546  0.00  0.00    +0.000 C 
ATOM     26  C   UNL     1       1.398   3.037  21.260  0.00  0.00    +0.000 C 
ENDBRANCH  24  25
ENDBRANCH   9  24
TORSDOF 6
ENDMDL
MODEL 9
REMARK VINA RESULT:      -7.1      4.461      8.920
REMARK  Name = 
REMARK  9 active torsions:
REMARK  status: ('A' for Active; 'I' for Inactive)
REMARK    1  A    between atoms: C_1  and  C_2
REMARK    2  A    between atoms: C_2  and  C_3
REMARK    3  A    between atoms: C_3  and  N_4
REMARK    4  A    between atoms: C_9  and  C_10
REMARK    5  A    between atoms: C_10  and  C_11
REMARK    6  A    between atoms: C_10  and  C_12
REMARK    7  A    between atoms: N_20  and  C_21
REMARK    8  A    between atoms: C_21  and  C_22
REMARK    9  A    between atoms: C_22  and  C_23
REMARK                            x       y       z     vdW  Elec       q    Type
REMARK                         _______ _______ _______ _____ _____    ______ ____
ROOT
ATOM      1  N   UNL     1       4.582   5.331  17.827  0.00  0.00    +0.000 N 
ATOM      2  C   UNL     1       4.290   6.613  17.335  0.00  0.00    +0.000 A 
ATOM      3  O   UNL     1       4.874   7.143  16.393  0.00  0.00    +0.000 OA
ATOM      4  C   UNL     1       3.232   7.273  18.064  0.00  0.00    +0.000 A 
ATOM      5  N   UNL     1       2.689   8.511  17.839  0.00  0.00    +0.000 NA
ATOM      6  C   UNL     1       1.775   8.671  18.779  0.00  0.00    +0.000 A 
ATOM      7  N   UNL     1       1.711   7.557  19.596  0.00  0.00    +0.000 N 
ATOM      8  C   UNL     1       2.659   6.678  19.148  0.00  0.00    +0.000 A 
ATOM      9  N   UNL     1       3.022   5.450  19.669  0.00  0.00    +0.000 N 
ATOM     10  C   UNL     1       4.042   4.747  18.994  0.00  0.00    +0.000 A 
ATOM     11  O   UNL     1       4.455   3.662  19.419  0.00  0.00    +0.000 OA
ATOM     12  H   UNL     1       1.081   7.434  20.370  0.00  0.00    +0.000 HD
ENDROOT
BRANCH   6  13
ATOM     13  C   UNL     1       0.907   9.888  18.976  0.00  0.00    +0.000 C 
ATOM     14  C   UNL     1      -0.286   9.865  18.007  0.00  0.00    +0.000 C 
BRANCH  13  15
ATOM     15  C   UNL     1       0.430  10.026  20.414  0.00  0.00    +0.000 A 
ATOM     16  C   UNL     1      -0.578  10.945  20.744  0.00  0.00    +0.000 A 
ATOM     17  C   UNL     1      -1.036  11.056  22.059  0.00  0.00    +0.000 A 
ATOM     18  C   UNL     1      -0.497  10.248  23.058  0.00  0.00    +0.000 A 
ATOM     19  C   UNL     1       0.503   9.332  22.747  0.00  0.00    +0.000 A 
ATOM     20  C   UNL     1       0.965   9.221  21.435  0.00  0.00    +0.000 A 
ENDBRANCH  13  15
ENDBRANCH   6  13
BRANCH   1  21
ATOM     21  C   UNL     1       5.623   4.582  17.126  0.00  0.00    +0.000 C 
BRANCH  21  23
ATOM     22  C   UNL     1       7.545   5.941  18.124  0.00  0.00    +0.000 C 
ATOM     23  C   UNL     1       6.968   4.557  17.861  0.00  0.00    +0.000 C 
ENDBRANCH  21  23
ENDBRANCH   1  21
BRANCH   9  24
ATOM     24  C   UNL     1       2.474   4.887  20.903  0.00  0.00    +0.000 C 
BRANCH  24  25
ATOM     25  C   UNL     1       1.268   3.966  20.696  0.00  0.00    +0.000 C 
ATOM     26  C   UNL     1       1.348   2.662  21.475  0.00  0.00    +0.000 C 
ENDBRANCH  24  25
ENDBRANCH   9  24
TORSDOF 6
ENDMDL
