MODEL 1
REMARK VINA RESULT:      -7.5      0.000      0.000
REMARK  Name = 
REMARK  5 active torsions:
REMARK  status: ('A' for Active; 'I' for Inactive)
REMARK    1  A    between atoms: C_1  and  C_2
REMARK    2  A    between atoms: N_6  and  C_7
REMARK    3  A    between atoms: C_7  and  C_8
REMARK    4  A    between atoms: C_8  and  C_10
REMARK    5  A    between atoms: C_13  and  N_14
REMARK                            x       y       z     vdW  Elec       q    Type
REMARK                         _______ _______ _______ _____ _____    ______ ____
ROOT
ATOM      1  C   UNL     1       3.328   4.290  18.197  0.00  0.00    +0.000 C 
ENDROOT
BRANCH   1   7
ATOM      2  C   UNL     1       0.839   8.506  21.443  0.00  0.00    +0.000 C 
ATOM      3  C   UNL     1       1.503   7.444  20.622  0.00  0.00    +0.000 C 
ATOM      4  C   UNL     1       2.162   7.711  19.490  0.00  0.00    +0.000 C 
ATOM      5  C   UNL     1       2.837   6.695  18.666  0.00  0.00    +0.000 C 
ATOM      6  O   UNL     1       3.404   7.042  17.636  0.00  0.00    +0.000 OA
ATOM      7  N   UNL     1       2.833   5.359  19.096  0.00  0.00    +0.000 N 
ATOM      8  S   UNL     1       1.918   4.845  20.406  0.00  0.00    +0.000 S 
ATOM      9  O   UNL     1       0.768   4.147  19.877  0.00  0.00    +0.000 OA
ATOM     10  O   UNL     1       2.833   4.201  21.326  0.00  0.00    +0.000 OA
ATOM     11  O   UNL     1       1.373   6.185  21.148  0.00  0.00    +0.000 OA
ENDBRANCH   1   7
BRANCH   1  12
ATOM     12  C   UNL     1       4.824   4.079  18.154  0.00  0.00    +0.000 C 
ATOM     13  O   UNL     1       5.447   3.714  19.151  0.00  0.00    +0.000 OA
BRANCH  12  14
ATOM     14  C   UNL     1       5.581   4.358  16.897  0.00  0.00    +0.000 A 
ATOM     15  C   UNL     1       4.909   4.181  15.677  0.00  0.00    +0.000 A 
ATOM     16  C   UNL     1       5.565   4.394  14.461  0.00  0.00    +0.000 A 
ATOM     17  C   UNL     1       6.904   4.803  14.467  0.00  0.00    +0.000 A 
ATOM     18  C   UNL     1       7.576   5.013  15.679  0.00  0.00    +0.000 A 
ATOM     19  C   UNL     1       6.914   4.789  16.892  0.00  0.00    +0.000 A 
BRANCH  17  20
ATOM     20  N   UNL     1       7.612   5.004  13.196  0.00  0.00    +0.000 N 
ATOM     21  O   UNL     1       8.534   5.831  13.173  0.00  0.00    +0.000 OA
ATOM     22  O   UNL     1       7.241   4.335  12.220  0.00  0.00    +0.000 OA
ENDBRANCH  17  20
ENDBRANCH  12  14
ENDBRANCH   1  12
TORSDOF 4
ENDMDL
MODEL 2
REMARK VINA RESULT:      -7.4      0.080      1.230
REMARK  Name = 
REMARK  5 active torsions:
REMARK  status: ('A' for Active; 'I' for Inactive)
REMARK    1  A    between atoms: C_1  and  C_2
REMARK    2  A    between atoms: N_6  and  C_7
REMARK    3  A    between atoms: C_7  and  C_8
REMARK    4  A    between atoms: C_8  and  C_10
REMARK    5  A    between atoms: C_13  and  N_14
REMARK                            x       y       z     vdW  Elec       q    Type
REMARK                         _______ _______ _______ _____ _____    ______ ____
ROOT
ATOM      1  C   UNL     1       3.290   4.259  18.251  0.00  0.00    +0.000 C 
ENDROOT
BRANCH   1   7
ATOM      2  C   UNL     1       0.849   8.573  21.405  0.00  0.00    +0.000 C 
ATOM      3  C   UNL     1       1.501   7.486  20.607  0.00  0.00    +0.000 C 
ATOM      4  C   UNL     1       2.164   7.721  19.470  0.00  0.00    +0.000 C 
ATOM      5  C   UNL     1       2.827   6.680  18.668  0.00  0.00    +0.000 C 
ATOM      6  O   UNL     1       3.399   6.998  17.633  0.00  0.00    +0.000 OA
ATOM      7  N   UNL     1       2.807   5.353  19.127  0.00  0.00    +0.000 N 
ATOM      8  S   UNL     1       1.885   4.878  20.446  0.00  0.00    +0.000 S 
ATOM      9  O   UNL     1       0.727   4.182  19.931  0.00  0.00    +0.000 OA
ATOM     10  O   UNL     1       2.791   4.243  21.381  0.00  0.00    +0.000 OA
ATOM     11  O   UNL     1       1.356   6.240  21.160  0.00  0.00    +0.000 OA
ENDBRANCH   1   7
BRANCH   1  12
ATOM     12  C   UNL     1       4.787   4.072  18.163  0.00  0.00    +0.000 C 
ATOM     13  O   UNL     1       5.455   3.780  19.154  0.00  0.00    +0.000 OA
BRANCH  12  14
ATOM     14  C   UNL     1       5.490   4.288  16.862  0.00  0.00    +0.000 A 
ATOM     15  C   UNL     1       6.840   4.674  16.904  0.00  0.00    +0.000 A 
ATOM     16  C   UNL     1       7.549   4.923  15.726  0.00  0.00    +0.000 A 
ATOM     17  C   UNL     1       6.906   4.770  14.493  0.00  0.00    +0.000 A 
ATOM     18  C   UNL     1       5.568   4.356  14.437  0.00  0.00    +0.000 A 
ATOM     19  C   UNL     1       4.862   4.116  15.622  0.00  0.00    +0.000 A 
BRANCH  17  20
ATOM     20  N   UNL     1       7.633   5.056  13.249  0.00  0.00    +0.000 N 
ATOM     21  O   UNL     1       7.284   4.454  12.224  0.00  0.00    +0.000 OA
ATOM     22  O   UNL     1       8.558   5.879  13.301  0.00  0.00    +0.000 OA
ENDBRANCH  17  20
ENDBRANCH  12  14
ENDBRANCH   1  12
TORSDOF 4
ENDMDL
MODEL 3
REMARK VINA RESULT:      -7.0      2.406      3.195
REMARK  Name = 
REMARK  5 active torsions:
REMARK  status: ('A' for Active; 'I' for Inactive)
REMARK    1  A    between atoms: C_1  and  C_2
REMARK    2  A    between atoms: N_6  and  C_7
REMARK    3  A    between atoms: C_7  and  C_8
REMARK    4  A    between atoms: C_8  and  C_10
REMARK    5  A    between atoms: C_13  and  N_14
REMARK                            x       y       z     vdW  Elec       q    Type
REMARK                         _______ _______ _______ _____ _____    ______ ____
ROOT
ATOM      1  C   UNL     1       5.663   5.350  19.155  0.00  0.00    +0.000 C 
ENDROOT
BRANCH   1   7
ATOM      2  C   UNL     1       0.472   2.599  19.174  0.00  0.00    +0.000 C 
ATOM      3  C   UNL     1       1.806   3.279  19.146  0.00  0.00    +0.000 C 
ATOM      4  C   UNL     1       2.934   2.677  19.535  0.00  0.00    +0.000 C 
ATOM      5  C   UNL     1       4.262   3.310  19.509  0.00  0.00    +0.000 C 
ATOM      6  O   UNL     1       5.235   2.675  19.900  0.00  0.00    +0.000 OA
ATOM      7  N   UNL     1       4.383   4.618  19.012  0.00  0.00    +0.000 N 
ATOM      8  S   UNL     1       3.042   5.556  18.637  0.00  0.00    +0.000 S 
ATOM      9  O   UNL     1       2.882   6.520  19.704  0.00  0.00    +0.000 OA
ATOM     10  O   UNL     1       3.200   5.977  17.260  0.00  0.00    +0.000 OA
ATOM     11  O   UNL     1       1.753   4.567  18.679  0.00  0.00    +0.000 OA
ENDBRANCH   1   7
BRANCH   1  12
ATOM     12  C   UNL     1       6.824   4.853  18.325  0.00  0.00    +0.000 C 
ATOM     13  O   UNL     1       7.929   4.649  18.829  0.00  0.00    +0.000 OA
BRANCH  12  14
ATOM     14  C   UNL     1       6.656   4.643  16.856  0.00  0.00    +0.000 A 
ATOM     15  C   UNL     1       5.706   3.698  16.435  0.00  0.00    +0.000 A 
ATOM     16  C   UNL     1       5.518   3.429  15.077  0.00  0.00    +0.000 A 
ATOM     17  C   UNL     1       6.277   4.124  14.128  0.00  0.00    +0.000 A 
ATOM     18  C   UNL     1       7.206   5.092  14.535  0.00  0.00    +0.000 A 
ATOM     19  C   UNL     1       7.395   5.350  15.898  0.00  0.00    +0.000 A 
BRANCH  17  20
ATOM     20  N   UNL     1       6.109   3.830  12.699  0.00  0.00    +0.000 N 
ATOM     21  O   UNL     1       5.015   3.383  12.326  0.00  0.00    +0.000 OA
ATOM     22  O   UNL     1       7.074   4.044  11.951  0.00  0.00    +0.000 OA
ENDBRANCH  17  20
ENDBRANCH  12  14
ENDBRANCH   1  12
TORSDOF 4
ENDMDL
MODEL 4
REMARK VINA RESULT:      -7.0      2.826      6.537
REMARK  Name = 
REMARK  5 active torsions:
REMARK  status: ('A' for Active; 'I' for Inactive)
REMARK    1  A    between atoms: C_1  and  C_2
REMARK    2  A    between atoms: N_6  and  C_7
REMARK    3  A    between atoms: C_7  and  C_8
REMARK    4  A    between atoms: C_8  and  C_10
REMARK    5  A    between atoms: C_13  and  N_14
REMARK                            x       y       z     vdW  Elec       q    Type
REMARK                         _______ _______ _______ _____ _____    ______ ____
ROOT
ATOM      1  C   UNL     1       5.373   3.987  17.133  0.00  0.00    +0.000 C 
ENDROOT
BRANCH   1   7
ATOM      2  C   UNL     1       8.632   8.743  18.262  0.00  0.00    +0.000 C 
ATOM      3  C   UNL     1       7.779   7.541  17.996  0.00  0.00    +0.000 C 
ATOM      4  C   UNL     1       7.512   6.621  18.928  0.00  0.00    +0.000 C 
ATOM      5  C   UNL     1       6.668   5.437  18.705  0.00  0.00    +0.000 C 
ATOM      6  O   UNL     1       6.494   4.645  19.624  0.00  0.00    +0.000 OA
ATOM      7  N   UNL     1       6.062   5.260  17.450  0.00  0.00    +0.000 N 
ATOM      8  S   UNL     1       6.428   6.239  16.137  0.00  0.00    +0.000 S 
ATOM      9  O   UNL     1       7.291   5.477  15.262  0.00  0.00    +0.000 OA
ATOM     10  O   UNL     1       5.173   6.790  15.666  0.00  0.00    +0.000 OA
ATOM     11  O   UNL     1       7.298   7.486  16.713  0.00  0.00    +0.000 OA
ENDBRANCH   1   7
BRANCH   1  12
ATOM     12  C   UNL     1       3.973   3.820  17.679  0.00  0.00    +0.000 C 
ATOM     13  O   UNL     1       3.337   2.782  17.499  0.00  0.00    +0.000 OA
BRANCH  12  14
ATOM     14  C   UNL     1       3.319   4.945  18.412  0.00  0.00    +0.000 A 
ATOM     15  C   UNL     1       3.009   6.106  17.685  0.00  0.00    +0.000 A 
ATOM     16  C   UNL     1       2.426   7.209  18.315  0.00  0.00    +0.000 A 
ATOM     17  C   UNL     1       2.135   7.144  19.683  0.00  0.00    +0.000 A 
ATOM     18  C   UNL     1       2.413   5.980  20.412  0.00  0.00    +0.000 A 
ATOM     19  C   UNL     1       3.005   4.882  19.776  0.00  0.00    +0.000 A 
BRANCH  17  20
ATOM     20  N   UNL     1       1.548   8.307  20.361  0.00  0.00    +0.000 N 
ATOM     21  O   UNL     1       1.480   8.281  21.598  0.00  0.00    +0.000 OA
ATOM     22  O   UNL     1       1.149   9.244  19.654  0.00  0.00    +0.000 OA
ENDBRANCH  17  20
ENDBRANCH  12  14
ENDBRANCH   1  12
TORSDOF 4
ENDMDL
MODEL 5
REMARK VINA RESULT:      -6.9      2.761      6.689
REMARK  Name = 
REMARK  5 active torsions:
REMARK  status: ('A' for Active; 'I' for Inactive)
REMARK    1  A    between atoms: C_1  and  C_2
REMARK    2  A    between atoms: N_6  and  C_7
REMARK    3  A    between atoms: C_7  and  C_8
REMARK    4  A    between atoms: C_8  and  C_10
REMARK    5  A    between atoms: C_13  and  N_14
REMARK                            x       y       z     vdW  Elec       q    Type
REMARK                         _______ _______ _______ _____ _____    ______ ____
ROOT
ATOM      1  C   UNL     1       4.491   3.910  17.126  0.00  0.00    +0.000 C 
ENDROOT
BRANCH   1   7
ATOM      2  C   UNL     1       8.598   7.930  18.348  0.00  0.00    +0.000 C 
ATOM      3  C   UNL     1       7.531   6.919  18.059  0.00  0.00    +0.000 C 
ATOM      4  C   UNL     1       7.102   6.038  18.968  0.00  0.00    +0.000 C 
ATOM      5  C   UNL     1       6.048   5.042  18.722  0.00  0.00    +0.000 C 
ATOM      6  O   UNL     1       5.735   4.269  19.620  0.00  0.00    +0.000 OA
ATOM      7  N   UNL     1       5.410   5.020  17.471  0.00  0.00    +0.000 N 
ATOM      8  S   UNL     1       5.945   5.952  16.181  0.00  0.00    +0.000 S 
ATOM      9  O   UNL     1       6.643   5.068  15.274  0.00  0.00    +0.000 OA
ATOM     10  O   UNL     1       4.814   6.743  15.742  0.00  0.00    +0.000 OA
ATOM     11  O   UNL     1       7.040   6.995  16.781  0.00  0.00    +0.000 OA
ENDBRANCH   1   7
BRANCH   1  12
ATOM     12  C   UNL     1       3.037   4.095  17.494  0.00  0.00    +0.000 C 
ATOM     13  O   UNL     1       2.174   3.312  17.101  0.00  0.00    +0.000 OA
BRANCH  12  14
ATOM     14  C   UNL     1       2.619   5.273  18.312  0.00  0.00    +0.000 A 
ATOM     15  C   UNL     1       2.313   5.054  19.665  0.00  0.00    +0.000 A 
ATOM     16  C   UNL     1       1.884   6.105  20.481  0.00  0.00    +0.000 A 
ATOM     17  C   UNL     1       1.777   7.392  19.942  0.00  0.00    +0.000 A 
ATOM     18  C   UNL     1       2.109   7.629  18.601  0.00  0.00    +0.000 A 
ATOM     19  C   UNL     1       2.529   6.569  17.787  0.00  0.00    +0.000 A 
BRANCH  17  20
ATOM     20  N   UNL     1       1.302   8.499  20.781  0.00  0.00    +0.000 N 
ATOM     21  O   UNL     1       0.809   9.484  20.215  0.00  0.00    +0.000 OA
ATOM     22  O   UNL     1       1.427   8.383  22.009  0.00  0.00    +0.000 OA
ENDBRANCH  17  20
ENDBRANCH  12  14
ENDBRANCH   1  12
TORSDOF 4
ENDMDL
MODEL 6
REMARK VINA RESULT:      -6.9      2.735      6.713
REMARK  Name = 
REMARK  5 active torsions:
REMARK  status: ('A' for Active; 'I' for Inactive)
REMARK    1  A    between atoms: C_1  and  C_2
REMARK    2  A    between atoms: N_6  and  C_7
REMARK    3  A    between atoms: C_7  and  C_8
REMARK    4  A    between atoms: C_8  and  C_10
REMARK    5  A    between atoms: C_13  and  N_14
REMARK                            x       y       z     vdW  Elec       q    Type
REMARK                         _______ _______ _______ _____ _____    ______ ____
ROOT
ATOM      1  C   UNL     1       6.617   6.316  18.070  0.00  0.00    +0.000 C 
ENDROOT
BRANCH   1   7
ATOM      2  C   UNL     1       5.714   3.420  13.039  0.00  0.00    +0.000 C 
ATOM      3  C   UNL     1       5.973   4.169  14.310  0.00  0.00    +0.000 C 
ATOM      4  C   UNL     1       6.976   3.863  15.139  0.00  0.00    +0.000 C 
ATOM      5  C   UNL     1       7.268   4.586  16.387  0.00  0.00    +0.000 C 
ATOM      6  O   UNL     1       8.206   4.218  17.085  0.00  0.00    +0.000 OA
ATOM      7  N   UNL     1       6.477   5.694  16.732  0.00  0.00    +0.000 N 
ATOM      8  S   UNL     1       5.090   6.100  15.880  0.00  0.00    +0.000 S 
ATOM      9  O   UNL     1       3.959   5.684  16.680  0.00  0.00    +0.000 OA
ATOM     10  O   UNL     1       5.248   7.476  15.457  0.00  0.00    +0.000 OA
ATOM     11  O   UNL     1       5.089   5.193  14.530  0.00  0.00    +0.000 OA
ENDBRANCH   1   7
BRANCH   1  12
ATOM     12  C   UNL     1       6.368   5.422  19.263  0.00  0.00    +0.000 C 
ATOM     13  O   UNL     1       7.264   5.160  20.064  0.00  0.00    +0.000 OA
BRANCH  12  14
ATOM     14  C   UNL     1       5.023   4.802  19.461  0.00  0.00    +0.000 A 
ATOM     15  C   UNL     1       4.922   3.407  19.329  0.00  0.00    +0.000 A 
ATOM     16  C   UNL     1       3.689   2.764  19.469  0.00  0.00    +0.000 A 
ATOM     17  C   UNL     1       2.549   3.522  19.761  0.00  0.00    +0.000 A 
ATOM     18  C   UNL     1       2.644   4.910  19.926  0.00  0.00    +0.000 A 
ATOM     19  C   UNL     1       3.881   5.549  19.774  0.00  0.00    +0.000 A 
BRANCH  17  20
ATOM     20  N   UNL     1       1.243   2.860  19.884  0.00  0.00    +0.000 N 
ATOM     21  O   UNL     1       0.769   2.726  21.021  0.00  0.00    +0.000 OA
ATOM     22  O   UNL     1       0.696   2.472  18.842  0.00  0.00    +0.000 OA
ENDBRANCH  17  20
ENDBRANCH  12  14
ENDBRANCH   1  12
TORSDOF 4
ENDMDL
MODEL 7
REMARK VINA RESULT:      -6.9      2.877      6.617
REMARK  Name = 
REMARK  5 active torsions:
REMARK  status: ('A' for Active; 'I' for Inactive)
REMARK    1  A    between atoms: C_1  and  C_2
REMARK    2  A    between atoms: N_6  and  C_7
REMARK    3  A    between atoms: C_7  and  C_8
REMARK    4  A    between atoms: C_8  and  C_10
REMARK    5  A    between atoms: C_13  and  N_14
REMARK                            x       y       z     vdW  Elec       q    Type
REMARK                         _______ _______ _______ _____ _____    ______ ____
ROOT
ATOM      1  C   UNL     1       5.637   4.008  17.359  0.00  0.00    +0.000 C 
ENDROOT
BRANCH   1   7
ATOM      2  C   UNL     1       8.744   8.924  18.192  0.00  0.00    +0.000 C 
ATOM      3  C   UNL     1       7.929   7.683  18.001  0.00  0.00    +0.000 C 
ATOM      4  C   UNL     1       7.680   6.820  18.990  0.00  0.00    +0.000 C 
ATOM      5  C   UNL     1       6.873   5.598  18.841  0.00  0.00    +0.000 C 
ATOM      6  O   UNL     1       6.714   4.865  19.809  0.00  0.00    +0.000 OA
ATOM      7  N   UNL     1       6.285   5.320  17.596  0.00  0.00    +0.000 N 
ATOM      8  S   UNL     1       6.636   6.219  16.223  0.00  0.00    +0.000 S 
ATOM      9  O   UNL     1       7.529   5.427  15.408  0.00  0.00    +0.000 OA
ATOM     10  O   UNL     1       5.370   6.699  15.705  0.00  0.00    +0.000 OA
ATOM     11  O   UNL     1       7.463   7.527  16.720  0.00  0.00    +0.000 OA
ENDBRANCH   1   7
BRANCH   1  12
ATOM     12  C   UNL     1       4.176   3.898  17.731  0.00  0.00    +0.000 C 
ATOM     13  O   UNL     1       3.531   2.878  17.491  0.00  0.00    +0.000 OA
BRANCH  12  14
ATOM     14  C   UNL     1       3.477   5.058  18.360  0.00  0.00    +0.000 A 
ATOM     15  C   UNL     1       3.262   5.017  19.748  0.00  0.00    +0.000 A 
ATOM     16  C   UNL     1       2.586   6.053  20.397  0.00  0.00    +0.000 A 
ATOM     17  C   UNL     1       2.134   7.150  19.654  0.00  0.00    +0.000 A 
ATOM     18  C   UNL     1       2.370   7.216  18.274  0.00  0.00    +0.000 A 
ATOM     19  C   UNL     1       3.040   6.170  17.629  0.00  0.00    +0.000 A 
BRANCH  17  20
ATOM     20  N   UNL     1       1.399   8.232  20.321  0.00  0.00    +0.000 N 
ATOM     21  O   UNL     1       0.851   7.978  21.403  0.00  0.00    +0.000 OA
ATOM     22  O   UNL     1       1.367   9.336  19.758  0.00  0.00    +0.000 OA
ENDBRANCH  17  20
ENDBRANCH  12  14
ENDBRANCH   1  12
TORSDOF 4
ENDMDL
MODEL 8
REMARK VINA RESULT:      -6.9      1.970      2.677
REMARK  Name = 
REMARK  5 active torsions:
REMARK  status: ('A' for Active; 'I' for Inactive)
REMARK    1  A    between atoms: C_1  and  C_2
REMARK    2  A    between atoms: N_6  and  C_7
REMARK    3  A    between atoms: C_7  and  C_8
REMARK    4  A    between atoms: C_8  and  C_10
REMARK    5  A    between atoms: C_13  and  N_14
REMARK                            x       y       z     vdW  Elec       q    Type
REMARK                         _______ _______ _______ _____ _____    ______ ____
ROOT
ATOM      1  C   UNL     1       4.087   6.058  18.016  0.00  0.00    +0.000 C 
ENDROOT
BRANCH   1   7
ATOM      2  C   UNL     1       1.323   2.628  21.903  0.00  0.00    +0.000 C 
ATOM      3  C   UNL     1       2.043   3.518  20.937  0.00  0.00    +0.000 C 
ATOM      4  C   UNL     1       1.849   4.840  20.887  0.00  0.00    +0.000 C 
ATOM      5  C   UNL     1       2.548   5.745  19.960  0.00  0.00    +0.000 C 
ATOM      6  O   UNL     1       2.289   6.942  19.985  0.00  0.00    +0.000 OA
ATOM      7  N   UNL     1       3.513   5.213  19.089  0.00  0.00    +0.000 N 
ATOM      8  S   UNL     1       3.752   3.560  18.924  0.00  0.00    +0.000 S 
ATOM      9  O   UNL     1       3.141   3.162  17.675  0.00  0.00    +0.000 OA
ATOM     10  O   UNL     1       5.155   3.314  19.189  0.00  0.00    +0.000 OA
ATOM     11  O   UNL     1       2.918   2.846  20.123  0.00  0.00    +0.000 OA
ENDBRANCH   1   7
BRANCH   1  12
ATOM     12  C   UNL     1       5.522   5.783  17.631  0.00  0.00    +0.000 C 
ATOM     13  O   UNL     1       6.447   5.998  18.413  0.00  0.00    +0.000 OA
BRANCH  12  14
ATOM     14  C   UNL     1       5.844   5.282  16.260  0.00  0.00    +0.000 A 
ATOM     15  C   UNL     1       4.832   4.607  15.558  0.00  0.00    +0.000 A 
ATOM     16  C   UNL     1       5.073   4.084  14.284  0.00  0.00    +0.000 A 
ATOM     17  C   UNL     1       6.334   4.252  13.701  0.00  0.00    +0.000 A 
ATOM     18  C   UNL     1       7.342   4.951  14.380  0.00  0.00    +0.000 A 
ATOM     19  C   UNL     1       7.096   5.464  15.659  0.00  0.00    +0.000 A 
BRANCH  17  20
ATOM     20  N   UNL     1       6.608   3.684  12.374  0.00  0.00    +0.000 N 
ATOM     21  O   UNL     1       5.905   2.737  11.995  0.00  0.00    +0.000 OA
ATOM     22  O   UNL     1       7.530   4.184  11.715  0.00  0.00    +0.000 OA
ENDBRANCH  17  20
ENDBRANCH  12  14
ENDBRANCH   1  12
TORSDOF 4
ENDMDL
MODEL 9
REMARK VINA RESULT:      -6.8      2.705      6.683
REMARK  Name = 
REMARK  5 active torsions:
REMARK  status: ('A' for Active; 'I' for Inactive)
REMARK    1  A    between atoms: C_1  and  C_2
REMARK    2  A    between atoms: N_6  and  C_7
REMARK    3  A    between atoms: C_7  and  C_8
REMARK    4  A    between atoms: C_8  and  C_10
REMARK    5  A    between atoms: C_13  and  N_14
REMARK                            x       y       z     vdW  Elec       q    Type
REMARK                         _______ _______ _______ _____ _____    ______ ____
ROOT
ATOM      1  C   UNL     1       4.955   4.510  19.269  0.00  0.00    +0.000 C 
ENDROOT
BRANCH   1   7
ATOM      2  C   UNL     1       7.134   4.775  13.819  0.00  0.00    +0.000 C 
ATOM      3  C   UNL     1       6.580   4.674  15.208  0.00  0.00    +0.000 C 
ATOM      4  C   UNL     1       5.403   4.104  15.478  0.00  0.00    +0.000 C 
ATOM      5  C   UNL     1       4.835   3.976  16.830  0.00  0.00    +0.000 C 
ATOM      6  O   UNL     1       3.740   3.446  16.971  0.00  0.00    +0.000 OA
ATOM      7  N   UNL     1       5.578   4.444  17.926  0.00  0.00    +0.000 N 
ATOM      8  S   UNL     1       6.995   5.324  17.734  0.00  0.00    +0.000 S 
ATOM      9  O   UNL     1       6.679   6.708  18.005  0.00  0.00    +0.000 OA
ATOM     10  O   UNL     1       8.023   4.625  18.479  0.00  0.00    +0.000 OA
ATOM     11  O   UNL     1       7.401   5.216  16.163  0.00  0.00    +0.000 OA
ENDBRANCH   1   7
BRANCH   1  12
ATOM     12  C   UNL     1       3.473   4.799  19.315  0.00  0.00    +0.000 C 
ATOM     13  O   UNL     1       2.653   3.905  19.518  0.00  0.00    +0.000 OA
BRANCH  12  14
ATOM     14  C   UNL     1       2.975   6.186  19.065  0.00  0.00    +0.000 A 
ATOM     15  C   UNL     1       2.235   6.808  20.084  0.00  0.00    +0.000 A 
ATOM     16  C   UNL     1       1.712   8.092  19.905  0.00  0.00    +0.000 A 
ATOM     17  C   UNL     1       1.946   8.766  18.701  0.00  0.00    +0.000 A 
ATOM     18  C   UNL     1       2.709   8.168  17.689  0.00  0.00    +0.000 A 
ATOM     19  C   UNL     1       3.222   6.878  17.872  0.00  0.00    +0.000 A 
BRANCH  17  20
ATOM     20  N   UNL     1       1.379  10.105  18.491  0.00  0.00    +0.000 N 
ATOM     21  O   UNL     1       0.162  10.252  18.674  0.00  0.00    +0.000 OA
ATOM     22  O   UNL     1       2.152  11.007  18.139  0.00  0.00    +0.000 OA
ENDBRANCH  17  20
ENDBRANCH  12  14
ENDBRANCH   1  12
TORSDOF 4
ENDMDL
