MODEL 1
REMARK VINA RESULT:      -8.9      0.000      0.000
REMARK  Name = 
REMARK  4 active torsions:
REMARK  status: ('A' for Active; 'I' for Inactive)
REMARK    1  A    between atoms: C_2  and  C_3
REMARK    2  A    between atoms: C_2  and  C_16
REMARK    3  A    between atoms: C_4  and  C_5
REMARK    4  A    between atoms: C_19  and  C_20
REMARK                            x       y       z     vdW  Elec       q    Type
REMARK                         _______ _______ _______ _____ _____    ______ ____
ROOT
ATOM      1  C   UNL     1       1.937   5.767  20.545  0.00  0.00    +0.000 C 
ATOM      2  C   UNL     1       2.202   6.880  19.846  0.00  0.00    +0.000 C 
ENDROOT
BRANCH   2   3
ATOM      3  C   UNL     1       1.505   8.140  20.135  0.00  0.00    +0.000 A 
ATOM      4  C   UNL     1       0.907   8.294  21.389  0.00  0.00    +0.000 A 
ATOM      5  C   UNL     1       0.184   9.458  21.700  0.00  0.00    +0.000 A 
ATOM      6  C   UNL     1      -0.453   9.633  22.943  0.00  0.00    +0.000 A 
ATOM      7  C   UNL     1      -1.176  10.795  23.210  0.00  0.00    +0.000 A 
ATOM      8  C   UNL     1      -1.256  11.791  22.242  0.00  0.00    +0.000 A 
ATOM      9  C   UNL     1      -0.617  11.617  21.012  0.00  0.00    +0.000 A 
ATOM     10  C   UNL     1       0.098  10.465  20.714  0.00  0.00    +0.000 A 
ATOM     11  N   UNL     1       0.668  10.338  19.507  0.00  0.00    +0.000 NA
ATOM     12  C   UNL     1       1.345   9.196  19.240  0.00  0.00    +0.000 A 
ATOM     13 CL   UNL     1       1.971   9.157  17.637  0.00  0.00    +0.000 Cl
ENDBRANCH   2   3
BRANCH   1  15
ATOM     14  O   UNL     1       2.615   3.547  21.084  0.00  0.00    +0.000 OA
ATOM     15  C   UNL     1       2.739   4.524  20.352  0.00  0.00    +0.000 C 
BRANCH  15  16
ATOM     16  C   UNL     1       3.654   4.491  19.179  0.00  0.00    +0.000 A 
ATOM     17  C   UNL     1       3.197   3.991  17.955  0.00  0.00    +0.000 A 
ATOM     18  C   UNL     1       4.060   3.938  16.852  0.00  0.00    +0.000 A 
ATOM     19  C   UNL     1       5.388   4.379  16.961  0.00  0.00    +0.000 A 
ATOM     20  C   UNL     1       5.840   4.871  18.197  0.00  0.00    +0.000 A 
ATOM     21  C   UNL     1       4.980   4.924  19.297  0.00  0.00    +0.000 A 
BRANCH  19  22
ATOM     22  C   UNL     1       6.326   4.338  15.777  0.00  0.00    +0.000 C 
ATOM     23  F   UNL     1       6.133   3.261  14.966  0.00  0.00    +0.000 F 
ATOM     24  F   UNL     1       6.197   5.433  14.977  0.00  0.00    +0.000 F 
ATOM     25  F   UNL     1       7.636   4.298  16.146  0.00  0.00    +0.000 F 
ENDBRANCH  19  22
ENDBRANCH  15  16
ENDBRANCH   1  15
TORSDOF 4
ENDMDL
MODEL 2
REMARK VINA RESULT:      -8.9      4.561      8.969
REMARK  Name = 
REMARK  4 active torsions:
REMARK  status: ('A' for Active; 'I' for Inactive)
REMARK    1  A    between atoms: C_2  and  C_3
REMARK    2  A    between atoms: C_2  and  C_16
REMARK    3  A    between atoms: C_4  and  C_5
REMARK    4  A    between atoms: C_19  and  C_20
REMARK                            x       y       z     vdW  Elec       q    Type
REMARK                         _______ _______ _______ _____ _____    ______ ____
ROOT
ATOM      1  C   UNL     1       3.670   5.810  18.027  0.00  0.00    +0.000 C 
ATOM      2  C   UNL     1       4.840   5.163  17.930  0.00  0.00    +0.000 C 
ENDROOT
BRANCH   2   3
ATOM      3  C   UNL     1       5.593   5.144  16.669  0.00  0.00    +0.000 A 
ATOM      4  C   UNL     1       5.084   4.395  15.605  0.00  0.00    +0.000 A 
ATOM      5  C   UNL     1       5.789   4.301  14.392  0.00  0.00    +0.000 A 
ATOM      6  C   UNL     1       5.319   3.533  13.311  0.00  0.00    +0.000 A 
ATOM      7  C   UNL     1       6.054   3.451  12.129  0.00  0.00    +0.000 A 
ATOM      8  C   UNL     1       7.255   4.143  12.018  0.00  0.00    +0.000 A 
ATOM      9  C   UNL     1       7.716   4.911  13.091  0.00  0.00    +0.000 A 
ATOM     10  C   UNL     1       7.012   5.000  14.284  0.00  0.00    +0.000 A 
ATOM     11  N   UNL     1       7.514   5.727  15.291  0.00  0.00    +0.000 NA
ATOM     12  C   UNL     1       6.812   5.783  16.448  0.00  0.00    +0.000 A 
ATOM     13 CL   UNL     1       7.609   6.707  17.663  0.00  0.00    +0.000 Cl
ENDBRANCH   2   3
BRANCH   1  15
ATOM     14  O   UNL     1       3.067   5.108  20.223  0.00  0.00    +0.000 OA
ATOM     15  C   UNL     1       2.972   5.952  19.338  0.00  0.00    +0.000 C 
BRANCH  15  16
ATOM     16  C   UNL     1       2.207   7.209  19.557  0.00  0.00    +0.000 A 
ATOM     17  C   UNL     1       2.094   8.145  18.523  0.00  0.00    +0.000 A 
ATOM     18  C   UNL     1       1.392   9.340  18.730  0.00  0.00    +0.000 A 
ATOM     19  C   UNL     1       0.801   9.615  19.973  0.00  0.00    +0.000 A 
ATOM     20  C   UNL     1       0.928   8.674  21.008  0.00  0.00    +0.000 A 
ATOM     21  C   UNL     1       1.627   7.483  20.802  0.00  0.00    +0.000 A 
BRANCH  19  22
ATOM     22  C   UNL     1       0.032  10.895  20.208  0.00  0.00    +0.000 C 
ATOM     23  F   UNL     1      -0.159  11.181  21.526  0.00  0.00    +0.000 F 
ATOM     24  F   UNL     1       0.662  11.981  19.680  0.00  0.00    +0.000 F 
ATOM     25  F   UNL     1      -1.208  10.874  19.647  0.00  0.00    +0.000 F 
ENDBRANCH  19  22
ENDBRANCH  15  16
ENDBRANCH   1  15
TORSDOF 4
ENDMDL
MODEL 3
REMARK VINA RESULT:      -8.9      0.263      1.003
REMARK  Name = 
REMARK  4 active torsions:
REMARK  status: ('A' for Active; 'I' for Inactive)
REMARK    1  A    between atoms: C_2  and  C_3
REMARK    2  A    between atoms: C_2  and  C_16
REMARK    3  A    between atoms: C_4  and  C_5
REMARK    4  A    between atoms: C_19  and  C_20
REMARK                            x       y       z     vdW  Elec       q    Type
REMARK                         _______ _______ _______ _____ _____    ______ ____
ROOT
ATOM      1  C   UNL     1       1.730   5.929  20.533  0.00  0.00    +0.000 C 
ATOM      2  C   UNL     1       2.195   7.109  20.098  0.00  0.00    +0.000 C 
ENDROOT
BRANCH   2   3
ATOM      3  C   UNL     1       1.428   8.346  20.299  0.00  0.00    +0.000 A 
ATOM      4  C   UNL     1       0.825   8.556  21.542  0.00  0.00    +0.000 A 
ATOM      5  C   UNL     1       0.039   9.698  21.773  0.00  0.00    +0.000 A 
ATOM      6  C   UNL     1      -0.606   9.928  23.002  0.00  0.00    +0.000 A 
ATOM      7  C   UNL     1      -1.392  11.064  23.189  0.00  0.00    +0.000 A 
ATOM      8  C   UNL     1      -1.529  11.980  22.152  0.00  0.00    +0.000 A 
ATOM      9  C   UNL     1      -0.884  11.754  20.934  0.00  0.00    +0.000 A 
ATOM     10  C   UNL     1      -0.106  10.625  20.716  0.00  0.00    +0.000 A 
ATOM     11  N   UNL     1       0.468  10.443  19.519  0.00  0.00    +0.000 NA
ATOM     12  C   UNL     1       1.208   9.324  19.331  0.00  0.00    +0.000 A 
ATOM     13 CL   UNL     1       1.833   9.204  17.731  0.00  0.00    +0.000 Cl
ENDBRANCH   2   3
BRANCH   1  15
ATOM     14  O   UNL     1       2.443   3.775  21.261  0.00  0.00    +0.000 OA
ATOM     15  C   UNL     1       2.564   4.695  20.458  0.00  0.00    +0.000 C 
BRANCH  15  16
ATOM     16  C   UNL     1       3.509   4.592  19.313  0.00  0.00    +0.000 A 
ATOM     17  C   UNL     1       4.833   5.018  19.464  0.00  0.00    +0.000 A 
ATOM     18  C   UNL     1       5.722   4.943  18.383  0.00  0.00    +0.000 A 
ATOM     19  C   UNL     1       5.297   4.448  17.141  0.00  0.00    +0.000 A 
ATOM     20  C   UNL     1       3.963   4.032  16.996  0.00  0.00    +0.000 A 
ATOM     21  C   UNL     1       3.076   4.106  18.073  0.00  0.00    +0.000 A 
BRANCH  19  22
ATOM     22  C   UNL     1       6.247   4.351  15.969  0.00  0.00    +0.000 C 
ATOM     23  F   UNL     1       6.050   3.246  15.198  0.00  0.00    +0.000 F 
ATOM     24  F   UNL     1       6.137   5.415  15.126  0.00  0.00    +0.000 F 
ATOM     25  F   UNL     1       7.552   4.312  16.353  0.00  0.00    +0.000 F 
ENDBRANCH  19  22
ENDBRANCH  15  16
ENDBRANCH   1  15
TORSDOF 4
ENDMDL
MODEL 4
REMARK VINA RESULT:      -8.9      4.613      9.002
REMARK  Name = 
REMARK  4 active torsions:
REMARK  status: ('A' for Active; 'I' for Inactive)
REMARK    1  A    between atoms: C_2  and  C_3
REMARK    2  A    between atoms: C_2  and  C_16
REMARK    3  A    between atoms: C_4  and  C_5
REMARK    4  A    between atoms: C_19  and  C_20
REMARK                            x       y       z     vdW  Elec       q    Type
REMARK                         _______ _______ _______ _____ _____    ______ ____
ROOT
ATOM      1  C   UNL     1       3.665   5.913  18.027  0.00  0.00    +0.000 C 
ATOM      2  C   UNL     1       4.790   5.190  17.923  0.00  0.00    +0.000 C 
ENDROOT
BRANCH   2   3
ATOM      3  C   UNL     1       5.556   5.157  16.671  0.00  0.00    +0.000 A 
ATOM      4  C   UNL     1       5.048   4.413  15.603  0.00  0.00    +0.000 A 
ATOM      5  C   UNL     1       5.765   4.306  14.398  0.00  0.00    +0.000 A 
ATOM      6  C   UNL     1       5.296   3.542  13.313  0.00  0.00    +0.000 A 
ATOM      7  C   UNL     1       6.043   3.446  12.140  0.00  0.00    +0.000 A 
ATOM      8  C   UNL     1       7.255   4.121  12.041  0.00  0.00    +0.000 A 
ATOM      9  C   UNL     1       7.715   4.884  13.117  0.00  0.00    +0.000 A 
ATOM     10  C   UNL     1       6.999   4.986  14.302  0.00  0.00    +0.000 A 
ATOM     11  N   UNL     1       7.500   5.709  15.313  0.00  0.00    +0.000 NA
ATOM     12  C   UNL     1       6.786   5.777  16.462  0.00  0.00    +0.000 A 
ATOM     13 CL   UNL     1       7.583   6.693  17.684  0.00  0.00    +0.000 Cl
ENDBRANCH   2   3
BRANCH   1  15
ATOM     14  O   UNL     1       3.048   5.223  20.223  0.00  0.00    +0.000 OA
ATOM     15  C   UNL     1       2.961   6.063  19.333  0.00  0.00    +0.000 C 
BRANCH  15  16
ATOM     16  C   UNL     1       2.199   7.324  19.543  0.00  0.00    +0.000 A 
ATOM     17  C   UNL     1       1.586   7.569  20.777  0.00  0.00    +0.000 A 
ATOM     18  C   UNL     1       0.850   8.745  20.974  0.00  0.00    +0.000 A 
ATOM     19  C   UNL     1       0.714   9.685  19.941  0.00  0.00    +0.000 A 
ATOM     20  C   UNL     1       1.325   9.425  18.703  0.00  0.00    +0.000 A 
ATOM     21  C   UNL     1       2.059   8.254  18.506  0.00  0.00    +0.000 A 
BRANCH  19  22
ATOM     22  C   UNL     1      -0.068  10.963  20.142  0.00  0.00    +0.000 C 
ATOM     23  F   UNL     1      -0.967  10.896  21.162  0.00  0.00    +0.000 F 
ATOM     24  F   UNL     1       0.739  12.022  20.428  0.00  0.00    +0.000 F 
ATOM     25  F   UNL     1      -0.780  11.323  19.039  0.00  0.00    +0.000 F 
ENDBRANCH  19  22
ENDBRANCH  15  16
ENDBRANCH   1  15
TORSDOF 4
ENDMDL
MODEL 5
REMARK VINA RESULT:      -8.5      5.577      9.236
REMARK  Name = 
REMARK  4 active torsions:
REMARK  status: ('A' for Active; 'I' for Inactive)
REMARK    1  A    between atoms: C_2  and  C_3
REMARK    2  A    between atoms: C_2  and  C_16
REMARK    3  A    between atoms: C_4  and  C_5
REMARK    4  A    between atoms: C_19  and  C_20
REMARK                            x       y       z     vdW  Elec       q    Type
REMARK                         _______ _______ _______ _____ _____    ______ ____
ROOT
ATOM      1  C   UNL     1       1.385   9.195  18.362  0.00  0.00    +0.000 C 
ATOM      2  C   UNL     1       1.964   8.327  19.204  0.00  0.00    +0.000 C 
ENDROOT
BRANCH   2   3
ATOM      3  C   UNL     1       2.693   7.155  18.699  0.00  0.00    +0.000 A 
ATOM      4  C   UNL     1       3.557   7.329  17.615  0.00  0.00    +0.000 A 
ATOM      5  C   UNL     1       4.241   6.233  17.061  0.00  0.00    +0.000 A 
ATOM      6  C   UNL     1       5.097   6.368  15.952  0.00  0.00    +0.000 A 
ATOM      7  C   UNL     1       5.745   5.255  15.419  0.00  0.00    +0.000 A 
ATOM      8  C   UNL     1       5.550   4.005  15.997  0.00  0.00    +0.000 A 
ATOM      9  C   UNL     1       4.704   3.874  17.101  0.00  0.00    +0.000 A 
ATOM     10  C   UNL     1       4.036   4.963  17.644  0.00  0.00    +0.000 A 
ATOM     11  N   UNL     1       3.215   4.777  18.687  0.00  0.00    +0.000 NA
ATOM     12  C   UNL     1       2.564   5.855  19.185  0.00  0.00    +0.000 A 
ATOM     13 CL   UNL     1       1.506   5.450  20.482  0.00  0.00    +0.000 Cl
ENDBRANCH   2   3
BRANCH   1  15
ATOM     14  O   UNL     1       1.413  11.306  19.468  0.00  0.00    +0.000 OA
ATOM     15  C   UNL     1       0.768  10.458  18.860  0.00  0.00    +0.000 C 
BRANCH  15  16
ATOM     16  C   UNL     1      -0.664  10.684  18.522  0.00  0.00    +0.000 A 
ATOM     17  C   UNL     1      -1.402  11.643  19.225  0.00  0.00    +0.000 A 
ATOM     18  C   UNL     1      -2.756  11.845  18.924  0.00  0.00    +0.000 A 
ATOM     19  C   UNL     1      -3.387  11.089  17.924  0.00  0.00    +0.000 A 
ATOM     20  C   UNL     1      -2.640  10.123  17.230  0.00  0.00    +0.000 A 
ATOM     21  C   UNL     1      -1.290   9.921  17.529  0.00  0.00    +0.000 A 
BRANCH  19  22
ATOM     22  C   UNL     1      -4.843  11.304  17.582  0.00  0.00    +0.000 C 
ATOM     23  F   UNL     1      -5.297  12.550  17.891  0.00  0.00    +0.000 F 
ATOM     24  F   UNL     1      -5.092  11.138  16.253  0.00  0.00    +0.000 F 
ATOM     25  F   UNL     1      -5.669  10.435  18.227  0.00  0.00    +0.000 F 
ENDBRANCH  19  22
ENDBRANCH  15  16
ENDBRANCH   1  15
TORSDOF 4
ENDMDL
MODEL 6
REMARK VINA RESULT:      -8.5      5.676      8.923
REMARK  Name = 
REMARK  4 active torsions:
REMARK  status: ('A' for Active; 'I' for Inactive)
REMARK    1  A    between atoms: C_2  and  C_3
REMARK    2  A    between atoms: C_2  and  C_16
REMARK    3  A    between atoms: C_4  and  C_5
REMARK    4  A    between atoms: C_19  and  C_20
REMARK                            x       y       z     vdW  Elec       q    Type
REMARK                         _______ _______ _______ _____ _____    ______ ____
ROOT
ATOM      1  C   UNL     1       1.748   8.724  18.433  0.00  0.00    +0.000 C 
ATOM      2  C   UNL     1       2.837   8.232  17.824  0.00  0.00    +0.000 C 
ENDROOT
BRANCH   2   3
ATOM      3  C   UNL     1       3.112   6.790  17.813  0.00  0.00    +0.000 A 
ATOM      4  C   UNL     1       2.073   5.914  18.142  0.00  0.00    +0.000 A 
ATOM      5  C   UNL     1       2.294   4.528  18.195  0.00  0.00    +0.000 A 
ATOM      6  C   UNL     1       1.279   3.621  18.550  0.00  0.00    +0.000 A 
ATOM      7  C   UNL     1       1.540   2.252  18.609  0.00  0.00    +0.000 A 
ATOM      8  C   UNL     1       2.813   1.783  18.303  0.00  0.00    +0.000 A 
ATOM      9  C   UNL     1       3.818   2.685  17.945  0.00  0.00    +0.000 A 
ATOM     10  C   UNL     1       3.590   4.053  17.891  0.00  0.00    +0.000 A 
ATOM     11  N   UNL     1       4.598   4.876  17.569  0.00  0.00    +0.000 NA
ATOM     12  C   UNL     1       4.348   6.207  17.541  0.00  0.00    +0.000 A 
ATOM     13 CL   UNL     1       5.749   7.135  17.166  0.00  0.00    +0.000 Cl
ENDBRANCH   2   3
BRANCH   1  15
ATOM     14  O   UNL     1       2.239  11.045  18.216  0.00  0.00    +0.000 OA
ATOM     15  C   UNL     1       1.389  10.168  18.328  0.00  0.00    +0.000 C 
BRANCH  15  16
ATOM     16  C   UNL     1      -0.061  10.497  18.290  0.00  0.00    +0.000 A 
ATOM     17  C   UNL     1      -0.551  11.570  19.044  0.00  0.00    +0.000 A 
ATOM     18  C   UNL     1      -1.919  11.872  19.028  0.00  0.00    +0.000 A 
ATOM     19  C   UNL     1      -2.812  11.104  18.265  0.00  0.00    +0.000 A 
ATOM     20  C   UNL     1      -2.313  10.024  17.519  0.00  0.00    +0.000 A 
ATOM     21  C   UNL     1      -0.949   9.722  17.534  0.00  0.00    +0.000 A 
BRANCH  19  22
ATOM     22  C   UNL     1      -4.289  11.425  18.230  0.00  0.00    +0.000 C 
ATOM     23  F   UNL     1      -4.675  12.093  17.108  0.00  0.00    +0.000 F 
ATOM     24  F   UNL     1      -5.062  10.305  18.279  0.00  0.00    +0.000 F 
ATOM     25  F   UNL     1      -4.684  12.198  19.279  0.00  0.00    +0.000 F 
ENDBRANCH  19  22
ENDBRANCH  15  16
ENDBRANCH   1  15
TORSDOF 4
ENDMDL
MODEL 7
REMARK VINA RESULT:      -8.5      5.742      8.947
REMARK  Name = 
REMARK  4 active torsions:
REMARK  status: ('A' for Active; 'I' for Inactive)
REMARK    1  A    between atoms: C_2  and  C_3
REMARK    2  A    between atoms: C_2  and  C_16
REMARK    3  A    between atoms: C_4  and  C_5
REMARK    4  A    between atoms: C_19  and  C_20
REMARK                            x       y       z     vdW  Elec       q    Type
REMARK                         _______ _______ _______ _____ _____    ______ ____
ROOT
ATOM      1  C   UNL     1       1.564   8.698  18.350  0.00  0.00    +0.000 C 
ATOM      2  C   UNL     1       2.782   8.269  17.990  0.00  0.00    +0.000 C 
ENDROOT
BRANCH   2   3
ATOM      3  C   UNL     1       3.077   6.834  17.881  0.00  0.00    +0.000 A 
ATOM      4  C   UNL     1       2.077   5.923  18.229  0.00  0.00    +0.000 A 
ATOM      5  C   UNL     1       2.322   4.540  18.191  0.00  0.00    +0.000 A 
ATOM      6  C   UNL     1       1.346   3.596  18.562  0.00  0.00    +0.000 A 
ATOM      7  C   UNL     1       1.631   2.232  18.527  0.00  0.00    +0.000 A 
ATOM      8  C   UNL     1       2.888   1.804  18.112  0.00  0.00    +0.000 A 
ATOM      9  C   UNL     1       3.853   2.743  17.738  0.00  0.00    +0.000 A 
ATOM     10  C   UNL     1       3.601   4.107  17.775  0.00  0.00    +0.000 A 
ATOM     11  N   UNL     1       4.572   4.965  17.433  0.00  0.00    +0.000 NA
ATOM     12  C   UNL     1       4.301   6.291  17.495  0.00  0.00    +0.000 A 
ATOM     13 CL   UNL     1       5.660   7.264  17.080  0.00  0.00    +0.000 Cl
ENDBRANCH   2   3
BRANCH   1  15
ATOM     14  O   UNL     1       2.076  11.025  18.277  0.00  0.00    +0.000 OA
ATOM     15  C   UNL     1       1.218  10.149  18.326  0.00  0.00    +0.000 C 
BRANCH  15  16
ATOM     16  C   UNL     1      -0.229  10.493  18.290  0.00  0.00    +0.000 A 
ATOM     17  C   UNL     1      -1.085   9.812  17.416  0.00  0.00    +0.000 A 
ATOM     18  C   UNL     1      -2.445  10.146  17.363  0.00  0.00    +0.000 A 
ATOM     19  C   UNL     1      -2.963  11.165  18.177  0.00  0.00    +0.000 A 
ATOM     20  C   UNL     1      -2.095  11.850  19.043  0.00  0.00    +0.000 A 
ATOM     21  C   UNL     1      -0.739  11.517  19.097  0.00  0.00    +0.000 A 
BRANCH  19  22
ATOM     22  C   UNL     1      -4.429  11.529  18.137  0.00  0.00    +0.000 C 
ATOM     23  F   UNL     1      -5.257  10.484  18.418  0.00  0.00    +0.000 F 
ATOM     24  F   UNL     1      -4.744  12.504  19.035  0.00  0.00    +0.000 F 
ATOM     25  F   UNL     1      -4.822  12.000  16.922  0.00  0.00    +0.000 F 
ENDBRANCH  19  22
ENDBRANCH  15  16
ENDBRANCH   1  15
TORSDOF 4
ENDMDL
MODEL 8
REMARK VINA RESULT:      -8.4      0.668      1.043
REMARK  Name = 
REMARK  4 active torsions:
REMARK  status: ('A' for Active; 'I' for Inactive)
REMARK    1  A    between atoms: C_2  and  C_3
REMARK    2  A    between atoms: C_2  and  C_16
REMARK    3  A    between atoms: C_4  and  C_5
REMARK    4  A    between atoms: C_19  and  C_20
REMARK                            x       y       z     vdW  Elec       q    Type
REMARK                         _______ _______ _______ _____ _____    ______ ____
ROOT
ATOM      1  C   UNL     1       1.588   6.361  20.191  0.00  0.00    +0.000 C 
ATOM      2  C   UNL     1       2.034   7.556  20.603  0.00  0.00    +0.000 C 
ENDROOT
BRANCH   2   3
ATOM      3  C   UNL     1       1.144   8.724  20.641  0.00  0.00    +0.000 A 
ATOM      4  C   UNL     1       0.559   9.073  21.862  0.00  0.00    +0.000 A 
ATOM      5  C   UNL     1      -0.339  10.150  21.945  0.00  0.00    +0.000 A 
ATOM      6  C   UNL     1      -0.967  10.511  23.152  0.00  0.00    +0.000 A 
ATOM      7  C   UNL     1      -1.865  11.576  23.192  0.00  0.00    +0.000 A 
ATOM      8  C   UNL     1      -2.133  12.292  22.030  0.00  0.00    +0.000 A 
ATOM      9  C   UNL     1      -1.503  11.936  20.834  0.00  0.00    +0.000 A 
ATOM     10  C   UNL     1      -0.615  10.872  20.762  0.00  0.00    +0.000 A 
ATOM     11  N   UNL     1      -0.061  10.557  19.584  0.00  0.00    +0.000 NA
ATOM     12  C   UNL     1       0.790   9.503  19.542  0.00  0.00    +0.000 A 
ATOM     13 CL   UNL     1       1.376   9.188  17.954  0.00  0.00    +0.000 Cl
ENDBRANCH   2   3
BRANCH   1  15
ATOM     14  O   UNL     1       2.304   4.312  21.176  0.00  0.00    +0.000 OA
ATOM     15  C   UNL     1       2.444   5.143  20.283  0.00  0.00    +0.000 C 
BRANCH  15  16
ATOM     16  C   UNL     1       3.437   4.936  19.195  0.00  0.00    +0.000 A 
ATOM     17  C   UNL     1       3.081   4.201  18.059  0.00  0.00    +0.000 A 
ATOM     18  C   UNL     1       4.019   3.986  17.040  0.00  0.00    +0.000 A 
ATOM     19  C   UNL     1       5.321   4.498  17.147  0.00  0.00    +0.000 A 
ATOM     20  C   UNL     1       5.671   5.227  18.295  0.00  0.00    +0.000 A 
ATOM     21  C   UNL     1       4.737   5.442  19.311  0.00  0.00    +0.000 A 
BRANCH  19  22
ATOM     22  C   UNL     1       6.339   4.283  16.051  0.00  0.00    +0.000 C 
ATOM     23  F   UNL     1       7.619   4.188  16.508  0.00  0.00    +0.000 F 
ATOM     24  F   UNL     1       6.110   3.137  15.350  0.00  0.00    +0.000 F 
ATOM     25  F   UNL     1       6.344   5.288  15.133  0.00  0.00    +0.000 F 
ENDBRANCH  19  22
ENDBRANCH  15  16
ENDBRANCH   1  15
TORSDOF 4
ENDMDL
MODEL 9
REMARK VINA RESULT:      -8.4      5.560      9.183
REMARK  Name = 
REMARK  4 active torsions:
REMARK  status: ('A' for Active; 'I' for Inactive)
REMARK    1  A    between atoms: C_2  and  C_3
REMARK    2  A    between atoms: C_2  and  C_16
REMARK    3  A    between atoms: C_4  and  C_5
REMARK    4  A    between atoms: C_19  and  C_20
REMARK                            x       y       z     vdW  Elec       q    Type
REMARK                         _______ _______ _______ _____ _____    ______ ____
ROOT
ATOM      1  C   UNL     1       1.294   9.148  18.741  0.00  0.00    +0.000 C 
ATOM      2  C   UNL     1       1.843   8.184  19.495  0.00  0.00    +0.000 C 
ENDROOT
BRANCH   2   3
ATOM      3  C   UNL     1       2.590   7.078  18.882  0.00  0.00    +0.000 A 
ATOM      4  C   UNL     1       3.434   7.364  17.805  0.00  0.00    +0.000 A 
ATOM      5  C   UNL     1       4.133   6.336  17.149  0.00  0.00    +0.000 A 
ATOM      6  C   UNL     1       4.968   6.585  16.045  0.00  0.00    +0.000 A 
ATOM      7  C   UNL     1       5.633   5.538  15.409  0.00  0.00    +0.000 A 
ATOM      8  C   UNL     1       5.475   4.239  15.880  0.00  0.00    +0.000 A 
ATOM      9  C   UNL     1       4.649   3.994  16.980  0.00  0.00    +0.000 A 
ATOM     10  C   UNL     1       3.965   5.016  17.624  0.00  0.00    +0.000 A 
ATOM     11  N   UNL     1       3.164   4.722  18.658  0.00  0.00    +0.000 NA
ATOM     12  C   UNL     1       2.497   5.739  19.256  0.00  0.00    +0.000 A 
ATOM     13 CL   UNL     1       1.469   5.199  20.527  0.00  0.00    +0.000 Cl
ENDBRANCH   2   3
BRANCH   1  15
ATOM     14  O   UNL     1       1.261  11.074  20.145  0.00  0.00    +0.000 OA
ATOM     15  C   UNL     1       0.658  10.346  19.363  0.00  0.00    +0.000 C 
BRANCH  15  16
ATOM     16  C   UNL     1      -0.730  10.668  18.933  0.00  0.00    +0.000 A 
ATOM     17  C   UNL     1      -1.284  10.016  17.826  0.00  0.00    +0.000 A 
ATOM     18  C   UNL     1      -2.583  10.330  17.404  0.00  0.00    +0.000 A 
ATOM     19  C   UNL     1      -3.339  11.300  18.080  0.00  0.00    +0.000 A 
ATOM     20  C   UNL     1      -2.771  11.955  19.185  0.00  0.00    +0.000 A 
ATOM     21  C   UNL     1      -1.476  11.643  19.606  0.00  0.00    +0.000 A 
BRANCH  19  22
ATOM     22  C   UNL     1      -4.745  11.640  17.643  0.00  0.00    +0.000 C 
ATOM     23  F   UNL     1      -5.641  10.638  17.861  0.00  0.00    +0.000 F 
ATOM     24  F   UNL     1      -5.240  12.729  18.296  0.00  0.00    +0.000 F 
ATOM     25  F   UNL     1      -4.827  11.933  16.316  0.00  0.00    +0.000 F 
ENDBRANCH  19  22
ENDBRANCH  15  16
ENDBRANCH   1  15
TORSDOF 4
ENDMDL
