MODEL 1
REMARK VINA RESULT:      -6.8      0.000      0.000
REMARK  Name = 
REMARK  7 active torsions:
REMARK  status: ('A' for Active; 'I' for Inactive)
REMARK    1  A    between atoms: C_1  and  O_2
REMARK    2  A    between atoms: O_2  and  C_3
REMARK    3  A    between atoms: C_7  and  C_8
REMARK    4  A    between atoms: C_12  and  S_13
REMARK    5  A    between atoms: S_13  and  C_14
REMARK    6  A    between atoms: C_14  and  C_15
REMARK    7  A    between atoms: C_14  and  C_16
REMARK                            x       y       z     vdW  Elec       q    Type
REMARK                         _______ _______ _______ _____ _____    ______ ____
ROOT
ATOM      1  C   UNL     1       4.386   6.157  17.964  0.00  0.00    +0.000 A 
ATOM      2  C   UNL     1       3.918   7.364  17.479  0.00  0.00    +0.000 A 
ATOM      3  N   UNL     1       2.817   7.943  17.990  0.00  0.00    +0.000 NA
ATOM      4  N   UNL     1       2.173   7.313  19.002  0.00  0.00    +0.000 NA
ATOM      5  C   UNL     1       2.633   6.124  19.447  0.00  0.00    +0.000 A 
ATOM      6  N   UNL     1       3.731   5.513  18.961  0.00  0.00    +0.000 NA
ENDROOT
BRANCH   1  11
ATOM      7  C   UNL     1       6.885   4.888  15.659  0.00  0.00    +0.000 A 
ATOM      8  N   UNL     1       7.879   4.439  16.451  0.00  0.00    +0.000 NA
ATOM      9  N   UNL     1       7.744   4.526  17.796  0.00  0.00    +0.000 NA
ATOM     10  C   UNL     1       6.616   5.070  18.290  0.00  0.00    +0.000 A 
ATOM     11  C   UNL     1       5.615   5.528  17.454  0.00  0.00    +0.000 A 
ATOM     12  N   UNL     1       5.738   5.435  16.107  0.00  0.00    +0.000 NA
BRANCH   7  14
ATOM     13  C   UNL     1       6.198   3.874  13.668  0.00  0.00    +0.000 C 
ATOM     14  O   UNL     1       7.107   4.761  14.305  0.00  0.00    +0.000 OA
ENDBRANCH   7  14
ENDBRANCH   1  11
BRANCH   5  15
ATOM     15  S   UNL     1       1.784   5.284  20.760  0.00  0.00    +0.000 S 
BRANCH  15  16
ATOM     16  C   UNL     1       2.108   3.525  20.346  0.00  0.00    +0.000 C 
ATOM     17  C   UNL     1       2.379   2.698  21.601  0.00  0.00    +0.000 C 
ATOM     18  C   UNL     1       0.877   2.980  19.623  0.00  0.00    +0.000 C 
ENDBRANCH  15  16
ENDBRANCH   5  15
TORSDOF 4
ENDMDL
MODEL 2
REMARK VINA RESULT:      -6.7      1.648      1.807
REMARK  Name = 
REMARK  7 active torsions:
REMARK  status: ('A' for Active; 'I' for Inactive)
REMARK    1  A    between atoms: C_1  and  O_2
REMARK    2  A    between atoms: O_2  and  C_3
REMARK    3  A    between atoms: C_7  and  C_8
REMARK    4  A    between atoms: C_12  and  S_13
REMARK    5  A    between atoms: S_13  and  C_14
REMARK    6  A    between atoms: C_14  and  C_15
REMARK    7  A    between atoms: C_14  and  C_16
REMARK                            x       y       z     vdW  Elec       q    Type
REMARK                         _______ _______ _______ _____ _____    ______ ____
ROOT
ATOM      1  C   UNL     1       4.188   5.425  17.244  0.00  0.00    +0.000 A 
ATOM      2  C   UNL     1       3.888   6.599  17.910  0.00  0.00    +0.000 A 
ATOM      3  N   UNL     1       2.844   6.677  18.755  0.00  0.00    +0.000 NA
ATOM      4  N   UNL     1       2.089   5.567  18.943  0.00  0.00    +0.000 NA
ATOM      5  C   UNL     1       2.386   4.436  18.266  0.00  0.00    +0.000 A 
ATOM      6  N   UNL     1       3.421   4.320  17.413  0.00  0.00    +0.000 NA
ENDROOT
BRANCH   1  11
ATOM      7  C   UNL     1       6.304   4.359  14.496  0.00  0.00    +0.000 A 
ATOM      8  N   UNL     1       7.435   5.077  14.640  0.00  0.00    +0.000 NA
ATOM      9  N   UNL     1       7.543   5.939  15.680  0.00  0.00    +0.000 NA
ATOM     10  C   UNL     1       6.503   6.049  16.528  0.00  0.00    +0.000 A 
ATOM     11  C   UNL     1       5.352   5.303  16.353  0.00  0.00    +0.000 A 
ATOM     12  N   UNL     1       5.241   4.431  15.320  0.00  0.00    +0.000 NA
BRANCH   7  14
ATOM     13  C   UNL     1       6.894   4.060  12.254  0.00  0.00    +0.000 C 
ATOM     14  O   UNL     1       6.281   3.509  13.411  0.00  0.00    +0.000 OA
ENDBRANCH   7  14
ENDBRANCH   1  11
BRANCH   5  15
ATOM     15  S   UNL     1       1.389   2.985  18.493  0.00  0.00    +0.000 S 
BRANCH  15  16
ATOM     16  C   UNL     1       2.067   2.310  20.060  0.00  0.00    +0.000 C 
ATOM     17  C   UNL     1       3.560   2.599  20.192  0.00  0.00    +0.000 C 
ATOM     18  C   UNL     1       1.310   2.963  21.216  0.00  0.00    +0.000 C 
ENDBRANCH  15  16
ENDBRANCH   5  15
TORSDOF 4
ENDMDL
MODEL 3
REMARK VINA RESULT:      -6.6      2.479      3.564
REMARK  Name = 
REMARK  7 active torsions:
REMARK  status: ('A' for Active; 'I' for Inactive)
REMARK    1  A    between atoms: C_1  and  O_2
REMARK    2  A    between atoms: O_2  and  C_3
REMARK    3  A    between atoms: C_7  and  C_8
REMARK    4  A    between atoms: C_12  and  S_13
REMARK    5  A    between atoms: S_13  and  C_14
REMARK    6  A    between atoms: C_14  and  C_15
REMARK    7  A    between atoms: C_14  and  C_16
REMARK                            x       y       z     vdW  Elec       q    Type
REMARK                         _______ _______ _______ _____ _____    ______ ____
ROOT
ATOM      1  C   UNL     1       6.271   4.389  16.291  0.00  0.00    +0.000 A 
ATOM      2  C   UNL     1       7.221   4.571  17.280  0.00  0.00    +0.000 A 
ATOM      3  N   UNL     1       6.897   4.496  18.583  0.00  0.00    +0.000 NA
ATOM      4  N   UNL     1       5.608   4.232  18.908  0.00  0.00    +0.000 NA
ATOM      5  C   UNL     1       4.691   4.080  17.929  0.00  0.00    +0.000 A 
ATOM      6  N   UNL     1       4.977   4.148  16.615  0.00  0.00    +0.000 NA
ENDROOT
BRANCH   1  11
ATOM      7  C   UNL     1       6.261   3.602  12.750  0.00  0.00    +0.000 A 
ATOM      8  N   UNL     1       7.144   4.465  12.208  0.00  0.00    +0.000 NA
ATOM      9  N   UNL     1       7.795   5.337  13.014  0.00  0.00    +0.000 NA
ATOM     10  C   UNL     1       7.525   5.311  14.332  0.00  0.00    +0.000 A 
ATOM     11  C   UNL     1       6.611   4.419  14.860  0.00  0.00    +0.000 A 
ATOM     12  N   UNL     1       5.962   3.535  14.061  0.00  0.00    +0.000 NA
BRANCH   7  14
ATOM     13  C   UNL     1       4.354   3.193  11.461  0.00  0.00    +0.000 C 
ATOM     14  O   UNL     1       5.645   2.752  11.857  0.00  0.00    +0.000 OA
ENDBRANCH   7  14
ENDBRANCH   1  11
BRANCH   5  15
ATOM     15  S   UNL     1       2.998   3.753  18.348  0.00  0.00    +0.000 S 
BRANCH  15  16
ATOM     16  C   UNL     1       2.969   4.174  20.135  0.00  0.00    +0.000 C 
ATOM     17  C   UNL     1       1.856   5.169  20.455  0.00  0.00    +0.000 C 
ATOM     18  C   UNL     1       2.747   2.880  20.916  0.00  0.00    +0.000 C 
ENDBRANCH  15  16
ENDBRANCH   5  15
TORSDOF 4
ENDMDL
MODEL 4
REMARK VINA RESULT:      -6.6      2.480      3.035
REMARK  Name = 
REMARK  7 active torsions:
REMARK  status: ('A' for Active; 'I' for Inactive)
REMARK    1  A    between atoms: C_1  and  O_2
REMARK    2  A    between atoms: O_2  and  C_3
REMARK    3  A    between atoms: C_7  and  C_8
REMARK    4  A    between atoms: C_12  and  S_13
REMARK    5  A    between atoms: S_13  and  C_14
REMARK    6  A    between atoms: C_14  and  C_15
REMARK    7  A    between atoms: C_14  and  C_16
REMARK                            x       y       z     vdW  Elec       q    Type
REMARK                         _______ _______ _______ _____ _____    ______ ____
ROOT
ATOM      1  C   UNL     1       5.531   4.309  16.970  0.00  0.00    +0.000 A 
ATOM      2  C   UNL     1       5.924   5.066  18.058  0.00  0.00    +0.000 A 
ATOM      3  N   UNL     1       5.363   4.895  19.268  0.00  0.00    +0.000 NA
ATOM      4  N   UNL     1       4.397   3.952  19.398  0.00  0.00    +0.000 NA
ATOM      5  C   UNL     1       4.012   3.239  18.319  0.00  0.00    +0.000 A 
ATOM      6  N   UNL     1       4.549   3.382  17.092  0.00  0.00    +0.000 NA
ENDROOT
BRANCH   1  11
ATOM      7  C   UNL     1       6.275   3.792  13.457  0.00  0.00    +0.000 A 
ATOM      8  N   UNL     1       7.242   4.689  13.179  0.00  0.00    +0.000 NA
ATOM      9  N   UNL     1       7.700   5.494  14.167  0.00  0.00    +0.000 NA
ATOM     10  C   UNL     1       7.159   5.371  15.393  0.00  0.00    +0.000 A 
ATOM     11  C   UNL     1       6.164   4.445  15.648  0.00  0.00    +0.000 A 
ATOM     12  N   UNL     1       5.708   3.628  14.667  0.00  0.00    +0.000 NA
BRANCH   7  14
ATOM     13  C   UNL     1       4.638   3.437  11.826  0.00  0.00    +0.000 C 
ATOM     14  O   UNL     1       5.871   3.015  12.393  0.00  0.00    +0.000 OA
ENDBRANCH   7  14
ENDBRANCH   1  11
BRANCH   5  15
ATOM     15  S   UNL     1       2.735   2.017  18.478  0.00  0.00    +0.000 S 
BRANCH  15  16
ATOM     16  C   UNL     1       1.231   3.064  18.595  0.00  0.00    +0.000 C 
ATOM     17  C   UNL     1       0.952   3.478  20.038  0.00  0.00    +0.000 C 
ATOM     18  C   UNL     1       1.457   4.306  17.734  0.00  0.00    +0.000 C 
ENDBRANCH  15  16
ENDBRANCH   5  15
TORSDOF 4
ENDMDL
MODEL 5
REMARK VINA RESULT:      -6.5      2.529      3.556
REMARK  Name = 
REMARK  7 active torsions:
REMARK  status: ('A' for Active; 'I' for Inactive)
REMARK    1  A    between atoms: C_1  and  O_2
REMARK    2  A    between atoms: O_2  and  C_3
REMARK    3  A    between atoms: C_7  and  C_8
REMARK    4  A    between atoms: C_12  and  S_13
REMARK    5  A    between atoms: S_13  and  C_14
REMARK    6  A    between atoms: C_14  and  C_15
REMARK    7  A    between atoms: C_14  and  C_16
REMARK                            x       y       z     vdW  Elec       q    Type
REMARK                         _______ _______ _______ _____ _____    ______ ____
ROOT
ATOM      1  C   UNL     1       6.155   4.503  16.240  0.00  0.00    +0.000 A 
ATOM      2  C   UNL     1       7.099   4.547  17.249  0.00  0.00    +0.000 A 
ATOM      3  N   UNL     1       6.740   4.538  18.545  0.00  0.00    +0.000 NA
ATOM      4  N   UNL     1       5.418   4.482  18.842  0.00  0.00    +0.000 NA
ATOM      5  C   UNL     1       4.511   4.463  17.843  0.00  0.00    +0.000 A 
ATOM      6  N   UNL     1       4.832   4.470  16.535  0.00  0.00    +0.000 NA
ENDROOT
BRANCH   1  11
ATOM      7  C   UNL     1       6.187   3.580  12.732  0.00  0.00    +0.000 A 
ATOM      8  N   UNL     1       7.118   4.382  12.178  0.00  0.00    +0.000 NA
ATOM      9  N   UNL     1       7.789   5.257  12.966  0.00  0.00    +0.000 NA
ATOM     10  C   UNL     1       7.490   5.294  14.277  0.00  0.00    +0.000 A 
ATOM     11  C   UNL     1       6.526   4.463  14.817  0.00  0.00    +0.000 A 
ATOM     12  N   UNL     1       5.858   3.577  14.038  0.00  0.00    +0.000 NA
BRANCH   7  14
ATOM     13  C   UNL     1       4.293   3.203  11.414  0.00  0.00    +0.000 C 
ATOM     14  O   UNL     1       5.555   2.722  11.858  0.00  0.00    +0.000 OA
ENDBRANCH   7  14
ENDBRANCH   1  11
BRANCH   5  15
ATOM     15  S   UNL     1       2.778   4.409  18.224  0.00  0.00    +0.000 S 
BRANCH  15  16
ATOM     16  C   UNL     1       2.380   2.647  17.898  0.00  0.00    +0.000 C 
ATOM     17  C   UNL     1       3.487   1.723  18.398  0.00  0.00    +0.000 C 
ATOM     18  C   UNL     1       1.071   2.323  18.616  0.00  0.00    +0.000 C 
ENDBRANCH  15  16
ENDBRANCH   5  15
TORSDOF 4
ENDMDL
MODEL 6
REMARK VINA RESULT:      -6.4      1.410      1.684
REMARK  Name = 
REMARK  7 active torsions:
REMARK  status: ('A' for Active; 'I' for Inactive)
REMARK    1  A    between atoms: C_1  and  O_2
REMARK    2  A    between atoms: O_2  and  C_3
REMARK    3  A    between atoms: C_7  and  C_8
REMARK    4  A    between atoms: C_12  and  S_13
REMARK    5  A    between atoms: S_13  and  C_14
REMARK    6  A    between atoms: C_14  and  C_15
REMARK    7  A    between atoms: C_14  and  C_16
REMARK                            x       y       z     vdW  Elec       q    Type
REMARK                         _______ _______ _______ _____ _____    ______ ____
ROOT
ATOM      1  C   UNL     1       4.252   5.702  17.956  0.00  0.00    +0.000 A 
ATOM      2  C   UNL     1       3.499   6.857  18.063  0.00  0.00    +0.000 A 
ATOM      3  N   UNL     1       2.510   6.967  18.967  0.00  0.00    +0.000 NA
ATOM      4  N   UNL     1       2.268   5.911  19.782  0.00  0.00    +0.000 NA
ATOM      5  C   UNL     1       2.999   4.784  19.648  0.00  0.00    +0.000 A 
ATOM      6  N   UNL     1       3.996   4.636  18.755  0.00  0.00    +0.000 NA
ENDROOT
BRANCH   1  11
ATOM      7  C   UNL     1       6.291   4.514  15.201  0.00  0.00    +0.000 A 
ATOM      8  N   UNL     1       7.363   5.331  15.195  0.00  0.00    +0.000 NA
ATOM      9  N   UNL     1       7.455   6.306  16.131  0.00  0.00    +0.000 NA
ATOM     10  C   UNL     1       6.460   6.425  17.029  0.00  0.00    +0.000 A 
ATOM     11  C   UNL     1       5.369   5.576  17.008  0.00  0.00    +0.000 A 
ATOM     12  N   UNL     1       5.275   4.590  16.081  0.00  0.00    +0.000 NA
BRANCH   7  14
ATOM     13  C   UNL     1       6.664   4.049  12.940  0.00  0.00    +0.000 C 
ATOM     14  O   UNL     1       6.279   3.552  14.214  0.00  0.00    +0.000 OA
ENDBRANCH   7  14
ENDBRANCH   1  11
BRANCH   5  15
ATOM     15  S   UNL     1       2.674   3.391  20.699  0.00  0.00    +0.000 S 
BRANCH  15  16
ATOM     16  C   UNL     1       1.972   2.183  19.509  0.00  0.00    +0.000 C 
ATOM     17  C   UNL     1       0.914   2.829  18.618  0.00  0.00    +0.000 C 
ATOM     18  C   UNL     1       3.118   1.652  18.649  0.00  0.00    +0.000 C 
ENDBRANCH  15  16
ENDBRANCH   5  15
TORSDOF 4
ENDMDL
MODEL 7
REMARK VINA RESULT:      -6.4      1.082      1.096
REMARK  Name = 
REMARK  7 active torsions:
REMARK  status: ('A' for Active; 'I' for Inactive)
REMARK    1  A    between atoms: C_1  and  O_2
REMARK    2  A    between atoms: O_2  and  C_3
REMARK    3  A    between atoms: C_7  and  C_8
REMARK    4  A    between atoms: C_12  and  S_13
REMARK    5  A    between atoms: S_13  and  C_14
REMARK    6  A    between atoms: C_14  and  C_15
REMARK    7  A    between atoms: C_14  and  C_16
REMARK                            x       y       z     vdW  Elec       q    Type
REMARK                         _______ _______ _______ _____ _____    ______ ____
ROOT
ATOM      1  C   UNL     1       3.952   6.732  17.839  0.00  0.00    +0.000 A 
ATOM      2  C   UNL     1       3.358   7.961  17.622  0.00  0.00    +0.000 A 
ATOM      3  N   UNL     1       2.309   8.371  18.357  0.00  0.00    +0.000 NA
ATOM      4  N   UNL     1       1.846   7.544  19.326  0.00  0.00    +0.000 NA
ATOM      5  C   UNL     1       2.425   6.339  19.508  0.00  0.00    +0.000 A 
ATOM      6  N   UNL     1       3.476   5.895  18.793  0.00  0.00    +0.000 NA
ENDROOT
BRANCH   1  11
ATOM      7  C   UNL     1       6.060   4.793  15.612  0.00  0.00    +0.000 A 
ATOM      8  N   UNL     1       7.241   5.442  15.611  0.00  0.00    +0.000 NA
ATOM      9  N   UNL     1       7.386   6.552  16.376  0.00  0.00    +0.000 NA
ATOM     10  C   UNL     1       6.332   6.967  17.103  0.00  0.00    +0.000 A 
ATOM     11  C   UNL     1       5.131   6.284  17.080  0.00  0.00    +0.000 A 
ATOM     12  N   UNL     1       4.981   5.167  16.326  0.00  0.00    +0.000 NA
BRANCH   7  14
ATOM     13  C   UNL     1       6.430   3.923  13.473  0.00  0.00    +0.000 C 
ATOM     14  O   UNL     1       6.003   3.676  14.806  0.00  0.00    +0.000 OA
ENDBRANCH   7  14
ENDBRANCH   1  11
BRANCH   5  15
ATOM     15  S   UNL     1       1.812   5.244  20.763  0.00  0.00    +0.000 S 
BRANCH  15  16
ATOM     16  C   UNL     1       2.176   3.600  20.033  0.00  0.00    +0.000 C 
ATOM     17  C   UNL     1       2.880   2.688  21.035  0.00  0.00    +0.000 C 
ATOM     18  C   UNL     1       0.849   2.973  19.606  0.00  0.00    +0.000 C 
ENDBRANCH  15  16
ENDBRANCH   5  15
TORSDOF 4
ENDMDL
MODEL 8
REMARK VINA RESULT:      -6.3      1.899      2.223
REMARK  Name = 
REMARK  7 active torsions:
REMARK  status: ('A' for Active; 'I' for Inactive)
REMARK    1  A    between atoms: C_1  and  O_2
REMARK    2  A    between atoms: O_2  and  C_3
REMARK    3  A    between atoms: C_7  and  C_8
REMARK    4  A    between atoms: C_12  and  S_13
REMARK    5  A    between atoms: S_13  and  C_14
REMARK    6  A    between atoms: C_14  and  C_15
REMARK    7  A    between atoms: C_14  and  C_16
REMARK                            x       y       z     vdW  Elec       q    Type
REMARK                         _______ _______ _______ _____ _____    ______ ____
ROOT
ATOM      1  C   UNL     1       4.991   4.909  17.592  0.00  0.00    +0.000 A 
ATOM      2  C   UNL     1       4.640   6.063  18.267  0.00  0.00    +0.000 A 
ATOM      3  N   UNL     1       3.953   6.016  19.422  0.00  0.00    +0.000 NA
ATOM      4  N   UNL     1       3.614   4.801  19.916  0.00  0.00    +0.000 NA
ATOM      5  C   UNL     1       3.947   3.686  19.231  0.00  0.00    +0.000 A 
ATOM      6  N   UNL     1       4.633   3.692  18.073  0.00  0.00    +0.000 NA
ENDROOT
BRANCH   1  11
ATOM      7  C   UNL     1       6.015   4.292  14.167  0.00  0.00    +0.000 A 
ATOM      8  N   UNL     1       7.161   4.988  14.024  0.00  0.00    +0.000 NA
ATOM      9  N   UNL     1       7.648   5.681  15.081  0.00  0.00    +0.000 NA
ATOM     10  C   UNL     1       6.958   5.652  16.236  0.00  0.00    +0.000 A 
ATOM     11  C   UNL     1       5.783   4.933  16.352  0.00  0.00    +0.000 A 
ATOM     12  N   UNL     1       5.294   4.228  15.302  0.00  0.00    +0.000 NA
BRANCH   7  14
ATOM     13  C   UNL     1       6.621   3.437  12.077  0.00  0.00    +0.000 C 
ATOM     14  O   UNL     1       5.593   3.617  13.041  0.00  0.00    +0.000 OA
ENDBRANCH   7  14
ENDBRANCH   1  11
BRANCH   5  15
ATOM     15  S   UNL     1       3.489   2.092  19.863  0.00  0.00    +0.000 S 
BRANCH  15  16
ATOM     16  C   UNL     1       1.656   2.190  19.828  0.00  0.00    +0.000 C 
ATOM     17  C   UNL     1       1.122   3.053  20.968  0.00  0.00    +0.000 C 
ATOM     18  C   UNL     1       1.245   2.795  18.486  0.00  0.00    +0.000 C 
ENDBRANCH  15  16
ENDBRANCH   5  15
TORSDOF 4
ENDMDL
MODEL 9
REMARK VINA RESULT:      -6.3      3.549      6.559
REMARK  Name = 
REMARK  7 active torsions:
REMARK  status: ('A' for Active; 'I' for Inactive)
REMARK    1  A    between atoms: C_1  and  O_2
REMARK    2  A    between atoms: O_2  and  C_3
REMARK    3  A    between atoms: C_7  and  C_8
REMARK    4  A    between atoms: C_12  and  S_13
REMARK    5  A    between atoms: S_13  and  C_14
REMARK    6  A    between atoms: C_14  and  C_15
REMARK    7  A    between atoms: C_14  and  C_16
REMARK                            x       y       z     vdW  Elec       q    Type
REMARK                         _______ _______ _______ _____ _____    ______ ____
ROOT
ATOM      1  C   UNL     1       5.634   4.549  16.024  0.00  0.00    +0.000 A 
ATOM      2  C   UNL     1       6.566   5.442  16.521  0.00  0.00    +0.000 A 
ATOM      3  N   UNL     1       7.561   5.916  15.751  0.00  0.00    +0.000 NA
ATOM      4  N   UNL     1       7.629   5.497  14.463  0.00  0.00    +0.000 NA
ATOM      5  C   UNL     1       6.723   4.608  14.003  0.00  0.00    +0.000 A 
ATOM      6  N   UNL     1       5.714   4.112  14.743  0.00  0.00    +0.000 NA
ENDROOT
BRANCH   1  11
ATOM      7  C   UNL     1       2.811   4.502  18.302  0.00  0.00    +0.000 A 
ATOM      8  N   UNL     1       2.392   3.222  18.297  0.00  0.00    +0.000 NA
ATOM      9  N   UNL     1       3.053   2.313  17.540  0.00  0.00    +0.000 NA
ATOM     10  C   UNL     1       4.105   2.733  16.812  0.00  0.00    +0.000 A 
ATOM     11  C   UNL     1       4.509   4.055  16.833  0.00  0.00    +0.000 A 
ATOM     12  N   UNL     1       3.859   4.968  17.596  0.00  0.00    +0.000 NA
BRANCH   7  14
ATOM     13  C   UNL     1       1.514   4.719  20.235  0.00  0.00    +0.000 C 
ATOM     14  O   UNL     1       2.081   5.357  19.099  0.00  0.00    +0.000 OA
ENDBRANCH   7  14
ENDBRANCH   1  11
BRANCH   5  15
ATOM     15  S   UNL     1       6.817   4.041  12.324  0.00  0.00    +0.000 S 
BRANCH  15  16
ATOM     16  C   UNL     1       5.400   2.877  12.244  0.00  0.00    +0.000 C 
ATOM     17  C   UNL     1       4.220   3.486  11.491  0.00  0.00    +0.000 C 
ATOM     18  C   UNL     1       5.873   1.612  11.529  0.00  0.00    +0.000 C 
ENDBRANCH  15  16
ENDBRANCH   5  15
TORSDOF 4
ENDMDL
