MODEL 1
REMARK VINA RESULT:      -7.6      0.000      0.000
REMARK  Name = 
REMARK  4 active torsions:
REMARK  status: ('A' for Active; 'I' for Inactive)
REMARK    1  A    between atoms: C_1  and  O_2
REMARK    2  A    between atoms: O_2  and  C_3
REMARK    3  A    between atoms: C_6  and  C_7
REMARK    4  A    between atoms: C_12  and  N_13
REMARK                            x       y       z     vdW  Elec       q    Type
REMARK                         _______ _______ _______ _____ _____    ______ ____
ROOT
ATOM      1  C   UNL     1       2.596   7.281  18.699  0.00  0.00    +0.000 C 
ATOM      2  N   UNL     1       2.277   7.193  19.971  0.00  0.00    +0.000 N 
ATOM      3  O   UNL     1       2.574   6.261  20.774  0.00  0.00    +0.000 OA
ATOM      4  C   UNL     1       1.504   8.331  20.367  0.00  0.00    +0.000 A 
ATOM      5  C   UNL     1       0.979   8.567  21.624  0.00  0.00    +0.000 A 
ATOM      6  C   UNL     1       0.200   9.721  21.771  0.00  0.00    +0.000 A 
ATOM      7  C   UNL     1      -0.035  10.591  20.672  0.00  0.00    +0.000 A 
ATOM      8  C   UNL     1       0.535  10.327  19.414  0.00  0.00    +0.000 A 
ATOM      9  C   UNL     1       1.305   9.187  19.298  0.00  0.00    +0.000 A 
ATOM     10  C   UNL     1       2.038   8.590  18.185  0.00  0.00    +0.000 C 
ATOM     11  O   UNL     1       2.194   9.042  17.079  0.00  0.00    +0.000 OA
ENDROOT
BRANCH   1  15
ATOM     12  C   UNL     1       4.760   4.337  16.490  0.00  0.00    +0.000 A 
ATOM     13  C   UNL     1       5.262   5.631  16.612  0.00  0.00    +0.000 A 
ATOM     14  C   UNL     1       4.562   6.594  17.343  0.00  0.00    +0.000 A 
ATOM     15  C   UNL     1       3.336   6.277  17.939  0.00  0.00    +0.000 A 
ATOM     16  C   UNL     1       2.824   4.986  17.803  0.00  0.00    +0.000 A 
ATOM     17  C   UNL     1       3.534   4.021  17.076  0.00  0.00    +0.000 A 
BRANCH  12  19
ATOM     18  C   UNL     1       5.997   3.993  14.510  0.00  0.00    +0.000 C 
ATOM     19  O   UNL     1       5.529   3.480  15.752  0.00  0.00    +0.000 OA
ENDBRANCH  12  19
ENDBRANCH   1  15
BRANCH   6  20
ATOM     20  N   UNL     1      -0.381  10.024  23.087  0.00  0.00    +0.000 N 
ATOM     21  O   UNL     1       0.230   9.630  24.089  0.00  0.00    +0.000 OA
ATOM     22  O   UNL     1      -1.444  10.659  23.112  0.00  0.00    +0.000 OA
ENDBRANCH   6  20
TORSDOF 3
ENDMDL
MODEL 2
REMARK VINA RESULT:      -7.5      0.159      1.039
REMARK  Name = 
REMARK  4 active torsions:
REMARK  status: ('A' for Active; 'I' for Inactive)
REMARK    1  A    between atoms: C_1  and  O_2
REMARK    2  A    between atoms: O_2  and  C_3
REMARK    3  A    between atoms: C_6  and  C_7
REMARK    4  A    between atoms: C_12  and  N_13
REMARK                            x       y       z     vdW  Elec       q    Type
REMARK                         _______ _______ _______ _____ _____    ______ ____
ROOT
ATOM      1  C   UNL     1       2.547   7.407  18.719  0.00  0.00    +0.000 C 
ATOM      2  N   UNL     1       2.208   7.300  19.984  0.00  0.00    +0.000 N 
ATOM      3  O   UNL     1       2.494   6.357  20.778  0.00  0.00    +0.000 OA
ATOM      4  C   UNL     1       1.424   8.429  20.382  0.00  0.00    +0.000 A 
ATOM      5  C   UNL     1       0.878   8.646  21.634  0.00  0.00    +0.000 A 
ATOM      6  C   UNL     1       0.092   9.795  21.784  0.00  0.00    +0.000 A 
ATOM      7  C   UNL     1      -0.127  10.680  20.694  0.00  0.00    +0.000 A 
ATOM      8  C   UNL     1       0.465  10.436  19.442  0.00  0.00    +0.000 A 
ATOM      9  C   UNL     1       1.241   9.300  19.323  0.00  0.00    +0.000 A 
ATOM     10  C   UNL     1       1.994   8.721  18.214  0.00  0.00    +0.000 C 
ATOM     11  O   UNL     1       2.168   9.190  17.117  0.00  0.00    +0.000 OA
ENDROOT
BRANCH   1  15
ATOM     12  C   UNL     1       4.758   4.520  16.480  0.00  0.00    +0.000 A 
ATOM     13  C   UNL     1       3.578   4.154  17.123  0.00  0.00    +0.000 A 
ATOM     14  C   UNL     1       2.846   5.098  17.848  0.00  0.00    +0.000 A 
ATOM     15  C   UNL     1       3.304   6.416  17.957  0.00  0.00    +0.000 A 
ATOM     16  C   UNL     1       4.495   6.779  17.327  0.00  0.00    +0.000 A 
ATOM     17  C   UNL     1       5.221   5.831  16.594  0.00  0.00    +0.000 A 
BRANCH  12  19
ATOM     18  C   UNL     1       6.171   3.924  14.687  0.00  0.00    +0.000 C 
ATOM     19  O   UNL     1       5.389   3.514  15.802  0.00  0.00    +0.000 OA
ENDBRANCH  12  19
ENDBRANCH   1  15
BRANCH   6  20
ATOM     20  N   UNL     1      -0.511  10.078  23.094  0.00  0.00    +0.000 N 
ATOM     21  O   UNL     1       0.011   9.563  24.091  0.00  0.00    +0.000 OA
ATOM     22  O   UNL     1      -1.503  10.819  23.121  0.00  0.00    +0.000 OA
ENDBRANCH   6  20
TORSDOF 3
ENDMDL
MODEL 3
REMARK VINA RESULT:      -7.1      1.369      2.383
REMARK  Name = 
REMARK  4 active torsions:
REMARK  status: ('A' for Active; 'I' for Inactive)
REMARK    1  A    between atoms: C_1  and  O_2
REMARK    2  A    between atoms: O_2  and  C_3
REMARK    3  A    between atoms: C_6  and  C_7
REMARK    4  A    between atoms: C_12  and  N_13
REMARK                            x       y       z     vdW  Elec       q    Type
REMARK                         _______ _______ _______ _____ _____    ______ ____
ROOT
ATOM      1  C   UNL     1       2.658   6.997  18.716  0.00  0.00    +0.000 C 
ATOM      2  N   UNL     1       2.253   8.188  18.336  0.00  0.00    +0.000 N 
ATOM      3  O   UNL     1       2.459   8.749  17.220  0.00  0.00    +0.000 OA
ATOM      4  C   UNL     1       1.519   8.821  19.390  0.00  0.00    +0.000 A 
ATOM      5  C   UNL     1       0.960  10.085  19.354  0.00  0.00    +0.000 A 
ATOM      6  C   UNL     1       0.336  10.527  20.526  0.00  0.00    +0.000 A 
ATOM      7  C   UNL     1       0.293   9.708  21.687  0.00  0.00    +0.000 A 
ATOM      8  C   UNL     1       0.854   8.420  21.676  0.00  0.00    +0.000 A 
ATOM      9  C   UNL     1       1.457   8.005  20.505  0.00  0.00    +0.000 A 
ATOM     10  C   UNL     1       2.136   6.771  20.118  0.00  0.00    +0.000 C 
ATOM     11  O   UNL     1       2.250   5.759  20.763  0.00  0.00    +0.000 OA
ENDROOT
BRANCH   1  15
ATOM     12  C   UNL     1       5.052   4.323  16.403  0.00  0.00    +0.000 A 
ATOM     13  C   UNL     1       5.486   5.625  16.640  0.00  0.00    +0.000 A 
ATOM     14  C   UNL     1       4.710   6.500  17.406  0.00  0.00    +0.000 A 
ATOM     15  C   UNL     1       3.477   6.086  17.921  0.00  0.00    +0.000 A 
ATOM     16  C   UNL     1       3.034   4.787  17.670  0.00  0.00    +0.000 A 
ATOM     17  C   UNL     1       3.819   3.911  16.909  0.00  0.00    +0.000 A 
BRANCH  12  19
ATOM     18  C   UNL     1       6.156   4.055  14.336  0.00  0.00    +0.000 C 
ATOM     19  O   UNL     1       5.891   3.558  15.642  0.00  0.00    +0.000 OA
ENDBRANCH  12  19
ENDBRANCH   1  15
BRANCH   6  20
ATOM     20  N   UNL     1      -0.279  11.863  20.545  0.00  0.00    +0.000 N 
ATOM     21  O   UNL     1      -0.640  12.344  19.463  0.00  0.00    +0.000 OA
ATOM     22  O   UNL     1      -0.401  12.422  21.643  0.00  0.00    +0.000 OA
ENDBRANCH   6  20
TORSDOF 3
ENDMDL
MODEL 4
REMARK VINA RESULT:      -7.1      1.448      2.532
REMARK  Name = 
REMARK  4 active torsions:
REMARK  status: ('A' for Active; 'I' for Inactive)
REMARK    1  A    between atoms: C_1  and  O_2
REMARK    2  A    between atoms: O_2  and  C_3
REMARK    3  A    between atoms: C_6  and  C_7
REMARK    4  A    between atoms: C_12  and  N_13
REMARK                            x       y       z     vdW  Elec       q    Type
REMARK                         _______ _______ _______ _____ _____    ______ ____
ROOT
ATOM      1  C   UNL     1       2.760   7.004  18.661  0.00  0.00    +0.000 C 
ATOM      2  N   UNL     1       2.299   8.182  18.306  0.00  0.00    +0.000 N 
ATOM      3  O   UNL     1       2.482   8.778  17.204  0.00  0.00    +0.000 OA
ATOM      4  C   UNL     1       1.531   8.754  19.370  0.00  0.00    +0.000 A 
ATOM      5  C   UNL     1       0.912   9.990  19.360  0.00  0.00    +0.000 A 
ATOM      6  C   UNL     1       0.262  10.375  20.539  0.00  0.00    +0.000 A 
ATOM      7  C   UNL     1       0.254   9.528  21.680  0.00  0.00    +0.000 A 
ATOM      8  C   UNL     1       0.878   8.269  21.643  0.00  0.00    +0.000 A 
ATOM      9  C   UNL     1       1.504   7.911  20.466  0.00  0.00    +0.000 A 
ATOM     10  C   UNL     1       2.244   6.720  20.054  0.00  0.00    +0.000 C 
ATOM     11  O   UNL     1       2.405   5.701  20.677  0.00  0.00    +0.000 OA
ENDROOT
BRANCH   1  15
ATOM     12  C   UNL     1       5.290   4.525  16.277  0.00  0.00    +0.000 A 
ATOM     13  C   UNL     1       4.098   4.020  16.793  0.00  0.00    +0.000 A 
ATOM     14  C   UNL     1       3.263   4.831  17.564  0.00  0.00    +0.000 A 
ATOM     15  C   UNL     1       3.625   6.152  17.849  0.00  0.00    +0.000 A 
ATOM     16  C   UNL     1       4.827   6.653  17.348  0.00  0.00    +0.000 A 
ATOM     17  C   UNL     1       5.658   5.838  16.567  0.00  0.00    +0.000 A 
BRANCH  12  19
ATOM     18  C   UNL     1       6.161   3.960  14.158  0.00  0.00    +0.000 C 
ATOM     19  O   UNL     1       6.026   3.641  15.538  0.00  0.00    +0.000 OA
ENDBRANCH  12  19
ENDBRANCH   1  15
BRANCH   6  20
ATOM     20  N   UNL     1      -0.417  11.678  20.584  0.00  0.00    +0.000 N 
ATOM     21  O   UNL     1       0.190  12.625  21.100  0.00  0.00    +0.000 OA
ATOM     22  O   UNL     1      -1.554  11.749  20.099  0.00  0.00    +0.000 OA
ENDBRANCH   6  20
TORSDOF 3
ENDMDL
MODEL 5
REMARK VINA RESULT:      -7.1      2.000      7.921
REMARK  Name = 
REMARK  4 active torsions:
REMARK  status: ('A' for Active; 'I' for Inactive)
REMARK    1  A    between atoms: C_1  and  O_2
REMARK    2  A    between atoms: O_2  and  C_3
REMARK    3  A    between atoms: C_6  and  C_7
REMARK    4  A    between atoms: C_12  and  N_13
REMARK                            x       y       z     vdW  Elec       q    Type
REMARK                         _______ _______ _______ _____ _____    ______ ____
ROOT
ATOM      1  C   UNL     1       2.597   7.024  18.766  0.00  0.00    +0.000 C 
ATOM      2  N   UNL     1       3.525   7.343  17.891  0.00  0.00    +0.000 N 
ATOM      3  O   UNL     1       3.884   8.506  17.542  0.00  0.00    +0.000 OA
ATOM      4  C   UNL     1       4.110   6.160  17.337  0.00  0.00    +0.000 A 
ATOM      5  C   UNL     1       5.102   6.110  16.375  0.00  0.00    +0.000 A 
ATOM      6  C   UNL     1       5.483   4.837  15.934  0.00  0.00    +0.000 A 
ATOM      7  C   UNL     1       4.868   3.667  16.456  0.00  0.00    +0.000 A 
ATOM      8  C   UNL     1       3.878   3.759  17.450  0.00  0.00    +0.000 A 
ATOM      9  C   UNL     1       3.526   5.025  17.872  0.00  0.00    +0.000 A 
ATOM     10  C   UNL     1       2.563   5.515  18.856  0.00  0.00    +0.000 C 
ATOM     11  O   UNL     1       1.884   4.864  19.608  0.00  0.00    +0.000 OA
ENDROOT
BRANCH   1  15
ATOM     12  C   UNL     1       0.143   9.805  20.882  0.00  0.00    +0.000 A 
ATOM     13  C   UNL     1       0.714   8.725  21.550  0.00  0.00    +0.000 A 
ATOM     14  C   UNL     1       1.527   7.819  20.863  0.00  0.00    +0.000 A 
ATOM     15  C   UNL     1       1.755   7.972  19.492  0.00  0.00    +0.000 A 
ATOM     16  C   UNL     1       1.168   9.044  18.818  0.00  0.00    +0.000 A 
ATOM     17  C   UNL     1       0.362   9.955  19.512  0.00  0.00    +0.000 A 
BRANCH  12  19
ATOM     18  C   UNL     1      -0.719  10.269  23.029  0.00  0.00    +0.000 C 
ATOM     19  O   UNL     1      -0.633  10.625  21.654  0.00  0.00    +0.000 OA
ENDBRANCH  12  19
ENDBRANCH   1  15
BRANCH   6  20
ATOM     20  N   UNL     1       6.535   4.723  14.914  0.00  0.00    +0.000 N 
ATOM     21  O   UNL     1       7.523   5.461  15.022  0.00  0.00    +0.000 OA
ATOM     22  O   UNL     1       6.370   3.892  14.011  0.00  0.00    +0.000 OA
ENDBRANCH   6  20
TORSDOF 3
ENDMDL
MODEL 6
REMARK VINA RESULT:      -7.1      2.048      7.923
REMARK  Name = 
REMARK  4 active torsions:
REMARK  status: ('A' for Active; 'I' for Inactive)
REMARK    1  A    between atoms: C_1  and  O_2
REMARK    2  A    between atoms: O_2  and  C_3
REMARK    3  A    between atoms: C_6  and  C_7
REMARK    4  A    between atoms: C_12  and  N_13
REMARK                            x       y       z     vdW  Elec       q    Type
REMARK                         _______ _______ _______ _____ _____    ______ ____
ROOT
ATOM      1  C   UNL     1       2.642   6.985  18.690  0.00  0.00    +0.000 C 
ATOM      2  N   UNL     1       3.583   7.310  17.832  0.00  0.00    +0.000 N 
ATOM      3  O   UNL     1       3.958   8.476  17.509  0.00  0.00    +0.000 OA
ATOM      4  C   UNL     1       4.162   6.131  17.262  0.00  0.00    +0.000 A 
ATOM      5  C   UNL     1       5.164   6.089  16.310  0.00  0.00    +0.000 A 
ATOM      6  C   UNL     1       5.536   4.821  15.848  0.00  0.00    +0.000 A 
ATOM      7  C   UNL     1       4.903   3.648  16.340  0.00  0.00    +0.000 A 
ATOM      8  C   UNL     1       3.903   3.732  17.324  0.00  0.00    +0.000 A 
ATOM      9  C   UNL     1       3.559   4.993  17.767  0.00  0.00    +0.000 A 
ATOM     10  C   UNL     1       2.591   5.474  18.750  0.00  0.00    +0.000 C 
ATOM     11  O   UNL     1       1.896   4.816  19.482  0.00  0.00    +0.000 OA
ENDROOT
BRANCH   1  15
ATOM     12  C   UNL     1       0.176   9.727  20.842  0.00  0.00    +0.000 A 
ATOM     13  C   UNL     1       0.409   9.913  19.481  0.00  0.00    +0.000 A 
ATOM     14  C   UNL     1       1.206   9.011  18.771  0.00  0.00    +0.000 A 
ATOM     15  C   UNL     1       1.802   7.927  19.424  0.00  0.00    +0.000 A 
ATOM     16  C   UNL     1       1.584   7.750  20.791  0.00  0.00    +0.000 A 
ATOM     17  C   UNL     1       0.776   8.651  21.497  0.00  0.00    +0.000 A 
BRANCH  12  19
ATOM     18  C   UNL     1      -0.786  10.536  22.838  0.00  0.00    +0.000 C 
ATOM     19  O   UNL     1      -0.618  10.670  21.432  0.00  0.00    +0.000 OA
ENDBRANCH  12  19
ENDBRANCH   1  15
BRANCH   6  20
ATOM     20  N   UNL     1       6.599   4.716  14.838  0.00  0.00    +0.000 N 
ATOM     21  O   UNL     1       6.478   3.846  13.965  0.00  0.00    +0.000 OA
ATOM     22  O   UNL     1       7.548   5.507  14.920  0.00  0.00    +0.000 OA
ENDBRANCH   6  20
TORSDOF 3
ENDMDL
MODEL 7
REMARK VINA RESULT:      -7.0      2.153      7.428
REMARK  Name = 
REMARK  4 active torsions:
REMARK  status: ('A' for Active; 'I' for Inactive)
REMARK    1  A    between atoms: C_1  and  O_2
REMARK    2  A    between atoms: O_2  and  C_3
REMARK    3  A    between atoms: C_6  and  C_7
REMARK    4  A    between atoms: C_12  and  N_13
REMARK                            x       y       z     vdW  Elec       q    Type
REMARK                         _______ _______ _______ _____ _____    ______ ____
ROOT
ATOM      1  C   UNL     1       1.327   8.949  19.458  0.00  0.00    +0.000 C 
ATOM      2  N   UNL     1       1.574   7.846  20.127  0.00  0.00    +0.000 N 
ATOM      3  O   UNL     1       1.094   7.504  21.248  0.00  0.00    +0.000 OA
ATOM      4  C   UNL     1       2.509   7.032  19.412  0.00  0.00    +0.000 A 
ATOM      5  C   UNL     1       3.014   5.811  19.821  0.00  0.00    +0.000 A 
ATOM      6  C   UNL     1       3.968   5.217  18.986  0.00  0.00    +0.000 A 
ATOM      7  C   UNL     1       4.389   5.851  17.786  0.00  0.00    +0.000 A 
ATOM      8  C   UNL     1       3.835   7.082  17.394  0.00  0.00    +0.000 A 
ATOM      9  C   UNL     1       2.891   7.644  18.230  0.00  0.00    +0.000 A 
ATOM     10  C   UNL     1       2.115   8.880  18.169  0.00  0.00    +0.000 C 
ATOM     11  O   UNL     1       2.081   9.684  17.272  0.00  0.00    +0.000 OA
ENDROOT
BRANCH   1  15
ATOM     12  C   UNL     1      -1.203  12.124  20.783  0.00  0.00    +0.000 A 
ATOM     13  C   UNL     1      -1.569  11.347  19.686  0.00  0.00    +0.000 A 
ATOM     14  C   UNL     1      -0.749  10.301  19.256  0.00  0.00    +0.000 A 
ATOM     15  C   UNL     1       0.462  10.037  19.906  0.00  0.00    +0.000 A 
ATOM     16  C   UNL     1       0.838  10.826  20.994  0.00  0.00    +0.000 A 
ATOM     17  C   UNL     1       0.008  11.869  21.428  0.00  0.00    +0.000 A 
BRANCH  12  19
ATOM     18  C   UNL     1      -3.357  13.039  20.491  0.00  0.00    +0.000 C 
ATOM     19  O   UNL     1      -2.081  13.119  21.113  0.00  0.00    +0.000 OA
ENDBRANCH  12  19
ENDBRANCH   1  15
BRANCH   6  20
ATOM     20  N   UNL     1       4.537   3.916  19.370  0.00  0.00    +0.000 N 
ATOM     21  O   UNL     1       5.766   3.787  19.310  0.00  0.00    +0.000 OA
ATOM     22  O   UNL     1       3.750   3.032  19.734  0.00  0.00    +0.000 OA
ENDBRANCH   6  20
TORSDOF 3
ENDMDL
MODEL 8
REMARK VINA RESULT:      -7.0      0.939      1.539
REMARK  Name = 
REMARK  4 active torsions:
REMARK  status: ('A' for Active; 'I' for Inactive)
REMARK    1  A    between atoms: C_1  and  O_2
REMARK    2  A    between atoms: O_2  and  C_3
REMARK    3  A    between atoms: C_6  and  C_7
REMARK    4  A    between atoms: C_12  and  N_13
REMARK                            x       y       z     vdW  Elec       q    Type
REMARK                         _______ _______ _______ _____ _____    ______ ____
ROOT
ATOM      1  C   UNL     1       2.186   7.897  18.879  0.00  0.00    +0.000 C 
ATOM      2  N   UNL     1       1.717   7.934  20.106  0.00  0.00    +0.000 N 
ATOM      3  O   UNL     1       1.814   7.035  20.992  0.00  0.00    +0.000 OA
ATOM      4  C   UNL     1       1.037   9.171  20.338  0.00  0.00    +0.000 A 
ATOM      5  C   UNL     1       0.403   9.551  21.507  0.00  0.00    +0.000 A 
ATOM      6  C   UNL     1      -0.254  10.787  21.491  0.00  0.00    +0.000 A 
ATOM      7  C   UNL     1      -0.263  11.596  20.323  0.00  0.00    +0.000 A 
ATOM      8  C   UNL     1       0.413  11.185  19.161  0.00  0.00    +0.000 A 
ATOM      9  C   UNL     1       1.058   9.965  19.205  0.00  0.00    +0.000 A 
ATOM     10  C   UNL     1       1.841   9.216  18.225  0.00  0.00    +0.000 C 
ATOM     11  O   UNL     1       2.172   9.570  17.122  0.00  0.00    +0.000 OA
ENDROOT
BRANCH   1  15
ATOM     12  C   UNL     1       4.247   4.609  17.097  0.00  0.00    +0.000 A 
ATOM     13  C   UNL     1       2.948   4.447  17.572  0.00  0.00    +0.000 A 
ATOM     14  C   UNL     1       2.266   5.523  18.146  0.00  0.00    +0.000 A 
ATOM     15  C   UNL     1       2.890   6.769  18.274  0.00  0.00    +0.000 A 
ATOM     16  C   UNL     1       4.198   6.928  17.815  0.00  0.00    +0.000 A 
ATOM     17  C   UNL     1       4.875   5.848  17.231  0.00  0.00    +0.000 A 
BRANCH  12  19
ATOM     18  C   UNL     1       5.873   3.722  15.636  0.00  0.00    +0.000 C 
ATOM     19  O   UNL     1       4.815   3.489  16.557  0.00  0.00    +0.000 OA
ENDBRANCH  12  19
ENDBRANCH   1  15
BRANCH   6  20
ATOM     20  N   UNL     1      -0.942  11.243  22.707  0.00  0.00    +0.000 N 
ATOM     21  O   UNL     1      -0.997  12.462  22.914  0.00  0.00    +0.000 OA
ATOM     22  O   UNL     1      -1.429  10.378  23.448  0.00  0.00    +0.000 OA
ENDBRANCH   6  20
TORSDOF 3
ENDMDL
MODEL 9
REMARK VINA RESULT:      -6.9      1.661      2.098
REMARK  Name = 
REMARK  4 active torsions:
REMARK  status: ('A' for Active; 'I' for Inactive)
REMARK    1  A    between atoms: C_1  and  O_2
REMARK    2  A    between atoms: O_2  and  C_3
REMARK    3  A    between atoms: C_6  and  C_7
REMARK    4  A    between atoms: C_12  and  N_13
REMARK                            x       y       z     vdW  Elec       q    Type
REMARK                         _______ _______ _______ _____ _____    ______ ____
ROOT
ATOM      1  C   UNL     1       2.070   7.492  19.100  0.00  0.00    +0.000 C 
ATOM      2  N   UNL     1       1.523   7.789  20.257  0.00  0.00    +0.000 N 
ATOM      3  O   UNL     1       1.402   7.034  21.265  0.00  0.00    +0.000 OA
ATOM      4  C   UNL     1       1.044   9.138  20.245  0.00  0.00    +0.000 A 
ATOM      5  C   UNL     1       0.397   9.786  21.281  0.00  0.00    +0.000 A 
ATOM      6  C   UNL     1      -0.041  11.092  21.028  0.00  0.00    +0.000 A 
ATOM      7  C   UNL     1       0.174  11.703  19.763  0.00  0.00    +0.000 A 
ATOM      8  C   UNL     1       0.856  11.018  18.742  0.00  0.00    +0.000 A 
ATOM      9  C   UNL     1       1.283   9.735  19.020  0.00  0.00    +0.000 A 
ATOM     10  C   UNL     1       2.001   8.733  18.237  0.00  0.00    +0.000 C 
ATOM     11  O   UNL     1       2.469   8.857  17.133  0.00  0.00    +0.000 OA
ENDROOT
BRANCH   1  15
ATOM     12  C   UNL     1       3.687   3.692  18.015  0.00  0.00    +0.000 A 
ATOM     13  C   UNL     1       2.376   4.017  17.677  0.00  0.00    +0.000 A 
ATOM     14  C   UNL     1       1.846   5.264  18.021  0.00  0.00    +0.000 A 
ATOM     15  C   UNL     1       2.619   6.189  18.731  0.00  0.00    +0.000 A 
ATOM     16  C   UNL     1       3.928   5.857  19.085  0.00  0.00    +0.000 A 
ATOM     17  C   UNL     1       4.457   4.610  18.730  0.00  0.00    +0.000 A 
BRANCH  12  19
ATOM     18  C   UNL     1       3.632   1.371  18.435  0.00  0.00    +0.000 C 
ATOM     19  O   UNL     1       4.097   2.446  17.628  0.00  0.00    +0.000 OA
ENDBRANCH  12  19
ENDBRANCH   1  15
BRANCH   6  20
ATOM     20  N   UNL     1      -0.732  11.830  22.094  0.00  0.00    +0.000 N 
ATOM     21  O   UNL     1      -0.575  11.440  23.258  0.00  0.00    +0.000 OA
ATOM     22  O   UNL     1      -1.427  12.799  21.762  0.00  0.00    +0.000 OA
ENDBRANCH   6  20
TORSDOF 3
ENDMDL
