MODEL 1
REMARK VINA RESULT:      -7.5      0.000      0.000
REMARK  Name = 
REMARK  10 active torsions:
REMARK  status: ('A' for Active; 'I' for Inactive)
REMARK    1  A    between atoms: C_1  and  C_2
REMARK    2  A    between atoms: C_5  and  O_6
REMARK    3  A    between atoms: C_7  and  C_8
REMARK    4  A    between atoms: C_7  and  C_9
REMARK    5  A    between atoms: C_9  and  O_10
REMARK    6  A    between atoms: C_14  and  C_15
REMARK    7  A    between atoms: C_15  and  O_16
REMARK    8  A    between atoms: C_17  and  C_18
REMARK    9  A    between atoms: C_18  and  C_19
REMARK   10  A    between atoms: C_19  and  C_20
REMARK                            x       y       z     vdW  Elec       q    Type
REMARK                         _______ _______ _______ _____ _____    ______ ____
ROOT
ATOM      1  C   UNL     1       2.071   4.479  17.486  0.00  0.00    +0.000 C 
ATOM      2  C   UNL     1       2.732   5.069  18.764  0.00  0.00    +0.000 C 
ATOM      3  C   UNL     1       1.664   5.340  19.856  0.00  0.00    +0.000 C 
ATOM      4  C   UNL     1       1.295   4.313  20.910  0.00  0.00    +0.000 C 
ATOM      5  C   UNL     1       2.406   3.381  21.344  0.00  0.00    +0.000 C 
ATOM      6  C   UNL     1       3.230   2.836  20.143  0.00  0.00    +0.000 C 
ATOM      7  C   UNL     1       4.368   1.961  20.722  0.00  0.00    +0.000 C 
ATOM      8  C   UNL     1       3.817   4.121  19.383  0.00  0.00    +0.000 C 
ATOM      9  C   UNL     1       4.960   3.857  18.393  0.00  0.00    +0.000 C 
ATOM     10  C   UNL     1       5.565   5.140  17.807  0.00  0.00    +0.000 C 
ATOM     11  C   UNL     1       4.569   6.204  17.290  0.00  0.00    +0.000 C 
ATOM     12  C   UNL     1       3.396   6.475  18.312  0.00  0.00    +0.000 C 
ENDROOT
BRANCH   5  13
ATOM     13  O   UNL     1       1.832   2.328  22.123  0.00  0.00    +0.000 OA
ATOM     14  H   UNL     1       0.862   2.386  22.068  0.00  0.00    +0.000 HD
ENDBRANCH   5  13
BRANCH   6  15
ATOM     15  C   UNL     1       2.324   1.871  19.339  0.00  0.00    +0.000 C 
BRANCH  15  16
ATOM     16  O   UNL     1       3.053   1.105  18.397  0.00  0.00    +0.000 OA
ATOM     17  H   UNL     1       3.097   0.194  18.737  0.00  0.00    +0.000 HD
ENDBRANCH  15  16
ENDBRANCH   6  15
BRANCH  11  18
ATOM     18  C   UNL     1       5.359   7.456  16.846  0.00  0.00    +0.000 C 
BRANCH  18  19
ATOM     19  O   UNL     1       6.751   7.150  16.751  0.00  0.00    +0.000 OA
ATOM     20  H   UNL     1       6.835   6.344  16.211  0.00  0.00    +0.000 HD
ENDBRANCH  18  19
ENDBRANCH  11  18
BRANCH  12  21
ATOM     21  C   UNL     1       2.366   7.522  17.712  0.00  0.00    +0.000 C 
BRANCH  21  22
ATOM     22  C   UNL     1       2.424   8.981  18.213  0.00  0.00    +0.000 C 
BRANCH  22  23
ATOM     23  C   UNL     1       1.182   9.490  18.855  0.00  0.00    +0.000 C 
ATOM     24  C   UNL     1       0.148  10.131  18.303  0.00  0.00    +0.000 C 
ATOM     25  C   UNL     1      -0.944  10.300  19.277  0.00  0.00    +0.000 C 
ATOM     26  O   UNL     1      -0.442   9.697  20.469  0.00  0.00    +0.000 OA
ATOM     27  C   UNL     1       0.802   9.211  20.244  0.00  0.00    +0.000 C 
ATOM     28  O   UNL     1       1.503   8.617  21.046  0.00  0.00    +0.000 OA
ENDBRANCH  22  23
ENDBRANCH  21  22
ENDBRANCH  12  21
TORSDOF 8
ENDMDL
MODEL 2
REMARK VINA RESULT:      -7.5      1.762      4.676
REMARK  Name = 
REMARK  10 active torsions:
REMARK  status: ('A' for Active; 'I' for Inactive)
REMARK    1  A    between atoms: C_1  and  C_2
REMARK    2  A    between atoms: C_5  and  O_6
REMARK    3  A    between atoms: C_7  and  C_8
REMARK    4  A    between atoms: C_7  and  C_9
REMARK    5  A    between atoms: C_9  and  O_10
REMARK    6  A    between atoms: C_14  and  C_15
REMARK    7  A    between atoms: C_15  and  O_16
REMARK    8  A    between atoms: C_17  and  C_18
REMARK    9  A    between atoms: C_18  and  C_19
REMARK   10  A    between atoms: C_19  and  C_20
REMARK                            x       y       z     vdW  Elec       q    Type
REMARK                         _______ _______ _______ _____ _____    ______ ____
ROOT
ATOM      1  C   UNL     1       4.912   5.183  19.532  0.00  0.00    +0.000 C 
ATOM      2  C   UNL     1       3.943   5.347  18.326  0.00  0.00    +0.000 C 
ATOM      3  C   UNL     1       4.128   6.738  17.663  0.00  0.00    +0.000 C 
ATOM      4  C   UNL     1       5.088   6.973  16.512  0.00  0.00    +0.000 C 
ATOM      5  C   UNL     1       5.294   5.803  15.572  0.00  0.00    +0.000 C 
ATOM      6  C   UNL     1       5.478   4.457  16.330  0.00  0.00    +0.000 C 
ATOM      7  C   UNL     1       5.607   3.341  15.263  0.00  0.00    +0.000 C 
ATOM      8  C   UNL     1       4.157   4.258  17.218  0.00  0.00    +0.000 C 
ATOM      9  C   UNL     1       3.919   2.846  17.769  0.00  0.00    +0.000 C 
ATOM     10  C   UNL     1       2.574   2.694  18.490  0.00  0.00    +0.000 C 
ATOM     11  C   UNL     1       2.204   3.796  19.511  0.00  0.00    +0.000 C 
ATOM     12  C   UNL     1       2.449   5.247  18.940  0.00  0.00    +0.000 C 
ENDROOT
BRANCH   5  13
ATOM     13  O   UNL     1       6.407   6.098  14.723  0.00  0.00    +0.000 OA
ATOM     14  H   UNL     1       7.219   5.755  15.135  0.00  0.00    +0.000 HD
ENDBRANCH   5  13
BRANCH   6  15
ATOM     15  C   UNL     1       6.843   4.501  17.061  0.00  0.00    +0.000 C 
BRANCH  15  16
ATOM     16  O   UNL     1       7.938   4.406  16.166  0.00  0.00    +0.000 OA
ATOM     17  H   UNL     1       7.668   3.815  15.442  0.00  0.00    +0.000 HD
ENDBRANCH  15  16
ENDBRANCH   6  15
BRANCH  11  18
ATOM     18  C   UNL     1       0.779   3.528  20.044  0.00  0.00    +0.000 C 
BRANCH  18  19
ATOM     19  O   UNL     1       0.844   2.847  21.297  0.00  0.00    +0.000 OA
ATOM     20  H   UNL     1       1.370   2.038  21.163  0.00  0.00    +0.000 HD
ENDBRANCH  18  19
ENDBRANCH  11  18
BRANCH  12  21
ATOM     21  C   UNL     1       2.120   6.341  20.042  0.00  0.00    +0.000 C 
BRANCH  21  22
ATOM     22  C   UNL     1       1.934   7.806  19.591  0.00  0.00    +0.000 C 
BRANCH  22  23
ATOM     23  C   UNL     1       1.124   8.660  20.501  0.00  0.00    +0.000 C 
ATOM     24  C   UNL     1       1.113   8.697  21.837  0.00  0.00    +0.000 C 
ATOM     25  C   UNL     1       0.281   9.813  22.322  0.00  0.00    +0.000 C 
ATOM     26  O   UNL     1      -0.207  10.427  21.130  0.00  0.00    +0.000 OA
ATOM     27  C   UNL     1       0.278   9.769  20.049  0.00  0.00    +0.000 C 
ATOM     28  O   UNL     1       0.074  10.051  18.881  0.00  0.00    +0.000 OA
ENDBRANCH  22  23
ENDBRANCH  21  22
ENDBRANCH  12  21
TORSDOF 8
ENDMDL
MODEL 3
REMARK VINA RESULT:      -7.5      0.641      1.154
REMARK  Name = 
REMARK  10 active torsions:
REMARK  status: ('A' for Active; 'I' for Inactive)
REMARK    1  A    between atoms: C_1  and  C_2
REMARK    2  A    between atoms: C_5  and  O_6
REMARK    3  A    between atoms: C_7  and  C_8
REMARK    4  A    between atoms: C_7  and  C_9
REMARK    5  A    between atoms: C_9  and  O_10
REMARK    6  A    between atoms: C_14  and  C_15
REMARK    7  A    between atoms: C_15  and  O_16
REMARK    8  A    between atoms: C_17  and  C_18
REMARK    9  A    between atoms: C_18  and  C_19
REMARK   10  A    between atoms: C_19  and  C_20
REMARK                            x       y       z     vdW  Elec       q    Type
REMARK                         _______ _______ _______ _____ _____    ______ ____
ROOT
ATOM      1  C   UNL     1       2.151   4.442  17.480  0.00  0.00    +0.000 C 
ATOM      2  C   UNL     1       2.752   5.034  18.786  0.00  0.00    +0.000 C 
ATOM      3  C   UNL     1       1.640   5.268  19.842  0.00  0.00    +0.000 C 
ATOM      4  C   UNL     1       1.261   4.221  20.873  0.00  0.00    +0.000 C 
ATOM      5  C   UNL     1       2.380   3.313  21.337  0.00  0.00    +0.000 C 
ATOM      6  C   UNL     1       3.258   2.801  20.160  0.00  0.00    +0.000 C 
ATOM      7  C   UNL     1       4.397   1.948  20.771  0.00  0.00    +0.000 C 
ATOM      8  C   UNL     1       3.839   4.108  19.433  0.00  0.00    +0.000 C 
ATOM      9  C   UNL     1       5.021   3.882  18.481  0.00  0.00    +0.000 C 
ATOM     10  C   UNL     1       5.614   5.185  17.929  0.00  0.00    +0.000 C 
ATOM     11  C   UNL     1       4.611   6.230  17.388  0.00  0.00    +0.000 C 
ATOM     12  C   UNL     1       3.396   6.461  18.370  0.00  0.00    +0.000 C 
ENDROOT
BRANCH   5  13
ATOM     13  O   UNL     1       1.805   2.238  22.086  0.00  0.00    +0.000 OA
ATOM     14  H   UNL     1       0.890   2.096  21.785  0.00  0.00    +0.000 HD
ENDBRANCH   5  13
BRANCH   6  15
ATOM     15  C   UNL     1       2.404   1.822  19.316  0.00  0.00    +0.000 C 
BRANCH  15  16
ATOM     16  O   UNL     1       3.177   1.119  18.359  0.00  0.00    +0.000 OA
ATOM     17  H   UNL     1       2.646   0.361  18.059  0.00  0.00    +0.000 HD
ENDBRANCH  15  16
ENDBRANCH   6  15
BRANCH  11  18
ATOM     18  C   UNL     1       5.384   7.505  16.984  0.00  0.00    +0.000 C 
BRANCH  18  19
ATOM     19  O   UNL     1       6.731   7.175  16.643  0.00  0.00    +0.000 OA
ATOM     20  H   UNL     1       7.118   7.951  16.201  0.00  0.00    +0.000 HD
ENDBRANCH  18  19
ENDBRANCH  11  18
BRANCH  12  21
ATOM     21  C   UNL     1       2.362   7.488  17.745  0.00  0.00    +0.000 C 
BRANCH  21  22
ATOM     22  C   UNL     1       2.278   8.907  18.348  0.00  0.00    +0.000 C 
BRANCH  22  23
ATOM     23  C   UNL     1       1.265   9.090  19.421  0.00  0.00    +0.000 C 
ATOM     24  C   UNL     1       1.257   8.608  20.667  0.00  0.00    +0.000 C 
ATOM     25  C   UNL     1       0.143   9.179  21.443  0.00  0.00    +0.000 C 
ATOM     26  O   UNL     1      -0.516  10.045  20.519  0.00  0.00    +0.000 OA
ATOM     27  C   UNL     1       0.128  10.012  19.328  0.00  0.00    +0.000 C 
ATOM     28  O   UNL     1      -0.163  10.653  18.332  0.00  0.00    +0.000 OA
ENDBRANCH  22  23
ENDBRANCH  21  22
ENDBRANCH  12  21
TORSDOF 8
ENDMDL
MODEL 4
REMARK VINA RESULT:      -7.4      3.014      6.228
REMARK  Name = 
REMARK  10 active torsions:
REMARK  status: ('A' for Active; 'I' for Inactive)
REMARK    1  A    between atoms: C_1  and  C_2
REMARK    2  A    between atoms: C_5  and  O_6
REMARK    3  A    between atoms: C_7  and  C_8
REMARK    4  A    between atoms: C_7  and  C_9
REMARK    5  A    between atoms: C_9  and  O_10
REMARK    6  A    between atoms: C_14  and  C_15
REMARK    7  A    between atoms: C_15  and  O_16
REMARK    8  A    between atoms: C_17  and  C_18
REMARK    9  A    between atoms: C_18  and  C_19
REMARK   10  A    between atoms: C_19  and  C_20
REMARK                            x       y       z     vdW  Elec       q    Type
REMARK                         _______ _______ _______ _____ _____    ______ ____
ROOT
ATOM      1  C   UNL     1       5.006   3.487  19.225  0.00  0.00    +0.000 C 
ATOM      2  C   UNL     1       3.886   3.874  18.217  0.00  0.00    +0.000 C 
ATOM      3  C   UNL     1       3.223   2.604  17.622  0.00  0.00    +0.000 C 
ATOM      4  C   UNL     1       1.998   1.957  18.241  0.00  0.00    +0.000 C 
ATOM      5  C   UNL     1       1.034   2.894  18.937  0.00  0.00    +0.000 C 
ATOM      6  C   UNL     1       1.761   3.937  19.834  0.00  0.00    +0.000 C 
ATOM      7  C   UNL     1       0.677   4.871  20.427  0.00  0.00    +0.000 C 
ATOM      8  C   UNL     1       2.755   4.744  18.866  0.00  0.00    +0.000 C 
ATOM      9  C   UNL     1       3.310   6.064  19.418  0.00  0.00    +0.000 C 
ATOM     10  C   UNL     1       4.139   6.849  18.393  0.00  0.00    +0.000 C 
ATOM     11  C   UNL     1       5.197   6.050  17.597  0.00  0.00    +0.000 C 
ATOM     12  C   UNL     1       4.622   4.693  17.030  0.00  0.00    +0.000 C 
ENDROOT
BRANCH   5  13
ATOM     13  O   UNL     1       0.098   2.107  19.680  0.00  0.00    +0.000 OA
ATOM     14  H   UNL     1      -0.750   2.583  19.724  0.00  0.00    +0.000 HD
ENDBRANCH   5  13
BRANCH   6  15
ATOM     15  C   UNL     1       2.376   3.186  21.040  0.00  0.00    +0.000 C 
BRANCH  15  16
ATOM     16  O   UNL     1       1.400   2.808  21.995  0.00  0.00    +0.000 OA
ATOM     17  H   UNL     1       1.243   1.854  21.886  0.00  0.00    +0.000 HD
ENDBRANCH  15  16
ENDBRANCH   6  15
BRANCH  11  18
ATOM     18  C   UNL     1       5.844   6.981  16.548  0.00  0.00    +0.000 C 
BRANCH  18  19
ATOM     19  O   UNL     1       5.005   7.083  15.397  0.00  0.00    +0.000 OA
ATOM     20  H   UNL     1       4.961   6.200  14.989  0.00  0.00    +0.000 HD
ENDBRANCH  18  19
ENDBRANCH  11  18
BRANCH  12  21
ATOM     21  C   UNL     1       5.756   3.878  16.278  0.00  0.00    +0.000 C 
BRANCH  21  22
ATOM     22  C   UNL     1       5.488   3.402  14.834  0.00  0.00    +0.000 C 
BRANCH  22  23
ATOM     23  C   UNL     1       6.322   4.041  13.782  0.00  0.00    +0.000 C 
ATOM     24  C   UNL     1       7.247   4.997  13.902  0.00  0.00    +0.000 C 
ATOM     25  C   UNL     1       7.948   5.212  12.624  0.00  0.00    +0.000 C 
ATOM     26  O   UNL     1       7.332   4.286  11.730  0.00  0.00    +0.000 OA
ATOM     27  C   UNL     1       6.377   3.586  12.389  0.00  0.00    +0.000 C 
ATOM     28  O   UNL     1       5.680   2.700  11.923  0.00  0.00    +0.000 OA
ENDBRANCH  22  23
ENDBRANCH  21  22
ENDBRANCH  12  21
TORSDOF 8
ENDMDL
MODEL 5
REMARK VINA RESULT:      -7.2      2.961      6.143
REMARK  Name = 
REMARK  10 active torsions:
REMARK  status: ('A' for Active; 'I' for Inactive)
REMARK    1  A    between atoms: C_1  and  C_2
REMARK    2  A    between atoms: C_5  and  O_6
REMARK    3  A    between atoms: C_7  and  C_8
REMARK    4  A    between atoms: C_7  and  C_9
REMARK    5  A    between atoms: C_9  and  O_10
REMARK    6  A    between atoms: C_14  and  C_15
REMARK    7  A    between atoms: C_15  and  O_16
REMARK    8  A    between atoms: C_17  and  C_18
REMARK    9  A    between atoms: C_18  and  C_19
REMARK   10  A    between atoms: C_19  and  C_20
REMARK                            x       y       z     vdW  Elec       q    Type
REMARK                         _______ _______ _______ _____ _____    ______ ____
ROOT
ATOM      1  C   UNL     1       5.051   3.603  19.234  0.00  0.00    +0.000 C 
ATOM      2  C   UNL     1       3.933   3.963  18.213  0.00  0.00    +0.000 C 
ATOM      3  C   UNL     1       3.334   2.678  17.583  0.00  0.00    +0.000 C 
ATOM      4  C   UNL     1       2.127   1.969  18.167  0.00  0.00    +0.000 C 
ATOM      5  C   UNL     1       1.113   2.852  18.864  0.00  0.00    +0.000 C 
ATOM      6  C   UNL     1       1.780   3.907  19.792  0.00  0.00    +0.000 C 
ATOM      7  C   UNL     1       0.648   4.783  20.383  0.00  0.00    +0.000 C 
ATOM      8  C   UNL     1       2.755   4.773  18.858  0.00  0.00    +0.000 C 
ATOM      9  C   UNL     1       3.246   6.103  19.444  0.00  0.00    +0.000 C 
ATOM     10  C   UNL     1       4.059   6.942  18.449  0.00  0.00    +0.000 C 
ATOM     11  C   UNL     1       5.163   6.203  17.658  0.00  0.00    +0.000 C 
ATOM     12  C   UNL     1       4.655   4.835  17.055  0.00  0.00    +0.000 C 
ENDROOT
BRANCH   5  13
ATOM     13  O   UNL     1       0.198   2.013  19.574  0.00  0.00    +0.000 OA
ATOM     14  H   UNL     1      -0.688   2.414  19.545  0.00  0.00    +0.000 HD
ENDBRANCH   5  13
BRANCH   6  15
ATOM     15  C   UNL     1       2.405   3.158  20.995  0.00  0.00    +0.000 C 
BRANCH  15  16
ATOM     16  O   UNL     1       1.442   2.812  21.975  0.00  0.00    +0.000 OA
ATOM     17  H   UNL     1       1.892   2.263  22.641  0.00  0.00    +0.000 HD
ENDBRANCH  15  16
ENDBRANCH   6  15
BRANCH  11  18
ATOM     18  C   UNL     1       5.789   7.180  16.638  0.00  0.00    +0.000 C 
BRANCH  18  19
ATOM     19  O   UNL     1       6.998   7.730  17.164  0.00  0.00    +0.000 OA
ATOM     20  H   UNL     1       6.979   8.689  16.995  0.00  0.00    +0.000 HD
ENDBRANCH  18  19
ENDBRANCH  11  18
BRANCH  12  21
ATOM     21  C   UNL     1       5.835   4.082  16.309  0.00  0.00    +0.000 C 
BRANCH  21  22
ATOM     22  C   UNL     1       6.769   4.901  15.392  0.00  0.00    +0.000 C 
BRANCH  22  23
ATOM     23  C   UNL     1       6.842   4.446  13.978  0.00  0.00    +0.000 C 
ATOM     24  C   UNL     1       6.066   3.572  13.331  0.00  0.00    +0.000 C 
ATOM     25  C   UNL     1       6.390   3.547  11.894  0.00  0.00    +0.000 C 
ATOM     26  O   UNL     1       7.449   4.495  11.761  0.00  0.00    +0.000 OA
ATOM     27  C   UNL     1       7.728   5.038  12.970  0.00  0.00    +0.000 C 
ATOM     28  O   UNL     1       8.563   5.896  13.202  0.00  0.00    +0.000 OA
ENDBRANCH  22  23
ENDBRANCH  21  22
ENDBRANCH  12  21
TORSDOF 8
ENDMDL
MODEL 6
REMARK VINA RESULT:      -7.2      1.633      5.207
REMARK  Name = 
REMARK  10 active torsions:
REMARK  status: ('A' for Active; 'I' for Inactive)
REMARK    1  A    between atoms: C_1  and  C_2
REMARK    2  A    between atoms: C_5  and  O_6
REMARK    3  A    between atoms: C_7  and  C_8
REMARK    4  A    between atoms: C_7  and  C_9
REMARK    5  A    between atoms: C_9  and  O_10
REMARK    6  A    between atoms: C_14  and  C_15
REMARK    7  A    between atoms: C_15  and  O_16
REMARK    8  A    between atoms: C_17  and  C_18
REMARK    9  A    between atoms: C_18  and  C_19
REMARK   10  A    between atoms: C_19  and  C_20
REMARK                            x       y       z     vdW  Elec       q    Type
REMARK                         _______ _______ _______ _____ _____    ______ ____
ROOT
ATOM      1  C   UNL     1       4.425   5.441  19.248  0.00  0.00    +0.000 C 
ATOM      2  C   UNL     1       3.022   5.250  18.603  0.00  0.00    +0.000 C 
ATOM      3  C   UNL     1       3.078   4.181  17.481  0.00  0.00    +0.000 C 
ATOM      4  C   UNL     1       2.803   2.711  17.739  0.00  0.00    +0.000 C 
ATOM      5  C   UNL     1       1.810   2.406  18.841  0.00  0.00    +0.000 C 
ATOM      6  C   UNL     1       2.045   3.274  20.110  0.00  0.00    +0.000 C 
ATOM      7  C   UNL     1       0.930   2.919  21.125  0.00  0.00    +0.000 C 
ATOM      8  C   UNL     1       1.931   4.802  19.636  0.00  0.00    +0.000 C 
ATOM      9  C   UNL     1       1.753   5.844  20.749  0.00  0.00    +0.000 C 
ATOM     10  C   UNL     1       1.512   7.263  20.220  0.00  0.00    +0.000 C 
ATOM     11  C   UNL     1       2.455   7.755  19.097  0.00  0.00    +0.000 C 
ATOM     12  C   UNL     1       2.635   6.682  17.953  0.00  0.00    +0.000 C 
ENDROOT
BRANCH   5  13
ATOM     13  O   UNL     1       1.872   1.006  19.128  0.00  0.00    +0.000 OA
ATOM     14  H   UNL     1       2.058   0.522  18.305  0.00  0.00    +0.000 HD
ENDBRANCH   5  13
BRANCH   6  15
ATOM     15  C   UNL     1       3.372   2.816  20.765  0.00  0.00    +0.000 C 
BRANCH  15  16
ATOM     16  O   UNL     1       3.160   2.099  21.969  0.00  0.00    +0.000 OA
ATOM     17  H   UNL     1       2.199   2.045  22.108  0.00  0.00    +0.000 HD
ENDBRANCH  15  16
ENDBRANCH   6  15
BRANCH  11  18
ATOM     18  C   UNL     1       1.989   9.150  18.625  0.00  0.00    +0.000 C 
BRANCH  18  19
ATOM     19  O   UNL     1       1.016   9.674  19.530  0.00  0.00    +0.000 OA
ATOM     20  H   UNL     1       1.426   9.706  20.412  0.00  0.00    +0.000 HD
ENDBRANCH  18  19
ENDBRANCH  11  18
BRANCH  12  21
ATOM     21  C   UNL     1       3.659   7.201  16.858  0.00  0.00    +0.000 C 
BRANCH  21  22
ATOM     22  C   UNL     1       5.171   7.037  17.127  0.00  0.00    +0.000 C 
BRANCH  22  23
ATOM     23  C   UNL     1       5.867   6.026  16.286  0.00  0.00    +0.000 C 
ATOM     24  C   UNL     1       5.561   5.592  15.061  0.00  0.00    +0.000 C 
ATOM     25  C   UNL     1       6.619   4.710  14.538  0.00  0.00    +0.000 C 
ATOM     26  O   UNL     1       7.582   4.662  15.590  0.00  0.00    +0.000 OA
ATOM     27  C   UNL     1       7.163   5.430  16.625  0.00  0.00    +0.000 C 
ATOM     28  O   UNL     1       7.762   5.624  17.669  0.00  0.00    +0.000 OA
ENDBRANCH  22  23
ENDBRANCH  21  22
ENDBRANCH  12  21
TORSDOF 8
ENDMDL
MODEL 7
REMARK VINA RESULT:      -7.0      1.593      4.516
REMARK  Name = 
REMARK  10 active torsions:
REMARK  status: ('A' for Active; 'I' for Inactive)
REMARK    1  A    between atoms: C_1  and  C_2
REMARK    2  A    between atoms: C_5  and  O_6
REMARK    3  A    between atoms: C_7  and  C_8
REMARK    4  A    between atoms: C_7  and  C_9
REMARK    5  A    between atoms: C_9  and  O_10
REMARK    6  A    between atoms: C_14  and  C_15
REMARK    7  A    between atoms: C_15  and  O_16
REMARK    8  A    between atoms: C_17  and  C_18
REMARK    9  A    between atoms: C_18  and  C_19
REMARK   10  A    between atoms: C_19  and  C_20
REMARK                            x       y       z     vdW  Elec       q    Type
REMARK                         _______ _______ _______ _____ _____    ______ ____
ROOT
ATOM      1  C   UNL     1       4.687   5.175  19.558  0.00  0.00    +0.000 C 
ATOM      2  C   UNL     1       3.798   5.251  18.284  0.00  0.00    +0.000 C 
ATOM      3  C   UNL     1       3.925   6.644  17.613  0.00  0.00    +0.000 C 
ATOM      4  C   UNL     1       4.944   6.937  16.527  0.00  0.00    +0.000 C 
ATOM      5  C   UNL     1       5.303   5.775  15.625  0.00  0.00    +0.000 C 
ATOM      6  C   UNL     1       5.533   4.456  16.416  0.00  0.00    +0.000 C 
ATOM      7  C   UNL     1       5.820   3.341  15.381  0.00  0.00    +0.000 C 
ATOM      8  C   UNL     1       4.170   4.169  17.213  0.00  0.00    +0.000 C 
ATOM      9  C   UNL     1       4.000   2.749  17.770  0.00  0.00    +0.000 C 
ATOM     10  C   UNL     1       2.621   2.504  18.398  0.00  0.00    +0.000 C 
ATOM     11  C   UNL     1       2.099   3.587  19.371  0.00  0.00    +0.000 C 
ATOM     12  C   UNL     1       2.275   5.046  18.794  0.00  0.00    +0.000 C 
ENDROOT
BRANCH   5  13
ATOM     13  O   UNL     1       6.448   6.144  14.851  0.00  0.00    +0.000 OA
ATOM     14  H   UNL     1       6.675   5.411  14.252  0.00  0.00    +0.000 HD
ENDBRANCH   5  13
BRANCH   6  15
ATOM     15  C   UNL     1       6.835   4.612  17.240  0.00  0.00    +0.000 C 
BRANCH  15  16
ATOM     16  O   UNL     1       7.966   4.090  16.565  0.00  0.00    +0.000 OA
ATOM     17  H   UNL     1       8.613   3.831  17.244  0.00  0.00    +0.000 HD
ENDBRANCH  15  16
ENDBRANCH   6  15
BRANCH  11  18
ATOM     18  C   UNL     1       0.664   3.219  19.807  0.00  0.00    +0.000 C 
BRANCH  18  19
ATOM     19  O   UNL     1       0.655   2.820  21.179  0.00  0.00    +0.000 OA
ATOM     20  H   UNL     1      -0.151   2.294  21.324  0.00  0.00    +0.000 HD
ENDBRANCH  18  19
ENDBRANCH  11  18
BRANCH  12  21
ATOM     21  C   UNL     1       1.788   6.125  19.851  0.00  0.00    +0.000 C 
BRANCH  21  22
ATOM     22  C   UNL     1       2.409   7.538  19.800  0.00  0.00    +0.000 C 
BRANCH  22  23
ATOM     23  C   UNL     1       1.464   8.644  19.490  0.00  0.00    +0.000 C 
ATOM     24  C   UNL     1       1.186   9.212  18.313  0.00  0.00    +0.000 C 
ATOM     25  C   UNL     1       0.063  10.157  18.440  0.00  0.00    +0.000 C 
ATOM     26  O   UNL     1      -0.289  10.095  19.822  0.00  0.00    +0.000 OA
ATOM     27  C   UNL     1       0.517   9.210  20.457  0.00  0.00    +0.000 C 
ATOM     28  O   UNL     1       0.468   8.904  21.636  0.00  0.00    +0.000 OA
ENDBRANCH  22  23
ENDBRANCH  21  22
ENDBRANCH  12  21
TORSDOF 8
ENDMDL
MODEL 8
REMARK VINA RESULT:      -7.0      1.051      1.054
REMARK  Name = 
REMARK  10 active torsions:
REMARK  status: ('A' for Active; 'I' for Inactive)
REMARK    1  A    between atoms: C_1  and  C_2
REMARK    2  A    between atoms: C_5  and  O_6
REMARK    3  A    between atoms: C_7  and  C_8
REMARK    4  A    between atoms: C_7  and  C_9
REMARK    5  A    between atoms: C_9  and  O_10
REMARK    6  A    between atoms: C_14  and  C_15
REMARK    7  A    between atoms: C_15  and  O_16
REMARK    8  A    between atoms: C_17  and  C_18
REMARK    9  A    between atoms: C_18  and  C_19
REMARK   10  A    between atoms: C_19  and  C_20
REMARK                            x       y       z     vdW  Elec       q    Type
REMARK                         _______ _______ _______ _____ _____    ______ ____
ROOT
ATOM      1  C   UNL     1       1.735   4.508  17.560  0.00  0.00    +0.000 C 
ATOM      2  C   UNL     1       2.564   5.101  18.735  0.00  0.00    +0.000 C 
ATOM      3  C   UNL     1       1.634   5.508  19.909  0.00  0.00    +0.000 C 
ATOM      4  C   UNL     1       1.296   4.564  21.047  0.00  0.00    +0.000 C 
ATOM      5  C   UNL     1       2.371   3.566  21.422  0.00  0.00    +0.000 C 
ATOM      6  C   UNL     1       3.026   2.901  20.178  0.00  0.00    +0.000 C 
ATOM      7  C   UNL     1       4.147   1.964  20.691  0.00  0.00    +0.000 C 
ATOM      8  C   UNL     1       3.631   4.098  19.297  0.00  0.00    +0.000 C 
ATOM      9  C   UNL     1       4.644   3.697  18.217  0.00  0.00    +0.000 C 
ATOM     10  C   UNL     1       5.284   4.898  17.508  0.00  0.00    +0.000 C 
ATOM     11  C   UNL     1       4.325   6.015  17.032  0.00  0.00    +0.000 C 
ATOM     12  C   UNL     1       3.285   6.426  18.146  0.00  0.00    +0.000 C 
ENDROOT
BRANCH   5  13
ATOM     13  O   UNL     1       1.799   2.600  22.309  0.00  0.00    +0.000 OA
ATOM     14  H   UNL     1       1.019   2.203  21.884  0.00  0.00    +0.000 HD
ENDBRANCH   5  13
BRANCH   6  15
ATOM     15  C   UNL     1       1.973   1.977  19.518  0.00  0.00    +0.000 C 
BRANCH  15  16
ATOM     16  O   UNL     1       2.515   1.214  18.454  0.00  0.00    +0.000 OA
ATOM     17  H   UNL     1       3.214   0.651  18.829  0.00  0.00    +0.000 HD
ENDBRANCH  15  16
ENDBRANCH   6  15
BRANCH  11  18
ATOM     18  C   UNL     1       5.159   7.176  16.448  0.00  0.00    +0.000 C 
BRANCH  18  19
ATOM     19  O   UNL     1       5.202   7.082  15.023  0.00  0.00    +0.000 OA
ATOM     20  H   UNL     1       4.574   6.385  14.759  0.00  0.00    +0.000 HD
ENDBRANCH  18  19
ENDBRANCH  11  18
BRANCH  12  21
ATOM     21  C   UNL     1       2.282   7.524  17.593  0.00  0.00    +0.000 C 
BRANCH  21  22
ATOM     22  C   UNL     1       2.318   8.935  18.219  0.00  0.00    +0.000 C 
BRANCH  22  23
ATOM     23  C   UNL     1       1.022   9.666  18.231  0.00  0.00    +0.000 C 
ATOM     24  C   UNL     1      -0.125   9.361  17.618  0.00  0.00    +0.000 C 
ATOM     25  C   UNL     1      -1.203  10.271  18.041  0.00  0.00    +0.000 C 
ATOM     26  O   UNL     1      -0.569  11.155  18.966  0.00  0.00    +0.000 OA
ATOM     27  C   UNL     1       0.736  10.816  19.095  0.00  0.00    +0.000 C 
ATOM     28  O   UNL     1       1.553  11.353  19.823  0.00  0.00    +0.000 OA
ENDBRANCH  22  23
ENDBRANCH  21  22
ENDBRANCH  12  21
TORSDOF 8
ENDMDL
MODEL 9
REMARK VINA RESULT:      -6.9      2.395      5.785
REMARK  Name = 
REMARK  10 active torsions:
REMARK  status: ('A' for Active; 'I' for Inactive)
REMARK    1  A    between atoms: C_1  and  C_2
REMARK    2  A    between atoms: C_5  and  O_6
REMARK    3  A    between atoms: C_7  and  C_8
REMARK    4  A    between atoms: C_7  and  C_9
REMARK    5  A    between atoms: C_9  and  O_10
REMARK    6  A    between atoms: C_14  and  C_15
REMARK    7  A    between atoms: C_15  and  O_16
REMARK    8  A    between atoms: C_17  and  C_18
REMARK    9  A    between atoms: C_18  and  C_19
REMARK   10  A    between atoms: C_19  and  C_20
REMARK                            x       y       z     vdW  Elec       q    Type
REMARK                         _______ _______ _______ _____ _____    ______ ____
ROOT
ATOM      1  C   UNL     1       5.008   5.036  19.168  0.00  0.00    +0.000 C 
ATOM      2  C   UNL     1       3.766   4.850  18.250  0.00  0.00    +0.000 C 
ATOM      3  C   UNL     1       3.906   3.562  17.396  0.00  0.00    +0.000 C 
ATOM      4  C   UNL     1       3.369   2.218  17.852  0.00  0.00    +0.000 C 
ATOM      5  C   UNL     1       2.127   2.259  18.718  0.00  0.00    +0.000 C 
ATOM      6  C   UNL     1       2.207   3.354  19.820  0.00  0.00    +0.000 C 
ATOM      7  C   UNL     1       0.859   3.339  20.583  0.00  0.00    +0.000 C 
ATOM      8  C   UNL     1       2.423   4.746  19.054  0.00  0.00    +0.000 C 
ATOM      9  C   UNL     1       2.164   6.017  19.875  0.00  0.00    +0.000 C 
ATOM     10  C   UNL     1       2.254   7.305  19.046  0.00  0.00    +0.000 C 
ATOM     11  C   UNL     1       3.479   7.445  18.113  0.00  0.00    +0.000 C 
ATOM     12  C   UNL     1       3.743   6.137  17.269  0.00  0.00    +0.000 C 
ENDROOT
BRANCH   5  13
ATOM     13  O   UNL     1       1.919   0.956  19.269  0.00  0.00    +0.000 OA
ATOM     14  H   UNL     1       1.527   1.045  20.155  0.00  0.00    +0.000 HD
ENDBRANCH   5  13
BRANCH   6  15
ATOM     15  C   UNL     1       3.278   2.919  20.850  0.00  0.00    +0.000 C 
BRANCH  15  16
ATOM     16  O   UNL     1       2.707   2.378  22.029  0.00  0.00    +0.000 OA
ATOM     17  H   UNL     1       3.374   1.797  22.432  0.00  0.00    +0.000 HD
ENDBRANCH  15  16
ENDBRANCH   6  15
BRANCH  11  18
ATOM     18  C   UNL     1       3.336   8.744  17.289  0.00  0.00    +0.000 C 
BRANCH  18  19
ATOM     19  O   UNL     1       2.031   9.297  17.468  0.00  0.00    +0.000 OA
ATOM     20  H   UNL     1       2.021  10.167  17.030  0.00  0.00    +0.000 HD
ENDBRANCH  18  19
ENDBRANCH  11  18
BRANCH  12  21
ATOM     21  C   UNL     1       5.045   6.303  16.377  0.00  0.00    +0.000 C 
BRANCH  21  22
ATOM     22  C   UNL     1       6.003   5.100  16.242  0.00  0.00    +0.000 C 
BRANCH  22  23
ATOM     23  C   UNL     1       6.144   4.540  14.871  0.00  0.00    +0.000 C 
ATOM     24  C   UNL     1       5.314   3.740  14.196  0.00  0.00    +0.000 C 
ATOM     25  C   UNL     1       5.767   3.569  12.805  0.00  0.00    +0.000 C 
ATOM     26  O   UNL     1       6.961   4.348  12.731  0.00  0.00    +0.000 OA
ATOM     27  C   UNL     1       7.199   4.929  13.930  0.00  0.00    +0.000 C 
ATOM     28  O   UNL     1       8.124   5.676  14.200  0.00  0.00    +0.000 OA
ENDBRANCH  22  23
ENDBRANCH  21  22
ENDBRANCH  12  21
TORSDOF 8
ENDMDL
