MODEL 1
REMARK VINA RESULT:      -7.1      0.000      0.000
REMARK  Name = 
REMARK  13 active torsions:
REMARK  status: ('A' for Active; 'I' for Inactive)
REMARK    1  A    between atoms: C_1  and  O_2
REMARK    2  A    between atoms: O_2  and  C_3
REMARK    3  A    between atoms: C_3  and  C_4
REMARK    4  A    between atoms: C_4  and  O_5
REMARK    5  A    between atoms: O_5  and  C_6
REMARK    6  A    between atoms: C_6  and  C_7
REMARK    7  A    between atoms: C_7  and  C_8
REMARK    8  A    between atoms: C_8  and  C_9
REMARK    9  A    between atoms: N_11  and  C_12
REMARK   10  A    between atoms: C_12  and  C_13
REMARK   11  A    between atoms: C_23  and  C_24
REMARK   12  A    between atoms: N_26  and  C_27
REMARK   13  A    between atoms: N_26  and  O_28
REMARK                            x       y       z     vdW  Elec       q    Type
REMARK                         _______ _______ _______ _____ _____    ______ ____
ROOT
ATOM      1  C   UNL     1       2.283   6.468  19.728  0.00  0.00    +0.000 A 
ATOM      2  C   UNL     1       3.045   6.123  18.632  0.00  0.00    +0.000 A 
ATOM      3  N   UNL     1       3.182   7.230  17.833  0.00  0.00    +0.000 N 
ATOM      4  C   UNL     1       2.464   8.283  18.362  0.00  0.00    +0.000 A 
ATOM      5  C   UNL     1       2.293   9.595  17.942  0.00  0.00    +0.000 A 
ATOM      6  N   UNL     1       1.519  10.434  18.668  0.00  0.00    +0.000 NA
ATOM      7  C   UNL     1       0.935   9.996  19.809  0.00  0.00    +0.000 A 
ATOM      8  C   UNL     1       1.079   8.700  20.288  0.00  0.00    +0.000 A 
ATOM      9  C   UNL     1       1.872   7.822  19.537  0.00  0.00    +0.000 A 
ENDROOT
BRANCH   7  10
ATOM     10  C   UNL     1       0.091  10.941  20.610  0.00  0.00    +0.000 C 
ATOM     11  O   UNL     1       0.481  11.294  21.732  0.00  0.00    +0.000 OA
ATOM     12  N   UNL     1      -1.108  11.440  20.134  0.00  0.00    +0.000 N 
ATOM     13  C   UNL     1      -1.889  11.245  18.928  0.00  0.00    +0.000 C 
BRANCH  12  14
ATOM     14  O   UNL     1      -1.784  12.295  21.045  0.00  0.00    +0.000 OA
ATOM     15  H   UNL     1      -1.125  12.375  21.768  0.00  0.00    +0.000 HD
ENDBRANCH  12  14
ENDBRANCH   7  10
BRANCH   1  16
ATOM     16  C   UNL     1       1.983   5.598  20.903  0.00  0.00    +0.000 C 
BRANCH  16  17
ATOM     17  C   UNL     1       1.114   4.401  20.501  0.00  0.00    +0.000 C 
BRANCH  17  18
ATOM     18  C   UNL     1       1.446   3.173  21.330  0.00  0.00    +0.000 C 
BRANCH  18  19
ATOM     19  O   UNL     1       2.607   2.561  20.775  0.00  0.00    +0.000 OA
BRANCH  19  20
ATOM     20  C   UNL     1       2.353   2.022  19.480  0.00  0.00    +0.000 C 
BRANCH  20  21
ATOM     21  C   UNL     1       3.682   1.713  18.808  0.00  0.00    +0.000 C 
BRANCH  21  23
ATOM     22  C   UNL     1       2.485   2.999  17.248  0.00  0.00    +0.000 C 
ATOM     23  O   UNL     1       3.706   2.329  17.523  0.00  0.00    +0.000 OA
ENDBRANCH  21  23
ENDBRANCH  20  21
ENDBRANCH  19  20
ENDBRANCH  18  19
ENDBRANCH  17  18
ENDBRANCH  16  17
ENDBRANCH   1  16
BRANCH   3  24
ATOM     24  C   UNL     1       4.020   7.266  16.636  0.00  0.00    +0.000 C 
BRANCH  24  25
ATOM     25  C   UNL     1       5.272   6.445  16.841  0.00  0.00    +0.000 A 
ATOM     26  C   UNL     1       5.388   5.166  16.268  0.00  0.00    +0.000 A 
ATOM     27  C   UNL     1       6.484   4.355  16.560  0.00  0.00    +0.000 A 
ATOM     28  C   UNL     1       7.478   4.829  17.405  0.00  0.00    +0.000 A 
ATOM     29  F   UNL     1       8.510   4.035  17.719  0.00  0.00    +0.000 F 
ATOM     30  C   UNL     1       7.412   6.111  17.935  0.00  0.00    +0.000 A 
ATOM     31  C   UNL     1       6.313   6.923  17.651  0.00  0.00    +0.000 A 
ENDBRANCH  24  25
ENDBRANCH   3  24
TORSDOF 11
ENDMDL
MODEL 2
REMARK VINA RESULT:      -6.8      3.752      6.849
REMARK  Name = 
REMARK  13 active torsions:
REMARK  status: ('A' for Active; 'I' for Inactive)
REMARK    1  A    between atoms: C_1  and  O_2
REMARK    2  A    between atoms: O_2  and  C_3
REMARK    3  A    between atoms: C_3  and  C_4
REMARK    4  A    between atoms: C_4  and  O_5
REMARK    5  A    between atoms: O_5  and  C_6
REMARK    6  A    between atoms: C_6  and  C_7
REMARK    7  A    between atoms: C_7  and  C_8
REMARK    8  A    between atoms: C_8  and  C_9
REMARK    9  A    between atoms: N_11  and  C_12
REMARK   10  A    between atoms: C_12  and  C_13
REMARK   11  A    between atoms: C_23  and  C_24
REMARK   12  A    between atoms: N_26  and  C_27
REMARK   13  A    between atoms: N_26  and  O_28
REMARK                            x       y       z     vdW  Elec       q    Type
REMARK                         _______ _______ _______ _____ _____    ______ ____
ROOT
ATOM      1  C   UNL     1       2.272   6.462  19.919  0.00  0.00    +0.000 A 
ATOM      2  C   UNL     1       1.502   7.575  19.656  0.00  0.00    +0.000 A 
ATOM      3  N   UNL     1       1.977   8.170  18.514  0.00  0.00    +0.000 N 
ATOM      4  C   UNL     1       3.090   7.494  18.060  0.00  0.00    +0.000 A 
ATOM      5  C   UNL     1       3.912   7.691  16.958  0.00  0.00    +0.000 A 
ATOM      6  N   UNL     1       4.957   6.859  16.746  0.00  0.00    +0.000 NA
ATOM      7  C   UNL     1       5.183   5.828  17.596  0.00  0.00    +0.000 A 
ATOM      8  C   UNL     1       4.388   5.571  18.707  0.00  0.00    +0.000 A 
ATOM      9  C   UNL     1       3.309   6.434  18.938  0.00  0.00    +0.000 A 
ENDROOT
BRANCH   7  10
ATOM     10  C   UNL     1       6.336   4.907  17.340  0.00  0.00    +0.000 C 
ATOM     11  O   UNL     1       6.257   4.083  16.417  0.00  0.00    +0.000 OA
ATOM     12  N   UNL     1       7.492   4.948  18.097  0.00  0.00    +0.000 N 
ATOM     13  C   UNL     1       7.936   5.719  19.243  0.00  0.00    +0.000 C 
BRANCH  12  14
ATOM     14  O   UNL     1       8.463   3.979  17.731  0.00  0.00    +0.000 OA
ATOM     15  H   UNL     1       9.122   4.075  18.453  0.00  0.00    +0.000 HD
ENDBRANCH  12  14
ENDBRANCH   7  10
BRANCH   1  16
ATOM     16  C   UNL     1       2.035   5.462  21.001  0.00  0.00    +0.000 C 
BRANCH  16  17
ATOM     17  C   UNL     1       1.081   4.355  20.537  0.00  0.00    +0.000 C 
BRANCH  17  18
ATOM     18  C   UNL     1       1.399   3.032  21.210  0.00  0.00    +0.000 C 
BRANCH  18  19
ATOM     19  O   UNL     1       2.525   2.457  20.553  0.00  0.00    +0.000 OA
BRANCH  19  20
ATOM     20  C   UNL     1       2.166   1.866  19.306  0.00  0.00    +0.000 C 
BRANCH  20  21
ATOM     21  C   UNL     1       3.436   1.530  18.538  0.00  0.00    +0.000 C 
BRANCH  21  23
ATOM     22  C   UNL     1       2.415   3.167  17.197  0.00  0.00    +0.000 C 
ATOM     23  O   UNL     1       3.628   2.501  17.513  0.00  0.00    +0.000 OA
ENDBRANCH  21  23
ENDBRANCH  20  21
ENDBRANCH  19  20
ENDBRANCH  18  19
ENDBRANCH  17  18
ENDBRANCH  16  17
ENDBRANCH   1  16
BRANCH   3  24
ATOM     24  C   UNL     1       1.335   9.316  17.872  0.00  0.00    +0.000 C 
BRANCH  24  25
ATOM     25  C   UNL     1       0.873  10.314  18.908  0.00  0.00    +0.000 A 
ATOM     26  C   UNL     1       1.696  11.393  19.276  0.00  0.00    +0.000 A 
ATOM     27  C   UNL     1       1.331  12.239  20.322  0.00  0.00    +0.000 A 
ATOM     28  C   UNL     1       0.130  12.026  20.985  0.00  0.00    +0.000 A 
ATOM     29  F   UNL     1      -0.203  12.813  22.016  0.00  0.00    +0.000 F 
ATOM     30  C   UNL     1      -0.726  11.002  20.599  0.00  0.00    +0.000 A 
ATOM     31  C   UNL     1      -0.360  10.148  19.558  0.00  0.00    +0.000 A 
ENDBRANCH  24  25
ENDBRANCH   3  24
TORSDOF 11
ENDMDL
MODEL 3
REMARK VINA RESULT:      -6.7      3.909      7.024
REMARK  Name = 
REMARK  13 active torsions:
REMARK  status: ('A' for Active; 'I' for Inactive)
REMARK    1  A    between atoms: C_1  and  O_2
REMARK    2  A    between atoms: O_2  and  C_3
REMARK    3  A    between atoms: C_3  and  C_4
REMARK    4  A    between atoms: C_4  and  O_5
REMARK    5  A    between atoms: O_5  and  C_6
REMARK    6  A    between atoms: C_6  and  C_7
REMARK    7  A    between atoms: C_7  and  C_8
REMARK    8  A    between atoms: C_8  and  C_9
REMARK    9  A    between atoms: N_11  and  C_12
REMARK   10  A    between atoms: C_12  and  C_13
REMARK   11  A    between atoms: C_23  and  C_24
REMARK   12  A    between atoms: N_26  and  C_27
REMARK   13  A    between atoms: N_26  and  O_28
REMARK                            x       y       z     vdW  Elec       q    Type
REMARK                         _______ _______ _______ _____ _____    ______ ____
ROOT
ATOM      1  C   UNL     1       2.136   6.590  19.887  0.00  0.00    +0.000 A 
ATOM      2  C   UNL     1       1.460   7.767  19.646  0.00  0.00    +0.000 A 
ATOM      3  N   UNL     1       2.031   8.381  18.559  0.00  0.00    +0.000 N 
ATOM      4  C   UNL     1       3.117   7.649  18.124  0.00  0.00    +0.000 A 
ATOM      5  C   UNL     1       4.004   7.840  17.073  0.00  0.00    +0.000 A 
ATOM      6  N   UNL     1       4.999   6.945  16.868  0.00  0.00    +0.000 NA
ATOM      7  C   UNL     1       5.109   5.862  17.673  0.00  0.00    +0.000 A 
ATOM      8  C   UNL     1       4.244   5.609  18.731  0.00  0.00    +0.000 A 
ATOM      9  C   UNL     1       3.217   6.535  18.956  0.00  0.00    +0.000 A 
ENDROOT
BRANCH   7  10
ATOM     10  C   UNL     1       6.207   4.873  17.425  0.00  0.00    +0.000 C 
ATOM     11  O   UNL     1       6.017   3.950  16.619  0.00  0.00    +0.000 OA
ATOM     12  N   UNL     1       7.432   4.959  18.061  0.00  0.00    +0.000 N 
ATOM     13  C   UNL     1       8.005   5.842  19.058  0.00  0.00    +0.000 C 
BRANCH  12  14
ATOM     14  O   UNL     1       8.336   3.917  17.725  0.00  0.00    +0.000 OA
ATOM     15  H   UNL     1       9.155   4.211  18.180  0.00  0.00    +0.000 HD
ENDBRANCH  12  14
ENDBRANCH   7  10
BRANCH   1  16
ATOM     16  C   UNL     1       1.776   5.559  20.903  0.00  0.00    +0.000 C 
BRANCH  16  17
ATOM     17  C   UNL     1       1.050   4.372  20.259  0.00  0.00    +0.000 C 
BRANCH  17  18
ATOM     18  C   UNL     1       1.367   3.073  20.980  0.00  0.00    +0.000 C 
BRANCH  18  19
ATOM     19  O   UNL     1       1.457   2.035  20.008  0.00  0.00    +0.000 OA
BRANCH  19  20
ATOM     20  C   UNL     1       2.097   2.481  18.815  0.00  0.00    +0.000 C 
BRANCH  20  21
ATOM     21  C   UNL     1       3.485   1.863  18.741  0.00  0.00    +0.000 C 
BRANCH  21  23
ATOM     22  C   UNL     1       4.874   1.636  20.622  0.00  0.00    +0.000 C 
ATOM     23  O   UNL     1       4.342   2.535  19.660  0.00  0.00    +0.000 OA
ENDBRANCH  21  23
ENDBRANCH  20  21
ENDBRANCH  19  20
ENDBRANCH  18  19
ENDBRANCH  17  18
ENDBRANCH  16  17
ENDBRANCH   1  16
BRANCH   3  24
ATOM     24  C   UNL     1       1.504   9.600  17.948  0.00  0.00    +0.000 C 
BRANCH  24  25
ATOM     25  C   UNL     1       0.512  10.268  18.870  0.00  0.00    +0.000 A 
ATOM     26  C   UNL     1      -0.847  10.354  18.515  0.00  0.00    +0.000 A 
ATOM     27  C   UNL     1      -1.740  11.083  19.298  0.00  0.00    +0.000 A 
ATOM     28  C   UNL     1      -1.285  11.705  20.452  0.00  0.00    +0.000 A 
ATOM     29  F   UNL     1      -2.134  12.440  21.184  0.00  0.00    +0.000 F 
ATOM     30  C   UNL     1       0.040  11.585  20.853  0.00  0.00    +0.000 A 
ATOM     31  C   UNL     1       0.939  10.863  20.067  0.00  0.00    +0.000 A 
ENDBRANCH  24  25
ENDBRANCH   3  24
TORSDOF 11
ENDMDL
MODEL 4
REMARK VINA RESULT:      -6.6      0.956      1.259
REMARK  Name = 
REMARK  13 active torsions:
REMARK  status: ('A' for Active; 'I' for Inactive)
REMARK    1  A    between atoms: C_1  and  O_2
REMARK    2  A    between atoms: O_2  and  C_3
REMARK    3  A    between atoms: C_3  and  C_4
REMARK    4  A    between atoms: C_4  and  O_5
REMARK    5  A    between atoms: O_5  and  C_6
REMARK    6  A    between atoms: C_6  and  C_7
REMARK    7  A    between atoms: C_7  and  C_8
REMARK    8  A    between atoms: C_8  and  C_9
REMARK    9  A    between atoms: N_11  and  C_12
REMARK   10  A    between atoms: C_12  and  C_13
REMARK   11  A    between atoms: C_23  and  C_24
REMARK   12  A    between atoms: N_26  and  C_27
REMARK   13  A    between atoms: N_26  and  O_28
REMARK                            x       y       z     vdW  Elec       q    Type
REMARK                         _______ _______ _______ _____ _____    ______ ____
ROOT
ATOM      1  C   UNL     1       2.299   6.418  19.844  0.00  0.00    +0.000 A 
ATOM      2  C   UNL     1       3.078   6.149  18.739  0.00  0.00    +0.000 A 
ATOM      3  N   UNL     1       3.142   7.282  17.967  0.00  0.00    +0.000 N 
ATOM      4  C   UNL     1       2.359   8.272  18.523  0.00  0.00    +0.000 A 
ATOM      5  C   UNL     1       2.104   9.581  18.134  0.00  0.00    +0.000 A 
ATOM      6  N   UNL     1       1.279  10.351  18.882  0.00  0.00    +0.000 NA
ATOM      7  C   UNL     1       0.727   9.849  20.012  0.00  0.00    +0.000 A 
ATOM      8  C   UNL     1       0.956   8.553  20.459  0.00  0.00    +0.000 A 
ATOM      9  C   UNL     1       1.801   7.747  19.687  0.00  0.00    +0.000 A 
ENDROOT
BRANCH   7  10
ATOM     10  C   UNL     1      -0.173  10.718  20.837  0.00  0.00    +0.000 C 
ATOM     11  O   UNL     1      -0.738  11.682  20.300  0.00  0.00    +0.000 OA
ATOM     12  N   UNL     1      -0.401  10.476  22.178  0.00  0.00    +0.000 N 
ATOM     13  C   UNL     1       0.084   9.503  23.138  0.00  0.00    +0.000 C 
BRANCH  12  14
ATOM     14  O   UNL     1      -1.257  11.422  22.803  0.00  0.00    +0.000 OA
ATOM     15  H   UNL     1      -1.421  12.055  22.071  0.00  0.00    +0.000 HD
ENDBRANCH  12  14
ENDBRANCH   7  10
BRANCH   1  16
ATOM     16  C   UNL     1       2.058   5.502  20.998  0.00  0.00    +0.000 C 
BRANCH  16  17
ATOM     17  C   UNL     1       1.100   4.367  20.617  0.00  0.00    +0.000 C 
BRANCH  17  18
ATOM     18  C   UNL     1       1.669   3.012  20.999  0.00  0.00    +0.000 C 
BRANCH  18  19
ATOM     19  O   UNL     1       3.062   3.014  20.704  0.00  0.00    +0.000 OA
BRANCH  19  20
ATOM     20  C   UNL     1       3.347   2.332  19.485  0.00  0.00    +0.000 C 
BRANCH  20  21
ATOM     21  C   UNL     1       2.078   1.648  18.998  0.00  0.00    +0.000 C 
BRANCH  21  23
ATOM     22  C   UNL     1       2.725   2.946  17.149  0.00  0.00    +0.000 C 
ATOM     23  O   UNL     1       1.653   2.268  17.787  0.00  0.00    +0.000 OA
ENDBRANCH  21  23
ENDBRANCH  20  21
ENDBRANCH  19  20
ENDBRANCH  18  19
ENDBRANCH  17  18
ENDBRANCH  16  17
ENDBRANCH   1  16
BRANCH   3  24
ATOM     24  C   UNL     1       3.973   7.399  16.771  0.00  0.00    +0.000 C 
BRANCH  24  25
ATOM     25  C   UNL     1       5.214   6.548  16.900  0.00  0.00    +0.000 A 
ATOM     26  C   UNL     1       5.253   5.255  16.348  0.00  0.00    +0.000 A 
ATOM     27  C   UNL     1       6.345   4.418  16.576  0.00  0.00    +0.000 A 
ATOM     28  C   UNL     1       7.411   4.880  17.336  0.00  0.00    +0.000 A 
ATOM     29  F   UNL     1       8.441   4.063  17.591  0.00  0.00    +0.000 F 
ATOM     30  C   UNL     1       7.419   6.174  17.842  0.00  0.00    +0.000 A 
ATOM     31  C   UNL     1       6.325   7.011  17.622  0.00  0.00    +0.000 A 
ENDBRANCH  24  25
ENDBRANCH   3  24
TORSDOF 11
ENDMDL
MODEL 5
REMARK VINA RESULT:      -6.6      1.009      1.342
REMARK  Name = 
REMARK  13 active torsions:
REMARK  status: ('A' for Active; 'I' for Inactive)
REMARK    1  A    between atoms: C_1  and  O_2
REMARK    2  A    between atoms: O_2  and  C_3
REMARK    3  A    between atoms: C_3  and  C_4
REMARK    4  A    between atoms: C_4  and  O_5
REMARK    5  A    between atoms: O_5  and  C_6
REMARK    6  A    between atoms: C_6  and  C_7
REMARK    7  A    between atoms: C_7  and  C_8
REMARK    8  A    between atoms: C_8  and  C_9
REMARK    9  A    between atoms: N_11  and  C_12
REMARK   10  A    between atoms: C_12  and  C_13
REMARK   11  A    between atoms: C_23  and  C_24
REMARK   12  A    between atoms: N_26  and  C_27
REMARK   13  A    between atoms: N_26  and  O_28
REMARK                            x       y       z     vdW  Elec       q    Type
REMARK                         _______ _______ _______ _____ _____    ______ ____
ROOT
ATOM      1  C   UNL     1       2.202   6.655  19.692  0.00  0.00    +0.000 A 
ATOM      2  C   UNL     1       2.951   6.249  18.608  0.00  0.00    +0.000 A 
ATOM      3  N   UNL     1       3.115   7.322  17.768  0.00  0.00    +0.000 N 
ATOM      4  C   UNL     1       2.426   8.412  18.259  0.00  0.00    +0.000 A 
ATOM      5  C   UNL     1       2.289   9.712  17.790  0.00  0.00    +0.000 A 
ATOM      6  N   UNL     1       1.539  10.597  18.486  0.00  0.00    +0.000 NA
ATOM      7  C   UNL     1       0.947  10.218  19.643  0.00  0.00    +0.000 A 
ATOM      8  C   UNL     1       1.058   8.937  20.170  0.00  0.00    +0.000 A 
ATOM      9  C   UNL     1       1.826   8.011  19.451  0.00  0.00    +0.000 A 
ENDROOT
BRANCH   7  10
ATOM     10  C   UNL     1       0.131  11.214  20.410  0.00  0.00    +0.000 C 
ATOM     11  O   UNL     1      -1.052  10.951  20.671  0.00  0.00    +0.000 OA
ATOM     12  N   UNL     1       0.656  12.417  20.843  0.00  0.00    +0.000 N 
ATOM     13  C   UNL     1       1.940  13.078  20.710  0.00  0.00    +0.000 C 
BRANCH  12  14
ATOM     14  O   UNL     1      -0.274  13.246  21.525  0.00  0.00    +0.000 OA
ATOM     15  H   UNL     1      -0.700  13.722  20.779  0.00  0.00    +0.000 HD
ENDBRANCH  12  14
ENDBRANCH   7  10
BRANCH   1  16
ATOM     16  C   UNL     1       1.883   5.838  20.899  0.00  0.00    +0.000 C 
BRANCH  16  17
ATOM     17  C   UNL     1       2.301   4.375  20.707  0.00  0.00    +0.000 C 
BRANCH  17  18
ATOM     18  C   UNL     1       1.110   3.440  20.822  0.00  0.00    +0.000 C 
BRANCH  18  19
ATOM     19  O   UNL     1       1.226   2.446  19.808  0.00  0.00    +0.000 OA
BRANCH  19  20
ATOM     20  C   UNL     1       1.339   3.025  18.510  0.00  0.00    +0.000 C 
BRANCH  20  21
ATOM     21  C   UNL     1       2.437   2.302  17.744  0.00  0.00    +0.000 C 
BRANCH  21  23
ATOM     22  C   UNL     1       4.392   2.131  19.036  0.00  0.00    +0.000 C 
ATOM     23  O   UNL     1       3.182   1.495  18.652  0.00  0.00    +0.000 OA
ENDBRANCH  21  23
ENDBRANCH  20  21
ENDBRANCH  19  20
ENDBRANCH  18  19
ENDBRANCH  17  18
ENDBRANCH  16  17
ENDBRANCH   1  16
BRANCH   3  24
ATOM     24  C   UNL     1       3.950   7.290  16.569  0.00  0.00    +0.000 C 
BRANCH  24  25
ATOM     25  C   UNL     1       5.190   6.462  16.808  0.00  0.00    +0.000 A 
ATOM     26  C   UNL     1       5.274   5.144  16.324  0.00  0.00    +0.000 A 
ATOM     27  C   UNL     1       6.360   4.335  16.653  0.00  0.00    +0.000 A 
ATOM     28  C   UNL     1       7.378   4.847  17.445  0.00  0.00    +0.000 A 
ATOM     29  F   UNL     1       8.402   4.058  17.796  0.00  0.00    +0.000 F 
ATOM     30  C   UNL     1       7.345   6.165  17.886  0.00  0.00    +0.000 A 
ATOM     31  C   UNL     1       6.255   6.976  17.565  0.00  0.00    +0.000 A 
ENDBRANCH  24  25
ENDBRANCH   3  24
TORSDOF 11
ENDMDL
MODEL 6
REMARK VINA RESULT:      -6.6      4.028      7.556
REMARK  Name = 
REMARK  13 active torsions:
REMARK  status: ('A' for Active; 'I' for Inactive)
REMARK    1  A    between atoms: C_1  and  O_2
REMARK    2  A    between atoms: O_2  and  C_3
REMARK    3  A    between atoms: C_3  and  C_4
REMARK    4  A    between atoms: C_4  and  O_5
REMARK    5  A    between atoms: O_5  and  C_6
REMARK    6  A    between atoms: C_6  and  C_7
REMARK    7  A    between atoms: C_7  and  C_8
REMARK    8  A    between atoms: C_8  and  C_9
REMARK    9  A    between atoms: N_11  and  C_12
REMARK   10  A    between atoms: C_12  and  C_13
REMARK   11  A    between atoms: C_23  and  C_24
REMARK   12  A    between atoms: N_26  and  C_27
REMARK   13  A    between atoms: N_26  and  O_28
REMARK                            x       y       z     vdW  Elec       q    Type
REMARK                         _______ _______ _______ _____ _____    ______ ____
ROOT
ATOM      1  C   UNL     1       3.029   7.459  18.015  0.00  0.00    +0.000 A 
ATOM      2  C   UNL     1       2.230   8.392  18.642  0.00  0.00    +0.000 A 
ATOM      3  N   UNL     1       1.776   7.852  19.820  0.00  0.00    +0.000 N 
ATOM      4  C   UNL     1       2.217   6.550  19.940  0.00  0.00    +0.000 A 
ATOM      5  C   UNL     1       2.040   5.598  20.935  0.00  0.00    +0.000 A 
ATOM      6  N   UNL     1       2.598   4.373  20.794  0.00  0.00    +0.000 NA
ATOM      7  C   UNL     1       3.340   4.091  19.697  0.00  0.00    +0.000 A 
ATOM      8  C   UNL     1       3.564   5.006  18.675  0.00  0.00    +0.000 A 
ATOM      9  C   UNL     1       2.984   6.274  18.809  0.00  0.00    +0.000 A 
ENDROOT
BRANCH   7  10
ATOM     10  C   UNL     1       3.963   2.735  19.561  0.00  0.00    +0.000 C 
ATOM     11  O   UNL     1       4.871   2.408  20.338  0.00  0.00    +0.000 OA
ATOM     12  N   UNL     1       3.551   1.830  18.601  0.00  0.00    +0.000 N 
ATOM     13  C   UNL     1       2.577   1.852  17.526  0.00  0.00    +0.000 C 
BRANCH  12  14
ATOM     14  O   UNL     1       4.277   0.609  18.602  0.00  0.00    +0.000 OA
ATOM     15  H   UNL     1       3.564  -0.046  18.444  0.00  0.00    +0.000 HD
ENDBRANCH  12  14
ENDBRANCH   7  10
BRANCH   1  16
ATOM     16  C   UNL     1       3.816   7.671  16.765  0.00  0.00    +0.000 C 
BRANCH  16  17
ATOM     17  C   UNL     1       5.110   6.850  16.777  0.00  0.00    +0.000 C 
BRANCH  17  18
ATOM     18  C   UNL     1       5.220   5.973  15.542  0.00  0.00    +0.000 C 
BRANCH  18  19
ATOM     19  O   UNL     1       6.378   5.155  15.679  0.00  0.00    +0.000 OA
BRANCH  19  20
ATOM     20  C   UNL     1       7.260   5.649  16.685  0.00  0.00    +0.000 C 
BRANCH  20  21
ATOM     21  C   UNL     1       7.720   4.484  17.549  0.00  0.00    +0.000 C 
BRANCH  21  23
ATOM     22  C   UNL     1       7.450   5.653  19.569  0.00  0.00    +0.000 C 
ATOM     23  O   UNL     1       7.037   4.534  18.798  0.00  0.00    +0.000 OA
ENDBRANCH  21  23
ENDBRANCH  20  21
ENDBRANCH  19  20
ENDBRANCH  18  19
ENDBRANCH  17  18
ENDBRANCH  16  17
ENDBRANCH   1  16
BRANCH   3  24
ATOM     24  C   UNL     1       0.990   8.597  20.802  0.00  0.00    +0.000 C 
BRANCH  24  25
ATOM     25  C   UNL     1       0.442   9.865  20.191  0.00  0.00    +0.000 A 
ATOM     26  C   UNL     1      -0.649   9.816  19.305  0.00  0.00    +0.000 A 
ATOM     27  C   UNL     1      -1.074  10.965  18.640  0.00  0.00    +0.000 A 
ATOM     28  C   UNL     1      -0.428  12.170  18.877  0.00  0.00    +0.000 A 
ATOM     29  F   UNL     1      -0.808  13.266  18.208  0.00  0.00    +0.000 F 
ATOM     30  C   UNL     1       0.615  12.252  19.792  0.00  0.00    +0.000 A 
ATOM     31  C   UNL     1       1.048  11.103  20.454  0.00  0.00    +0.000 A 
ENDBRANCH  24  25
ENDBRANCH   3  24
TORSDOF 11
ENDMDL
MODEL 7
REMARK VINA RESULT:      -6.6      1.092      1.664
REMARK  Name = 
REMARK  13 active torsions:
REMARK  status: ('A' for Active; 'I' for Inactive)
REMARK    1  A    between atoms: C_1  and  O_2
REMARK    2  A    between atoms: O_2  and  C_3
REMARK    3  A    between atoms: C_3  and  C_4
REMARK    4  A    between atoms: C_4  and  O_5
REMARK    5  A    between atoms: O_5  and  C_6
REMARK    6  A    between atoms: C_6  and  C_7
REMARK    7  A    between atoms: C_7  and  C_8
REMARK    8  A    between atoms: C_8  and  C_9
REMARK    9  A    between atoms: N_11  and  C_12
REMARK   10  A    between atoms: C_12  and  C_13
REMARK   11  A    between atoms: C_23  and  C_24
REMARK   12  A    between atoms: N_26  and  C_27
REMARK   13  A    between atoms: N_26  and  O_28
REMARK                            x       y       z     vdW  Elec       q    Type
REMARK                         _______ _______ _______ _____ _____    ______ ____
ROOT
ATOM      1  C   UNL     1       2.032   6.417  19.901  0.00  0.00    +0.000 A 
ATOM      2  C   UNL     1       2.833   6.179  18.804  0.00  0.00    +0.000 A 
ATOM      3  N   UNL     1       2.955   7.348  18.095  0.00  0.00    +0.000 N 
ATOM      4  C   UNL     1       2.188   8.335  18.681  0.00  0.00    +0.000 A 
ATOM      5  C   UNL     1       1.986   9.670  18.356  0.00  0.00    +0.000 A 
ATOM      6  N   UNL     1       1.166  10.426  19.121  0.00  0.00    +0.000 NA
ATOM      7  C   UNL     1       0.566   9.885  20.208  0.00  0.00    +0.000 A 
ATOM      8  C   UNL     1       0.741   8.561  20.593  0.00  0.00    +0.000 A 
ATOM      9  C   UNL     1       1.582   7.768  19.801  0.00  0.00    +0.000 A 
ENDROOT
BRANCH   7  10
ATOM     10  C   UNL     1      -0.329  10.739  21.054  0.00  0.00    +0.000 C 
ATOM     11  O   UNL     1      -0.928  11.689  20.529  0.00  0.00    +0.000 OA
ATOM     12  N   UNL     1      -0.515  10.499  22.403  0.00  0.00    +0.000 N 
ATOM     13  C   UNL     1       0.017   9.541  23.353  0.00  0.00    +0.000 C 
BRANCH  12  14
ATOM     14  O   UNL     1      -1.371  11.431  23.047  0.00  0.00    +0.000 OA
ATOM     15  H   UNL     1      -2.257  11.115  22.764  0.00  0.00    +0.000 HD
ENDBRANCH  12  14
ENDBRANCH   7  10
BRANCH   1  16
ATOM     16  C   UNL     1       1.730   5.451  20.998  0.00  0.00    +0.000 C 
BRANCH  16  17
ATOM     17  C   UNL     1       0.956   4.236  20.472  0.00  0.00    +0.000 C 
BRANCH  17  18
ATOM     18  C   UNL     1       1.579   2.935  20.949  0.00  0.00    +0.000 C 
BRANCH  18  19
ATOM     19  O   UNL     1       1.327   1.935  19.966  0.00  0.00    +0.000 OA
BRANCH  19  20
ATOM     20  C   UNL     1       1.795   2.328  18.678  0.00  0.00    +0.000 C 
BRANCH  20  21
ATOM     21  C   UNL     1       3.199   1.779  18.477  0.00  0.00    +0.000 C 
BRANCH  21  23
ATOM     22  C   UNL     1       4.767   3.287  19.367  0.00  0.00    +0.000 C 
ATOM     23  O   UNL     1       4.085   2.860  18.197  0.00  0.00    +0.000 OA
ENDBRANCH  21  23
ENDBRANCH  20  21
ENDBRANCH  19  20
ENDBRANCH  18  19
ENDBRANCH  17  18
ENDBRANCH  16  17
ENDBRANCH   1  16
BRANCH   3  24
ATOM     24  C   UNL     1       3.822   7.500  16.929  0.00  0.00    +0.000 C 
BRANCH  24  25
ATOM     25  C   UNL     1       4.975   6.527  16.995  0.00  0.00    +0.000 A 
ATOM     26  C   UNL     1       6.032   6.733  17.900  0.00  0.00    +0.000 A 
ATOM     27  C   UNL     1       7.158   5.912  17.875  0.00  0.00    +0.000 A 
ATOM     28  C   UNL     1       7.221   4.868  16.962  0.00  0.00    +0.000 A 
ATOM     29  F   UNL     1       8.320   4.104  16.909  0.00  0.00    +0.000 F 
ATOM     30  C   UNL     1       6.163   4.610  16.098  0.00  0.00    +0.000 A 
ATOM     31  C   UNL     1       5.038   5.435  16.116  0.00  0.00    +0.000 A 
ENDBRANCH  24  25
ENDBRANCH   3  24
TORSDOF 11
ENDMDL
MODEL 8
REMARK VINA RESULT:      -6.6      3.796      6.567
REMARK  Name = 
REMARK  13 active torsions:
REMARK  status: ('A' for Active; 'I' for Inactive)
REMARK    1  A    between atoms: C_1  and  O_2
REMARK    2  A    between atoms: O_2  and  C_3
REMARK    3  A    between atoms: C_3  and  C_4
REMARK    4  A    between atoms: C_4  and  O_5
REMARK    5  A    between atoms: O_5  and  C_6
REMARK    6  A    between atoms: C_6  and  C_7
REMARK    7  A    between atoms: C_7  and  C_8
REMARK    8  A    between atoms: C_8  and  C_9
REMARK    9  A    between atoms: N_11  and  C_12
REMARK   10  A    between atoms: C_12  and  C_13
REMARK   11  A    between atoms: C_23  and  C_24
REMARK   12  A    between atoms: N_26  and  C_27
REMARK   13  A    between atoms: N_26  and  O_28
REMARK                            x       y       z     vdW  Elec       q    Type
REMARK                         _______ _______ _______ _____ _____    ______ ____
ROOT
ATOM      1  C   UNL     1       5.635   6.127  17.081  0.00  0.00    +0.000 A 
ATOM      2  C   UNL     1       5.593   4.750  17.139  0.00  0.00    +0.000 A 
ATOM      3  N   UNL     1       4.322   4.369  17.491  0.00  0.00    +0.000 N 
ATOM      4  C   UNL     1       3.546   5.486  17.727  0.00  0.00    +0.000 A 
ATOM      5  C   UNL     1       2.214   5.631  18.093  0.00  0.00    +0.000 A 
ATOM      6  N   UNL     1       1.699   6.870  18.258  0.00  0.00    +0.000 NA
ATOM      7  C   UNL     1       2.475   7.959  18.046  0.00  0.00    +0.000 A 
ATOM      8  C   UNL     1       3.810   7.878  17.665  0.00  0.00    +0.000 A 
ATOM      9  C   UNL     1       4.354   6.598  17.500  0.00  0.00    +0.000 A 
ENDROOT
BRANCH   7  10
ATOM     10  C   UNL     1       1.886   9.326  18.220  0.00  0.00    +0.000 C 
ATOM     11  O   UNL     1       1.984  10.147  17.297  0.00  0.00    +0.000 OA
ATOM     12  N   UNL     1       1.228   9.701  19.376  0.00  0.00    +0.000 N 
ATOM     13  C   UNL     1       0.946   9.059  20.646  0.00  0.00    +0.000 C 
BRANCH  12  14
ATOM     14  O   UNL     1       0.765  11.044  19.373  0.00  0.00    +0.000 OA
ATOM     15  H   UNL     1       0.189  11.053  18.578  0.00  0.00    +0.000 HD
ENDBRANCH  12  14
ENDBRANCH   7  10
BRANCH   1  16
ATOM     16  C   UNL     1       6.791   6.955  16.629  0.00  0.00    +0.000 C 
BRANCH  16  17
ATOM     17  C   UNL     1       7.782   7.198  17.773  0.00  0.00    +0.000 C 
BRANCH  17  18
ATOM     18  C   UNL     1       8.093   8.676  17.930  0.00  0.00    +0.000 C 
BRANCH  18  19
ATOM     19  O   UNL     1       8.827   8.851  19.138  0.00  0.00    +0.000 OA
BRANCH  19  20
ATOM     20  C   UNL     1       9.284  10.192  19.292  0.00  0.00    +0.000 C 
BRANCH  20  21
ATOM     21  C   UNL     1       9.063  10.938  17.984  0.00  0.00    +0.000 C 
BRANCH  21  23
ATOM     22  C   UNL     1       9.857  13.094  17.491  0.00  0.00    +0.000 C 
ATOM     23  O   UNL     1      10.211  11.736  17.706  0.00  0.00    +0.000 OA
ENDBRANCH  21  23
ENDBRANCH  20  21
ENDBRANCH  19  20
ENDBRANCH  18  19
ENDBRANCH  17  18
ENDBRANCH  16  17
ENDBRANCH   1  16
BRANCH   3  24
ATOM     24  C   UNL     1       3.879   2.977  17.542  0.00  0.00    +0.000 C 
BRANCH  24  25
ATOM     25  C   UNL     1       3.083   2.720  18.800  0.00  0.00    +0.000 A 
ATOM     26  C   UNL     1       1.704   2.456  18.731  0.00  0.00    +0.000 A 
ATOM     27  C   UNL     1       0.943   2.347  19.894  0.00  0.00    +0.000 A 
ATOM     28  C   UNL     1       1.562   2.475  21.129  0.00  0.00    +0.000 A 
ATOM     29  F   UNL     1       0.826   2.411  22.246  0.00  0.00    +0.000 F 
ATOM     30  C   UNL     1       2.934   2.676  21.222  0.00  0.00    +0.000 A 
ATOM     31  C   UNL     1       3.698   2.794  20.060  0.00  0.00    +0.000 A 
ENDBRANCH  24  25
ENDBRANCH   3  24
TORSDOF 11
ENDMDL
MODEL 9
REMARK VINA RESULT:      -6.6      4.120      6.929
REMARK  Name = 
REMARK  13 active torsions:
REMARK  status: ('A' for Active; 'I' for Inactive)
REMARK    1  A    between atoms: C_1  and  O_2
REMARK    2  A    between atoms: O_2  and  C_3
REMARK    3  A    between atoms: C_3  and  C_4
REMARK    4  A    between atoms: C_4  and  O_5
REMARK    5  A    between atoms: O_5  and  C_6
REMARK    6  A    between atoms: C_6  and  C_7
REMARK    7  A    between atoms: C_7  and  C_8
REMARK    8  A    between atoms: C_8  and  C_9
REMARK    9  A    between atoms: N_11  and  C_12
REMARK   10  A    between atoms: C_12  and  C_13
REMARK   11  A    between atoms: C_23  and  C_24
REMARK   12  A    between atoms: N_26  and  C_27
REMARK   13  A    between atoms: N_26  and  O_28
REMARK                            x       y       z     vdW  Elec       q    Type
REMARK                         _______ _______ _______ _____ _____    ______ ____
ROOT
ATOM      1  C   UNL     1      -0.056   9.713  18.255  0.00  0.00    +0.000 A 
ATOM      2  C   UNL     1       0.990   8.864  17.959  0.00  0.00    +0.000 A 
ATOM      3  N   UNL     1       1.657   8.576  19.123  0.00  0.00    +0.000 N 
ATOM      4  C   UNL     1       1.098   9.279  20.170  0.00  0.00    +0.000 A 
ATOM      5  C   UNL     1       1.401   9.323  21.525  0.00  0.00    +0.000 A 
ATOM      6  N   UNL     1       0.673  10.115  22.346  0.00  0.00    +0.000 NA
ATOM      7  C   UNL     1      -0.356  10.840  21.848  0.00  0.00    +0.000 A 
ATOM      8  C   UNL     1      -0.715  10.827  20.505  0.00  0.00    +0.000 A 
ATOM      9  C   UNL     1       0.038  10.017  19.647  0.00  0.00    +0.000 A 
ENDROOT
BRANCH   7  10
ATOM     10  C   UNL     1      -1.161  11.702  22.772  0.00  0.00    +0.000 C 
ATOM     11  O   UNL     1      -2.042  11.179  23.469  0.00  0.00    +0.000 OA
ATOM     12  N   UNL     1      -0.948  13.064  22.880  0.00  0.00    +0.000 N 
ATOM     13  C   UNL     1      -0.066  14.014  22.232  0.00  0.00    +0.000 C 
BRANCH  12  14
ATOM     14  O   UNL     1      -1.827  13.721  23.782  0.00  0.00    +0.000 OA
ATOM     15  H   UNL     1      -2.446  12.996  24.019  0.00  0.00    +0.000 HD
ENDBRANCH  12  14
ENDBRANCH   7  10
BRANCH   1  16
ATOM     16  C   UNL     1      -1.104  10.186  17.303  0.00  0.00    +0.000 C 
BRANCH  16  17
ATOM     17  C   UNL     1      -2.511   9.853  17.814  0.00  0.00    +0.000 C 
BRANCH  17  18
ATOM     18  C   UNL     1      -3.405  11.081  17.811  0.00  0.00    +0.000 C 
BRANCH  18  19
ATOM     19  O   UNL     1      -4.750  10.651  17.623  0.00  0.00    +0.000 OA
BRANCH  19  20
ATOM     20  C   UNL     1      -5.685  11.601  18.131  0.00  0.00    +0.000 C 
BRANCH  20  21
ATOM     21  C   UNL     1      -5.217  12.066  19.501  0.00  0.00    +0.000 C 
BRANCH  21  23
ATOM     22  C   UNL     1      -7.143  10.852  20.081  0.00  0.00    +0.000 C 
ATOM     23  O   UNL     1      -6.292  11.934  20.428  0.00  0.00    +0.000 OA
ENDBRANCH  21  23
ENDBRANCH  20  21
ENDBRANCH  19  20
ENDBRANCH  18  19
ENDBRANCH  17  18
ENDBRANCH  16  17
ENDBRANCH   1  16
BRANCH   3  24
ATOM     24  C   UNL     1       2.757   7.618  19.208  0.00  0.00    +0.000 C 
BRANCH  24  25
ATOM     25  C   UNL     1       2.227   6.205  19.256  0.00  0.00    +0.000 A 
ATOM     26  C   UNL     1       2.160   5.428  18.086  0.00  0.00    +0.000 A 
ATOM     27  C   UNL     1       1.552   4.173  18.101  0.00  0.00    +0.000 A 
ATOM     28  C   UNL     1       1.035   3.680  19.291  0.00  0.00    +0.000 A 
ATOM     29  F   UNL     1       0.414   2.493  19.298  0.00  0.00    +0.000 F 
ATOM     30  C   UNL     1       1.143   4.405  20.471  0.00  0.00    +0.000 A 
ATOM     31  C   UNL     1       1.743   5.665  20.458  0.00  0.00    +0.000 A 
ENDBRANCH  24  25
ENDBRANCH   3  24
TORSDOF 11
ENDMDL
