MODEL 1
REMARK VINA RESULT:      -7.7      0.000      0.000
REMARK  Name = 
REMARK  5 active torsions:
REMARK  status: ('A' for Active; 'I' for Inactive)
REMARK    1  A    between atoms: C_2  and  C_3
REMARK    2  A    between atoms: C_3  and  S_4
REMARK    3  A    between atoms: S_4  and  C_5
REMARK    4  A    between atoms: C_5  and  N_7
REMARK    5  A    between atoms: C_21  and  C_22
REMARK                            x       y       z     vdW  Elec       q    Type
REMARK                         _______ _______ _______ _____ _____    ______ ____
ROOT
ATOM      1  O   UNL     1       3.520   7.418  16.967  0.00  0.00    +0.000 OA
ATOM      2  C   UNL     1       2.870   7.524  18.011  0.00  0.00    +0.000 C 
ATOM      3  N   UNL     1       2.184   8.690  18.211  0.00  0.00    +0.000 N 
ATOM      4  C   UNL     1       1.527   9.118  19.349  0.00  0.00    +0.000 A 
ATOM      5  N   UNL     1       1.736   8.502  20.517  0.00  0.00    +0.000 NA
ATOM      6  C   UNL     1       1.079   8.981  21.593  0.00  0.00    +0.000 A 
ATOM      7  C   UNL     1       0.206  10.038  21.524  0.00  0.00    +0.000 A 
ATOM      8  C   UNL     1       0.030  10.604  20.280  0.00  0.00    +0.000 A 
ATOM      9  N   UNL     1       0.716  10.176  19.191  0.00  0.00    +0.000 NA
ATOM     10  C   UNL     1      -0.930  11.746  20.073  0.00  0.00    +0.000 C 
ATOM     11  C   UNL     1      -1.979  11.834  21.193  0.00  0.00    +0.000 C 
ATOM     12  C   UNL     1      -1.317  11.783  22.570  0.00  0.00    +0.000 C 
ATOM     13  C   UNL     1      -0.492  10.529  22.717  0.00  0.00    +0.000 C 
ATOM     14  O   UNL     1      -0.347   9.958  23.792  0.00  0.00    +0.000 OA
ATOM     15  H   UNL     1       2.152   9.328  17.430  0.00  0.00    +0.000 HD
ENDROOT
BRANCH  11  16
ATOM     16  C   UNL     1      -2.804  13.069  21.055  0.00  0.00    +0.000 A 
ATOM     17  C   UNL     1      -4.149  13.290  20.854  0.00  0.00    +0.000 A 
ATOM     18  C   UNL     1      -4.315  14.699  20.831  0.00  0.00    +0.000 A 
ATOM     19  C   UNL     1      -3.067  15.240  21.026  0.00  0.00    +0.000 A 
ATOM     20  O   UNL     1      -2.144  14.256  21.168  0.00  0.00    +0.000 OA
ENDBRANCH  11  16
BRANCH   2  21
ATOM     21  C   UNL     1       2.750   6.413  19.054  0.00  0.00    +0.000 C 
BRANCH  21  22
ATOM     22  S   UNL     1       4.301   5.494  19.264  0.00  0.00    +0.000 S 
BRANCH  22  23
ATOM     23  C   UNL     1       3.923   4.013  18.378  0.00  0.00    +0.000 C 
ATOM     24  S   UNL     1       4.580   3.735  16.853  0.00  0.00    +0.000 S 
BRANCH  23  25
ATOM     25  N   UNL     1       3.152   3.084  19.082  0.00  0.00    +0.000 N 
ATOM     26  C   UNL     1       1.778   2.714  18.725  0.00  0.00    +0.000 C 
ATOM     27  C   UNL     1       0.793   3.194  19.782  0.00  0.00    +0.000 C 
ATOM     28  C   UNL     1       1.186   2.669  21.164  0.00  0.00    +0.000 C 
ATOM     29  C   UNL     1       2.648   2.989  21.485  0.00  0.00    +0.000 C 
ATOM     30  C   UNL     1       3.588   2.525  20.369  0.00  0.00    +0.000 C 
ENDBRANCH  23  25
ENDBRANCH  22  23
ENDBRANCH  21  22
ENDBRANCH   2  21
TORSDOF 5
ENDMDL
MODEL 2
REMARK VINA RESULT:      -7.5      2.612      3.951
REMARK  Name = 
REMARK  5 active torsions:
REMARK  status: ('A' for Active; 'I' for Inactive)
REMARK    1  A    between atoms: C_2  and  C_3
REMARK    2  A    between atoms: C_3  and  S_4
REMARK    3  A    between atoms: S_4  and  C_5
REMARK    4  A    between atoms: C_5  and  N_7
REMARK    5  A    between atoms: C_21  and  C_22
REMARK                            x       y       z     vdW  Elec       q    Type
REMARK                         _______ _______ _______ _____ _____    ______ ____
ROOT
ATOM      1  O   UNL     1       2.017   5.054  20.949  0.00  0.00    +0.000 OA
ATOM      2  C   UNL     1       2.019   6.207  20.506  0.00  0.00    +0.000 C 
ATOM      3  N   UNL     1       1.222   7.125  21.133  0.00  0.00    +0.000 N 
ATOM      4  C   UNL     1       0.922   8.416  20.741  0.00  0.00    +0.000 A 
ATOM      5  N   UNL     1       1.199   8.821  19.498  0.00  0.00    +0.000 NA
ATOM      6  C   UNL     1       0.864  10.086  19.172  0.00  0.00    +0.000 A 
ATOM      7  C   UNL     1       0.286  10.956  20.062  0.00  0.00    +0.000 A 
ATOM      8  C   UNL     1       0.053  10.468  21.331  0.00  0.00    +0.000 A 
ATOM      9  N   UNL     1       0.332   9.185  21.670  0.00  0.00    +0.000 NA
ATOM     10  C   UNL     1      -0.543  11.340  22.403  0.00  0.00    +0.000 C 
ATOM     11  C   UNL     1      -0.374  12.837  22.097  0.00  0.00    +0.000 C 
ATOM     12  C   UNL     1      -0.824  13.160  20.672  0.00  0.00    +0.000 C 
ATOM     13  C   UNL     1      -0.063  12.326  19.672  0.00  0.00    +0.000 C 
ATOM     14  O   UNL     1       0.214  12.734  18.550  0.00  0.00    +0.000 OA
ATOM     15  H   UNL     1       0.790   6.825  21.994  0.00  0.00    +0.000 HD
ENDROOT
BRANCH  11  16
ATOM     16  C   UNL     1      -1.120  13.671  23.083  0.00  0.00    +0.000 A 
ATOM     17  C   UNL     1      -2.406  13.631  23.574  0.00  0.00    +0.000 A 
ATOM     18  C   UNL     1      -2.502  14.693  24.510  0.00  0.00    +0.000 A 
ATOM     19  C   UNL     1      -1.270  15.302  24.532  0.00  0.00    +0.000 A 
ATOM     20  O   UNL     1      -0.423  14.683  23.672  0.00  0.00    +0.000 OA
ENDBRANCH  11  16
BRANCH   2  21
ATOM     21  C   UNL     1       2.895   6.668  19.342  0.00  0.00    +0.000 C 
BRANCH  21  22
ATOM     22  S   UNL     1       2.909   5.475  17.974  0.00  0.00    +0.000 S 
BRANCH  22  23
ATOM     23  C   UNL     1       4.394   4.587  18.336  0.00  0.00    +0.000 C 
ATOM     24  S   UNL     1       4.349   3.189  19.272  0.00  0.00    +0.000 S 
BRANCH  23  25
ATOM     25  N   UNL     1       5.541   5.071  17.701  0.00  0.00    +0.000 N 
ATOM     26  C   UNL     1       6.911   4.738  18.107  0.00  0.00    +0.000 C 
ATOM     27  C   UNL     1       7.625   5.960  18.667  0.00  0.00    +0.000 C 
ATOM     28  C   UNL     1       7.592   7.111  17.661  0.00  0.00    +0.000 C 
ATOM     29  C   UNL     1       6.165   7.391  17.183  0.00  0.00    +0.000 C 
ATOM     30  C   UNL     1       5.479   6.120  16.673  0.00  0.00    +0.000 C 
ENDBRANCH  23  25
ENDBRANCH  22  23
ENDBRANCH  21  22
ENDBRANCH   2  21
TORSDOF 5
ENDMDL
MODEL 3
REMARK VINA RESULT:      -7.5      3.614      9.636
REMARK  Name = 
REMARK  5 active torsions:
REMARK  status: ('A' for Active; 'I' for Inactive)
REMARK    1  A    between atoms: C_2  and  C_3
REMARK    2  A    between atoms: C_3  and  S_4
REMARK    3  A    between atoms: S_4  and  C_5
REMARK    4  A    between atoms: C_5  and  N_7
REMARK    5  A    between atoms: C_21  and  C_22
REMARK                            x       y       z     vdW  Elec       q    Type
REMARK                         _______ _______ _______ _____ _____    ______ ____
ROOT
ATOM      1  O   UNL     1      -0.056  13.085  18.104  0.00  0.00    +0.000 OA
ATOM      2  C   UNL     1       0.329  12.097  18.738  0.00  0.00    +0.000 C 
ATOM      3  N   UNL     1       1.016  11.136  18.050  0.00  0.00    +0.000 N 
ATOM      4  C   UNL     1       1.404   9.881  18.479  0.00  0.00    +0.000 A 
ATOM      5  N   UNL     1       0.884   9.363  19.596  0.00  0.00    +0.000 NA
ATOM      6  C   UNL     1       1.291   8.126  19.950  0.00  0.00    +0.000 A 
ATOM      7  C   UNL     1       2.217   7.412  19.232  0.00  0.00    +0.000 A 
ATOM      8  C   UNL     1       2.721   8.026  18.105  0.00  0.00    +0.000 A 
ATOM      9  N   UNL     1       2.292   9.246  17.697  0.00  0.00    +0.000 NA
ATOM     10  C   UNL     1       3.769   7.355  17.257  0.00  0.00    +0.000 C 
ATOM     11  C   UNL     1       4.521   6.256  18.023  0.00  0.00    +0.000 C 
ATOM     12  C   UNL     1       3.546   5.307  18.721  0.00  0.00    +0.000 C 
ATOM     13  C   UNL     1       2.636   6.070  19.650  0.00  0.00    +0.000 C 
ATOM     14  O   UNL     1       2.202   5.588  20.690  0.00  0.00    +0.000 OA
ATOM     15  H   UNL     1       1.273  11.364  17.101  0.00  0.00    +0.000 HD
ENDROOT
BRANCH  11  16
ATOM     16  C   UNL     1       5.429   5.497  17.114  0.00  0.00    +0.000 A 
ATOM     17  C   UNL     1       6.798   5.430  16.985  0.00  0.00    +0.000 A 
ATOM     18  C   UNL     1       7.049   4.504  15.939  0.00  0.00    +0.000 A 
ATOM     19  C   UNL     1       5.820   4.066  15.507  0.00  0.00    +0.000 A 
ATOM     20  O   UNL     1       4.831   4.660  16.220  0.00  0.00    +0.000 OA
ENDBRANCH  11  16
BRANCH   2  21
ATOM     21  C   UNL     1       0.128  11.921  20.243  0.00  0.00    +0.000 C 
BRANCH  21  22
ATOM     22  S   UNL     1      -1.601  12.164  20.740  0.00  0.00    +0.000 S 
BRANCH  22  23
ATOM     23  C   UNL     1      -1.516  11.696  22.442  0.00  0.00    +0.000 C 
ATOM     24  S   UNL     1      -0.635  10.343  22.916  0.00  0.00    +0.000 S 
BRANCH  23  25
ATOM     25  N   UNL     1      -2.129  12.585  23.330  0.00  0.00    +0.000 N 
ATOM     26  C   UNL     1      -3.476  12.401  23.882  0.00  0.00    +0.000 C 
ATOM     27  C   UNL     1      -4.431  13.462  23.351  0.00  0.00    +0.000 C 
ATOM     28  C   UNL     1      -3.886  14.864  23.629  0.00  0.00    +0.000 C 
ATOM     29  C   UNL     1      -2.449  15.012  23.122  0.00  0.00    +0.000 C 
ATOM     30  C   UNL     1      -1.545  13.894  23.650  0.00  0.00    +0.000 C 
ENDBRANCH  23  25
ENDBRANCH  22  23
ENDBRANCH  21  22
ENDBRANCH   2  21
TORSDOF 5
ENDMDL
MODEL 4
REMARK VINA RESULT:      -7.4      2.589      4.368
REMARK  Name = 
REMARK  5 active torsions:
REMARK  status: ('A' for Active; 'I' for Inactive)
REMARK    1  A    between atoms: C_2  and  C_3
REMARK    2  A    between atoms: C_3  and  S_4
REMARK    3  A    between atoms: S_4  and  C_5
REMARK    4  A    between atoms: C_5  and  N_7
REMARK    5  A    between atoms: C_21  and  C_22
REMARK                            x       y       z     vdW  Elec       q    Type
REMARK                         _______ _______ _______ _____ _____    ______ ____
ROOT
ATOM      1  O   UNL     1       2.484   2.604  20.889  0.00  0.00    +0.000 OA
ATOM      2  C   UNL     1       2.725   3.737  20.462  0.00  0.00    +0.000 C 
ATOM      3  N   UNL     1       1.879   4.744  20.834  0.00  0.00    +0.000 N 
ATOM      4  C   UNL     1       1.830   6.045  20.370  0.00  0.00    +0.000 A 
ATOM      5  N   UNL     1       2.485   6.384  19.255  0.00  0.00    +0.000 NA
ATOM      6  C   UNL     1       2.381   7.664  18.844  0.00  0.00    +0.000 A 
ATOM      7  C   UNL     1       1.664   8.612  19.531  0.00  0.00    +0.000 A 
ATOM      8  C   UNL     1       1.037   8.187  20.683  0.00  0.00    +0.000 A 
ATOM      9  N   UNL     1       1.081   6.894  21.091  0.00  0.00    +0.000 NA
ATOM     10  C   UNL     1       0.252   9.143  21.540  0.00  0.00    +0.000 C 
ATOM     11  C   UNL     1       0.647  10.607  21.290  0.00  0.00    +0.000 C 
ATOM     12  C   UNL     1       0.651  10.927  19.796  0.00  0.00    +0.000 C 
ATOM     13  C   UNL     1       1.577   9.996  19.055  0.00  0.00    +0.000 C 
ATOM     14  O   UNL     1       2.198  10.341  18.056  0.00  0.00    +0.000 OA
ATOM     15  H   UNL     1       1.194   4.513  21.538  0.00  0.00    +0.000 HD
ENDROOT
BRANCH  11  16
ATOM     16  C   UNL     1      -0.261  11.538  22.023  0.00  0.00    +0.000 A 
ATOM     17  C   UNL     1      -1.378  11.348  22.805  0.00  0.00    +0.000 A 
ATOM     18  C   UNL     1      -1.781  12.639  23.234  0.00  0.00    +0.000 A 
ATOM     19  C   UNL     1      -0.881  13.525  22.691  0.00  0.00    +0.000 A 
ATOM     20  O   UNL     1       0.049  12.863  21.959  0.00  0.00    +0.000 OA
ENDBRANCH  11  16
BRANCH   2  21
ATOM     21  C   UNL     1       3.935   4.078  19.592  0.00  0.00    +0.000 C 
BRANCH  21  22
ATOM     22  S   UNL     1       3.673   3.649  17.848  0.00  0.00    +0.000 S 
BRANCH  22  23
ATOM     23  C   UNL     1       5.122   4.352  17.121  0.00  0.00    +0.000 C 
ATOM     24  S   UNL     1       5.732   3.751  15.672  0.00  0.00    +0.000 S 
BRANCH  23  25
ATOM     25  N   UNL     1       5.624   5.480  17.776  0.00  0.00    +0.000 N 
ATOM     26  C   UNL     1       5.609   6.835  17.213  0.00  0.00    +0.000 C 
ATOM     27  C   UNL     1       7.023   7.316  16.916  0.00  0.00    +0.000 C 
ATOM     28  C   UNL     1       7.896   7.227  18.168  0.00  0.00    +0.000 C 
ATOM     29  C   UNL     1       7.834   5.830  18.792  0.00  0.00    +0.000 C 
ATOM     30  C   UNL     1       6.389   5.380  19.026  0.00  0.00    +0.000 C 
ENDBRANCH  23  25
ENDBRANCH  22  23
ENDBRANCH  21  22
ENDBRANCH   2  21
TORSDOF 5
ENDMDL
MODEL 5
REMARK VINA RESULT:      -7.4      2.145      2.735
REMARK  Name = 
REMARK  5 active torsions:
REMARK  status: ('A' for Active; 'I' for Inactive)
REMARK    1  A    between atoms: C_2  and  C_3
REMARK    2  A    between atoms: C_3  and  S_4
REMARK    3  A    between atoms: S_4  and  C_5
REMARK    4  A    between atoms: C_5  and  N_7
REMARK    5  A    between atoms: C_21  and  C_22
REMARK                            x       y       z     vdW  Elec       q    Type
REMARK                         _______ _______ _______ _____ _____    ______ ____
ROOT
ATOM      1  O   UNL     1       2.441   4.715  21.074  0.00  0.00    +0.000 OA
ATOM      2  C   UNL     1       2.405   5.859  20.611  0.00  0.00    +0.000 C 
ATOM      3  N   UNL     1       1.541   6.746  21.189  0.00  0.00    +0.000 N 
ATOM      4  C   UNL     1       1.195   8.014  20.762  0.00  0.00    +0.000 A 
ATOM      5  N   UNL     1       1.501   8.412  19.524  0.00  0.00    +0.000 NA
ATOM      6  C   UNL     1       1.118   9.654  19.162  0.00  0.00    +0.000 A 
ATOM      7  C   UNL     1       0.463  10.509  20.013  0.00  0.00    +0.000 A 
ATOM      8  C   UNL     1       0.205  10.031  21.280  0.00  0.00    +0.000 A 
ATOM      9  N   UNL     1       0.532   8.769  21.653  0.00  0.00    +0.000 NA
ATOM     10  C   UNL     1      -0.475  10.890  22.312  0.00  0.00    +0.000 C 
ATOM     11  C   UNL     1      -0.366  12.388  21.986  0.00  0.00    +0.000 C 
ATOM     12  C   UNL     1      -0.775  12.665  20.539  0.00  0.00    +0.000 C 
ATOM     13  C   UNL     1       0.065  11.854  19.585  0.00  0.00    +0.000 C 
ATOM     14  O   UNL     1       0.366  12.256  18.466  0.00  0.00    +0.000 OA
ATOM     15  H   UNL     1       1.090   6.440  22.038  0.00  0.00    +0.000 HD
ENDROOT
BRANCH  11  16
ATOM     16  C   UNL     1      -1.191  13.201  22.927  0.00  0.00    +0.000 A 
ATOM     17  C   UNL     1      -2.493  13.109  23.364  0.00  0.00    +0.000 A 
ATOM     18  C   UNL     1      -2.677  14.178  24.279  0.00  0.00    +0.000 A 
ATOM     19  C   UNL     1      -1.476  14.843  24.343  0.00  0.00    +0.000 A 
ATOM     20  O   UNL     1      -0.565  14.252  23.529  0.00  0.00    +0.000 OA
ENDBRANCH  11  16
BRANCH   2  21
ATOM     21  C   UNL     1       3.303   6.343  19.472  0.00  0.00    +0.000 C 
BRANCH  21  22
ATOM     22  S   UNL     1       4.728   5.251  19.205  0.00  0.00    +0.000 S 
BRANCH  22  23
ATOM     23  C   UNL     1       4.399   4.687  17.563  0.00  0.00    +0.000 C 
ATOM     24  S   UNL     1       5.253   5.312  16.255  0.00  0.00    +0.000 S 
BRANCH  23  25
ATOM     25  N   UNL     1       3.483   3.635  17.472  0.00  0.00    +0.000 N 
ATOM     26  C   UNL     1       2.076   3.797  17.091  0.00  0.00    +0.000 C 
ATOM     27  C   UNL     1       1.155   3.493  18.265  0.00  0.00    +0.000 C 
ATOM     28  C   UNL     1       1.438   2.098  18.824  0.00  0.00    +0.000 C 
ATOM     29  C   UNL     1       2.926   1.915  19.137  0.00  0.00    +0.000 C 
ATOM     30  C   UNL     1       3.805   2.278  17.937  0.00  0.00    +0.000 C 
ENDBRANCH  23  25
ENDBRANCH  22  23
ENDBRANCH  21  22
ENDBRANCH   2  21
TORSDOF 5
ENDMDL
MODEL 6
REMARK VINA RESULT:      -7.4      2.789      4.252
REMARK  Name = 
REMARK  5 active torsions:
REMARK  status: ('A' for Active; 'I' for Inactive)
REMARK    1  A    between atoms: C_2  and  C_3
REMARK    2  A    between atoms: C_3  and  S_4
REMARK    3  A    between atoms: S_4  and  C_5
REMARK    4  A    between atoms: C_5  and  N_7
REMARK    5  A    between atoms: C_21  and  C_22
REMARK                            x       y       z     vdW  Elec       q    Type
REMARK                         _______ _______ _______ _____ _____    ______ ____
ROOT
ATOM      1  O   UNL     1       2.688   3.613  20.783  0.00  0.00    +0.000 OA
ATOM      2  C   UNL     1       2.817   4.758  20.338  0.00  0.00    +0.000 C 
ATOM      3  N   UNL     1       1.942   5.709  20.782  0.00  0.00    +0.000 N 
ATOM      4  C   UNL     1       1.769   7.002  20.325  0.00  0.00    +0.000 A 
ATOM      5  N   UNL     1       2.304   7.378  19.160  0.00  0.00    +0.000 NA
ATOM      6  C   UNL     1       2.083   8.648  18.761  0.00  0.00    +0.000 A 
ATOM      7  C   UNL     1       1.366   9.549  19.507  0.00  0.00    +0.000 A 
ATOM      8  C   UNL     1       0.866   9.088  20.707  0.00  0.00    +0.000 A 
ATOM      9  N   UNL     1       1.030   7.803  21.108  0.00  0.00    +0.000 NA
ATOM     10  C   UNL     1       0.095   9.995  21.628  0.00  0.00    +0.000 C 
ATOM     11  C   UNL     1       0.372  11.481  21.348  0.00  0.00    +0.000 C 
ATOM     12  C   UNL     1       0.229  11.794  19.859  0.00  0.00    +0.000 C 
ATOM     13  C   UNL     1       1.148  10.922  19.041  0.00  0.00    +0.000 C 
ATOM     14  O   UNL     1       1.659  11.303  17.994  0.00  0.00    +0.000 OA
ATOM     15  H   UNL     1       1.335   5.436  21.541  0.00  0.00    +0.000 HD
ENDROOT
BRANCH  11  16
ATOM     16  C   UNL     1      -0.531  12.353  22.155  0.00  0.00    +0.000 A 
ATOM     17  C   UNL     1      -1.632  12.103  22.943  0.00  0.00    +0.000 A 
ATOM     18  C   UNL     1      -2.038  13.359  23.462  0.00  0.00    +0.000 A 
ATOM     19  C   UNL     1      -1.155  14.287  22.964  0.00  0.00    +0.000 A 
ATOM     20  O   UNL     1      -0.232  13.683  22.174  0.00  0.00    +0.000 OA
ENDBRANCH  11  16
BRANCH   2  21
ATOM     21  C   UNL     1       3.925   5.173  19.370  0.00  0.00    +0.000 C 
BRANCH  21  22
ATOM     22  S   UNL     1       4.941   3.766  18.840  0.00  0.00    +0.000 S 
BRANCH  22  23
ATOM     23  C   UNL     1       5.525   4.359  17.280  0.00  0.00    +0.000 C 
ATOM     24  S   UNL     1       4.590   4.181  15.892  0.00  0.00    +0.000 S 
BRANCH  23  25
ATOM     25  N   UNL     1       6.732   5.061  17.330  0.00  0.00    +0.000 N 
ATOM     26  C   UNL     1       7.799   4.800  18.303  0.00  0.00    +0.000 C 
ATOM     27  C   UNL     1       7.955   5.968  19.266  0.00  0.00    +0.000 C 
ATOM     28  C   UNL     1       8.187   7.271  18.500  0.00  0.00    +0.000 C 
ATOM     29  C   UNL     1       7.113   7.487  17.430  0.00  0.00    +0.000 C 
ATOM     30  C   UNL     1       6.968   6.264  16.519  0.00  0.00    +0.000 C 
ENDBRANCH  23  25
ENDBRANCH  22  23
ENDBRANCH  21  22
ENDBRANCH   2  21
TORSDOF 5
ENDMDL
MODEL 7
REMARK VINA RESULT:      -7.3      2.497      3.856
REMARK  Name = 
REMARK  5 active torsions:
REMARK  status: ('A' for Active; 'I' for Inactive)
REMARK    1  A    between atoms: C_2  and  C_3
REMARK    2  A    between atoms: C_3  and  S_4
REMARK    3  A    between atoms: S_4  and  C_5
REMARK    4  A    between atoms: C_5  and  N_7
REMARK    5  A    between atoms: C_21  and  C_22
REMARK                            x       y       z     vdW  Elec       q    Type
REMARK                         _______ _______ _______ _____ _____    ______ ____
ROOT
ATOM      1  O   UNL     1       2.395   4.347  21.118  0.00  0.00    +0.000 OA
ATOM      2  C   UNL     1       2.417   5.493  20.658  0.00  0.00    +0.000 C 
ATOM      3  N   UNL     1       1.543   6.402  21.187  0.00  0.00    +0.000 N 
ATOM      4  C   UNL     1       1.256   7.679  20.745  0.00  0.00    +0.000 A 
ATOM      5  N   UNL     1       1.645   8.071  19.528  0.00  0.00    +0.000 NA
ATOM      6  C   UNL     1       1.317   9.323  19.149  0.00  0.00    +0.000 A 
ATOM      7  C   UNL     1       0.636  10.194  19.963  0.00  0.00    +0.000 A 
ATOM      8  C   UNL     1       0.290   9.720  21.211  0.00  0.00    +0.000 A 
ATOM      9  N   UNL     1       0.562   8.449  21.598  0.00  0.00    +0.000 NA
ATOM     10  C   UNL     1      -0.426  10.595  22.204  0.00  0.00    +0.000 C 
ATOM     11  C   UNL     1      -0.259  12.090  21.890  0.00  0.00    +0.000 C 
ATOM     12  C   UNL     1      -0.574  12.381  20.423  0.00  0.00    +0.000 C 
ATOM     13  C   UNL     1       0.299  11.549  19.517  0.00  0.00    +0.000 C 
ATOM     14  O   UNL     1       0.676  11.946  18.420  0.00  0.00    +0.000 OA
ATOM     15  H   UNL     1       1.035   6.106  22.007  0.00  0.00    +0.000 HD
ENDROOT
BRANCH  11  16
ATOM     16  C   UNL     1      -1.116  12.923  22.784  0.00  0.00    +0.000 A 
ATOM     17  C   UNL     1      -2.457  12.900  23.098  0.00  0.00    +0.000 A 
ATOM     18  C   UNL     1      -2.659  13.948  24.033  0.00  0.00    +0.000 A 
ATOM     19  C   UNL     1      -1.430  14.531  24.231  0.00  0.00    +0.000 A 
ATOM     20  O   UNL     1      -0.486  13.910  23.481  0.00  0.00    +0.000 OA
ENDBRANCH  11  16
BRANCH   2  21
ATOM     21  C   UNL     1       3.393   5.955  19.576  0.00  0.00    +0.000 C 
BRANCH  21  22
ATOM     22  S   UNL     1       2.991   5.269  17.945  0.00  0.00    +0.000 S 
BRANCH  22  23
ATOM     23  C   UNL     1       4.062   3.864  17.912  0.00  0.00    +0.000 C 
ATOM     24  S   UNL     1       3.480   2.335  18.307  0.00  0.00    +0.000 S 
BRANCH  23  25
ATOM     25  N   UNL     1       5.352   4.115  17.437  0.00  0.00    +0.000 N 
ATOM     26  C   UNL     1       6.444   4.649  18.258  0.00  0.00    +0.000 C 
ATOM     27  C   UNL     1       6.825   6.054  17.811  0.00  0.00    +0.000 C 
ATOM     28  C   UNL     1       7.170   6.070  16.322  0.00  0.00    +0.000 C 
ATOM     29  C   UNL     1       6.057   5.433  15.486  0.00  0.00    +0.000 C 
ATOM     30  C   UNL     1       5.683   4.042  16.007  0.00  0.00    +0.000 C 
ENDBRANCH  23  25
ENDBRANCH  22  23
ENDBRANCH  21  22
ENDBRANCH   2  21
TORSDOF 5
ENDMDL
MODEL 8
REMARK VINA RESULT:      -7.2      1.728      3.011
REMARK  Name = 
REMARK  5 active torsions:
REMARK  status: ('A' for Active; 'I' for Inactive)
REMARK    1  A    between atoms: C_2  and  C_3
REMARK    2  A    between atoms: C_3  and  S_4
REMARK    3  A    between atoms: S_4  and  C_5
REMARK    4  A    between atoms: C_5  and  N_7
REMARK    5  A    between atoms: C_21  and  C_22
REMARK                            x       y       z     vdW  Elec       q    Type
REMARK                         _______ _______ _______ _____ _____    ______ ____
ROOT
ATOM      1  O   UNL     1       3.551   7.129  17.041  0.00  0.00    +0.000 OA
ATOM      2  C   UNL     1       2.866   7.260  18.060  0.00  0.00    +0.000 C 
ATOM      3  N   UNL     1       2.293   8.481  18.283  0.00  0.00    +0.000 N 
ATOM      4  C   UNL     1       1.631   8.929  19.410  0.00  0.00    +0.000 A 
ATOM      5  N   UNL     1       1.721   8.248  20.556  0.00  0.00    +0.000 NA
ATOM      6  C   UNL     1       1.066   8.749  21.624  0.00  0.00    +0.000 A 
ATOM      7  C   UNL     1       0.309   9.892  21.565  0.00  0.00    +0.000 A 
ATOM      8  C   UNL     1       0.249  10.523  20.340  0.00  0.00    +0.000 A 
ATOM      9  N   UNL     1       0.939  10.071  19.264  0.00  0.00    +0.000 NA
ATOM     10  C   UNL     1      -0.579  11.765  20.144  0.00  0.00    +0.000 C 
ATOM     11  C   UNL     1      -1.665  11.916  21.221  0.00  0.00    +0.000 C 
ATOM     12  C   UNL     1      -1.077  11.742  22.621  0.00  0.00    +0.000 C 
ATOM     13  C   UNL     1      -0.391  10.405  22.747  0.00  0.00    +0.000 C 
ATOM     14  O   UNL     1      -0.355   9.780  23.801  0.00  0.00    +0.000 OA
ATOM     15  H   UNL     1       2.363   9.149  17.530  0.00  0.00    +0.000 HD
ENDROOT
BRANCH  11  16
ATOM     16  C   UNL     1      -2.354  13.235  21.103  0.00  0.00    +0.000 A 
ATOM     17  C   UNL     1      -1.904  14.535  21.052  0.00  0.00    +0.000 A 
ATOM     18  C   UNL     1      -3.061  15.346  20.915  0.00  0.00    +0.000 A 
ATOM     19  C   UNL     1      -4.133  14.487  20.885  0.00  0.00    +0.000 A 
ATOM     20  O   UNL     1      -3.712  13.202  20.992  0.00  0.00    +0.000 OA
ENDBRANCH  11  16
BRANCH   2  21
ATOM     21  C   UNL     1       2.586   6.126  19.047  0.00  0.00    +0.000 C 
BRANCH  21  22
ATOM     22  S   UNL     1       4.066   5.137  19.400  0.00  0.00    +0.000 S 
BRANCH  22  23
ATOM     23  C   UNL     1       4.084   4.068  17.993  0.00  0.00    +0.000 C 
ATOM     24  S   UNL     1       2.690   3.253  17.518  0.00  0.00    +0.000 S 
BRANCH  23  25
ATOM     25  N   UNL     1       5.284   4.054  17.277  0.00  0.00    +0.000 N 
ATOM     26  C   UNL     1       6.530   4.670  17.745  0.00  0.00    +0.000 C 
ATOM     27  C   UNL     1       6.907   5.863  16.878  0.00  0.00    +0.000 C 
ATOM     28  C   UNL     1       6.989   5.455  15.406  0.00  0.00    +0.000 C 
ATOM     29  C   UNL     1       5.714   4.738  14.956  0.00  0.00    +0.000 C 
ATOM     30  C   UNL     1       5.358   3.577  15.889  0.00  0.00    +0.000 C 
ENDBRANCH  23  25
ENDBRANCH  22  23
ENDBRANCH  21  22
ENDBRANCH   2  21
TORSDOF 5
ENDMDL
MODEL 9
REMARK VINA RESULT:      -7.2      3.683      9.782
REMARK  Name = 
REMARK  5 active torsions:
REMARK  status: ('A' for Active; 'I' for Inactive)
REMARK    1  A    between atoms: C_2  and  C_3
REMARK    2  A    between atoms: C_3  and  S_4
REMARK    3  A    between atoms: S_4  and  C_5
REMARK    4  A    between atoms: C_5  and  N_7
REMARK    5  A    between atoms: C_21  and  C_22
REMARK                            x       y       z     vdW  Elec       q    Type
REMARK                         _______ _______ _______ _____ _____    ______ ____
ROOT
ATOM      1  O   UNL     1      -0.187  13.009  18.329  0.00  0.00    +0.000 OA
ATOM      2  C   UNL     1       0.281  12.029  18.916  0.00  0.00    +0.000 C 
ATOM      3  N   UNL     1       0.932  11.093  18.162  0.00  0.00    +0.000 N 
ATOM      4  C   UNL     1       1.393   9.847  18.544  0.00  0.00    +0.000 A 
ATOM      5  N   UNL     1       0.987   9.306  19.697  0.00  0.00    +0.000 NA
ATOM      6  C   UNL     1       1.458   8.080  20.003  0.00  0.00    +0.000 A 
ATOM      7  C   UNL     1       2.338   7.398  19.200  0.00  0.00    +0.000 A 
ATOM      8  C   UNL     1       2.724   8.034  18.039  0.00  0.00    +0.000 A 
ATOM      9  N   UNL     1       2.226   9.244  17.681  0.00  0.00    +0.000 NA
ATOM     10  C   UNL     1       3.713   7.400  17.096  0.00  0.00    +0.000 C 
ATOM     11  C   UNL     1       4.560   6.318  17.783  0.00  0.00    +0.000 C 
ATOM     12  C   UNL     1       3.678   5.337  18.554  0.00  0.00    +0.000 C 
ATOM     13  C   UNL     1       2.830   6.066  19.566  0.00  0.00    +0.000 C 
ATOM     14  O   UNL     1       2.503   5.564  20.636  0.00  0.00    +0.000 OA
ATOM     15  H   UNL     1       1.098  11.336  17.197  0.00  0.00    +0.000 HD
ENDROOT
BRANCH  11  16
ATOM     16  C   UNL     1       5.406   5.593  16.791  0.00  0.00    +0.000 A 
ATOM     17  C   UNL     1       5.279   5.344  15.443  0.00  0.00    +0.000 A 
ATOM     18  C   UNL     1       6.435   4.612  15.067  0.00  0.00    +0.000 A 
ATOM     19  C   UNL     1       7.190   4.470  16.207  0.00  0.00    +0.000 A 
ATOM     20  O   UNL     1       6.575   5.069  17.258  0.00  0.00    +0.000 OA
ENDBRANCH  11  16
BRANCH   2  21
ATOM     21  C   UNL     1       0.217  11.836  20.432  0.00  0.00    +0.000 C 
BRANCH  21  22
ATOM     22  S   UNL     1      -0.731  13.147  21.254  0.00  0.00    +0.000 S 
BRANCH  22  23
ATOM     23  C   UNL     1      -1.684  12.191  22.395  0.00  0.00    +0.000 C 
ATOM     24  S   UNL     1      -1.081  10.746  23.014  0.00  0.00    +0.000 S 
BRANCH  23  25
ATOM     25  N   UNL     1      -2.883  12.781  22.803  0.00  0.00    +0.000 N 
ATOM     26  C   UNL     1      -4.130  12.733  22.032  0.00  0.00    +0.000 C 
ATOM     27  C   UNL     1      -4.505  14.116  21.518  0.00  0.00    +0.000 C 
ATOM     28  C   UNL     1      -4.585  15.116  22.673  0.00  0.00    +0.000 C 
ATOM     29  C   UNL     1      -3.309  15.093  23.518  0.00  0.00    +0.000 C 
ATOM     30  C   UNL     1      -2.955  13.673  23.969  0.00  0.00    +0.000 C 
ENDBRANCH  23  25
ENDBRANCH  22  23
ENDBRANCH  21  22
ENDBRANCH   2  21
TORSDOF 5
ENDMDL
