MODEL 1
REMARK VINA RESULT:      -7.0      0.000      0.000
REMARK  Name = 
REMARK  9 active torsions:
REMARK  status: ('A' for Active; 'I' for Inactive)
REMARK    1  A    between atoms: C_1  and  O_2
REMARK    2  A    between atoms: O_2  and  C_3
REMARK    3  A    between atoms: C_6  and  C_7
REMARK    4  A    between atoms: C_7  and  O_8
REMARK    5  A    between atoms: C_7  and  C_9
REMARK    6  A    between atoms: C_15  and  O_16
REMARK    7  A    between atoms: O_16  and  C_17
REMARK    8  A    between atoms: C_18  and  O_19
REMARK    9  A    between atoms: O_19  and  C_20
REMARK                            x       y       z     vdW  Elec       q    Type
REMARK                         _______ _______ _______ _____ _____    ______ ____
ROOT
ATOM      1  C   UNL     1       2.910   7.645  18.231  0.00  0.00    +0.000 A 
ATOM      2  N   UNL     1       3.839   8.127  17.349  0.00  0.00    +0.000 NA
ATOM      3  C   UNL     1       4.675   7.245  16.801  0.00  0.00    +0.000 A 
ATOM      4  C   UNL     1       4.530   5.882  16.947  0.00  0.00    +0.000 A 
ATOM      5  C   UNL     1       3.497   5.375  17.692  0.00  0.00    +0.000 A 
ATOM      6  C   UNL     1       3.200   4.029  17.536  0.00  0.00    +0.000 A 
ATOM      7  C   UNL     1       2.768   3.232  18.570  0.00  0.00    +0.000 A 
ATOM      8  C   UNL     1       2.660   3.881  19.807  0.00  0.00    +0.000 A 
ATOM      9  C   UNL     1       2.584   5.331  19.820  0.00  0.00    +0.000 A 
ATOM     10  C   UNL     1       2.880   6.190  18.648  0.00  0.00    +0.000 A 
ENDROOT
BRANCH   7  11
ATOM     11  O   UNL     1       2.552   1.893  18.442  0.00  0.00    +0.000 OA
ATOM     12  C   UNL     1       3.676   1.013  18.547  0.00  0.00    +0.000 C 
ENDBRANCH   7  11
BRANCH   8  13
ATOM     13  O   UNL     1       2.701   3.234  21.025  0.00  0.00    +0.000 OA
ATOM     14  C   UNL     1       1.470   2.779  21.629  0.00  0.00    +0.000 C 
ENDBRANCH   8  13
BRANCH   1  15
ATOM     15  C   UNL     1       1.605   8.516  18.208  0.00  0.00    +0.000 C 
BRANCH  15  19
ATOM     16  C   UNL     1       0.048  10.357  21.966  0.00  0.00    +0.000 A 
ATOM     17  C   UNL     1      -0.345  10.781  20.697  0.00  0.00    +0.000 A 
ATOM     18  C   UNL     1       0.063  10.128  19.512  0.00  0.00    +0.000 A 
ATOM     19  C   UNL     1       0.920   9.013  19.542  0.00  0.00    +0.000 A 
ATOM     20  C   UNL     1       1.223   8.533  20.848  0.00  0.00    +0.000 A 
ATOM     21  C   UNL     1       0.808   9.197  22.047  0.00  0.00    +0.000 A 
BRANCH  16  23
ATOM     22  C   UNL     1      -1.704  11.560  23.132  0.00  0.00    +0.000 C 
ATOM     23  O   UNL     1      -0.339  11.190  22.980  0.00  0.00    +0.000 OA
ENDBRANCH  16  23
ENDBRANCH  15  19
BRANCH  15  24
ATOM     24  O   UNL     1       1.933   9.659  17.388  0.00  0.00    +0.000 OA
ATOM     25  H   UNL     1       1.467   9.565  16.546  0.00  0.00    +0.000 HD
ENDBRANCH  15  24
ENDBRANCH   1  15
TORSDOF 6
ENDMDL
MODEL 2
REMARK VINA RESULT:      -6.7      1.040      1.407
REMARK  Name = 
REMARK  9 active torsions:
REMARK  status: ('A' for Active; 'I' for Inactive)
REMARK    1  A    between atoms: C_1  and  O_2
REMARK    2  A    between atoms: O_2  and  C_3
REMARK    3  A    between atoms: C_6  and  C_7
REMARK    4  A    between atoms: C_7  and  O_8
REMARK    5  A    between atoms: C_7  and  C_9
REMARK    6  A    between atoms: C_15  and  O_16
REMARK    7  A    between atoms: O_16  and  C_17
REMARK    8  A    between atoms: C_18  and  O_19
REMARK    9  A    between atoms: O_19  and  C_20
REMARK                            x       y       z     vdW  Elec       q    Type
REMARK                         _______ _______ _______ _____ _____    ______ ____
ROOT
ATOM      1  C   UNL     1       2.546   7.882  18.526  0.00  0.00    +0.000 A 
ATOM      2  N   UNL     1       3.600   8.144  17.692  0.00  0.00    +0.000 NA
ATOM      3  C   UNL     1       4.251   7.097  17.183  0.00  0.00    +0.000 A 
ATOM      4  C   UNL     1       3.806   5.799  17.318  0.00  0.00    +0.000 A 
ATOM      5  C   UNL     1       2.652   5.534  18.009  0.00  0.00    +0.000 A 
ATOM      6  C   UNL     1       2.077   4.284  17.835  0.00  0.00    +0.000 A 
ATOM      7  C   UNL     1       1.433   3.608  18.844  0.00  0.00    +0.000 A 
ATOM      8  C   UNL     1       1.408   4.274  20.076  0.00  0.00    +0.000 A 
ATOM      9  C   UNL     1       1.649   5.706  20.090  0.00  0.00    +0.000 A 
ATOM     10  C   UNL     1       2.181   6.472  18.937  0.00  0.00    +0.000 A 
ENDROOT
BRANCH   7  11
ATOM     11  O   UNL     1       0.937   2.347  18.701  0.00  0.00    +0.000 OA
ATOM     12  C   UNL     1       1.866   1.262  18.603  0.00  0.00    +0.000 C 
ENDBRANCH   7  11
BRANCH   8  13
ATOM     13  O   UNL     1       1.247   3.643  21.293  0.00  0.00    +0.000 OA
ATOM     14  C   UNL     1       2.344   2.884  21.848  0.00  0.00    +0.000 C 
ENDBRANCH   8  13
BRANCH   1  15
ATOM     15  C   UNL     1       1.465   9.016  18.442  0.00  0.00    +0.000 C 
BRANCH  15  19
ATOM     16  C   UNL     1      -0.243  11.127  21.985  0.00  0.00    +0.000 A 
ATOM     17  C   UNL     1       0.282   9.837  22.054  0.00  0.00    +0.000 A 
ATOM     18  C   UNL     1       0.921   9.212  20.960  0.00  0.00    +0.000 A 
ATOM     19  C   UNL     1       1.044   9.853  19.714  0.00  0.00    +0.000 A 
ATOM     20  C   UNL     1       0.598  11.204  19.696  0.00  0.00    +0.000 A 
ATOM     21  C   UNL     1      -0.049  11.835  20.807  0.00  0.00    +0.000 A 
BRANCH  16  23
ATOM     22  C   UNL     1      -1.445  12.834  23.217  0.00  0.00    +0.000 C 
ATOM     23  O   UNL     1      -0.936  11.511  23.100  0.00  0.00    +0.000 OA
ENDBRANCH  16  23
ENDBRANCH  15  19
BRANCH  15  24
ATOM     24  O   UNL     1       1.945   9.915  17.419  0.00  0.00    +0.000 OA
ATOM     25  H   UNL     1       2.910   9.947  17.479  0.00  0.00    +0.000 HD
ENDBRANCH  15  24
ENDBRANCH   1  15
TORSDOF 6
ENDMDL
MODEL 3
REMARK VINA RESULT:      -6.6      2.781      4.312
REMARK  Name = 
REMARK  9 active torsions:
REMARK  status: ('A' for Active; 'I' for Inactive)
REMARK    1  A    between atoms: C_1  and  O_2
REMARK    2  A    between atoms: O_2  and  C_3
REMARK    3  A    between atoms: C_6  and  C_7
REMARK    4  A    between atoms: C_7  and  O_8
REMARK    5  A    between atoms: C_7  and  C_9
REMARK    6  A    between atoms: C_15  and  O_16
REMARK    7  A    between atoms: O_16  and  C_17
REMARK    8  A    between atoms: C_18  and  O_19
REMARK    9  A    between atoms: O_19  and  C_20
REMARK                            x       y       z     vdW  Elec       q    Type
REMARK                         _______ _______ _______ _____ _____    ______ ____
ROOT
ATOM      1  C   UNL     1       2.112   6.986  19.817  0.00  0.00    +0.000 A 
ATOM      2  N   UNL     1       1.590   6.018  20.632  0.00  0.00    +0.000 NA
ATOM      3  C   UNL     1       2.215   4.840  20.657  0.00  0.00    +0.000 A 
ATOM      4  C   UNL     1       3.433   4.623  20.047  0.00  0.00    +0.000 A 
ATOM      5  C   UNL     1       4.053   5.638  19.367  0.00  0.00    +0.000 A 
ATOM      6  C   UNL     1       5.398   5.476  19.066  0.00  0.00    +0.000 A 
ATOM      7  C   UNL     1       5.969   5.946  17.908  0.00  0.00    +0.000 A 
ATOM      8  C   UNL     1       5.085   6.597  17.038  0.00  0.00    +0.000 A 
ATOM      9  C   UNL     1       3.827   7.087  17.574  0.00  0.00    +0.000 A 
ATOM     10  C   UNL     1       3.290   6.718  18.906  0.00  0.00    +0.000 A 
ENDROOT
BRANCH   7  11
ATOM     11  O   UNL     1       7.269   5.720  17.570  0.00  0.00    +0.000 OA
ATOM     12  C   UNL     1       7.754   4.373  17.607  0.00  0.00    +0.000 C 
ENDBRANCH   7  11
BRANCH   8  13
ATOM     13  O   UNL     1       5.297   6.734  15.681  0.00  0.00    +0.000 OA
ATOM     14  C   UNL     1       5.440   5.553  14.863  0.00  0.00    +0.000 C 
ENDBRANCH   8  13
BRANCH   1  15
ATOM     15  C   UNL     1       1.832   8.418  20.393  0.00  0.00    +0.000 C 
BRANCH  15  19
ATOM     16  C   UNL     1      -1.470  10.836  18.607  0.00  0.00    +0.000 A 
ATOM     17  C   UNL     1      -1.107  10.926  19.951  0.00  0.00    +0.000 A 
ATOM     18  C   UNL     1       0.006  10.244  20.490  0.00  0.00    +0.000 A 
ATOM     19  C   UNL     1       0.810   9.404  19.699  0.00  0.00    +0.000 A 
ATOM     20  C   UNL     1       0.488   9.408  18.313  0.00  0.00    +0.000 A 
ATOM     21  C   UNL     1      -0.641  10.101  17.769  0.00  0.00    +0.000 A 
BRANCH  16  23
ATOM     22  C   UNL     1      -3.267  11.258  17.036  0.00  0.00    +0.000 C 
ATOM     23  O   UNL     1      -2.647  11.460  18.301  0.00  0.00    +0.000 OA
ENDBRANCH  16  23
ENDBRANCH  15  19
BRANCH  15  24
ATOM     24  O   UNL     1       1.426   8.198  21.762  0.00  0.00    +0.000 OA
ATOM     25  H   UNL     1       2.193   8.358  22.329  0.00  0.00    +0.000 HD
ENDBRANCH  15  24
ENDBRANCH   1  15
TORSDOF 6
ENDMDL
MODEL 4
REMARK VINA RESULT:      -6.6      3.413      7.915
REMARK  Name = 
REMARK  9 active torsions:
REMARK  status: ('A' for Active; 'I' for Inactive)
REMARK    1  A    between atoms: C_1  and  O_2
REMARK    2  A    between atoms: O_2  and  C_3
REMARK    3  A    between atoms: C_6  and  C_7
REMARK    4  A    between atoms: C_7  and  O_8
REMARK    5  A    between atoms: C_7  and  C_9
REMARK    6  A    between atoms: C_15  and  O_16
REMARK    7  A    between atoms: O_16  and  C_17
REMARK    8  A    between atoms: C_18  and  O_19
REMARK    9  A    between atoms: O_19  and  C_20
REMARK                            x       y       z     vdW  Elec       q    Type
REMARK                         _______ _______ _______ _____ _____    ______ ____
ROOT
ATOM      1  C   UNL     1       0.397  10.566  19.328  0.00  0.00    +0.000 A 
ATOM      2  N   UNL     1       1.006  11.738  19.691  0.00  0.00    +0.000 NA
ATOM      3  C   UNL     1       0.407  12.874  19.331  0.00  0.00    +0.000 A 
ATOM      4  C   UNL     1      -0.856  12.914  18.779  0.00  0.00    +0.000 A 
ATOM      5  C   UNL     1      -1.552  11.753  18.567  0.00  0.00    +0.000 A 
ATOM      6  C   UNL     1      -2.915  11.861  18.332  0.00  0.00    +0.000 A 
ATOM      7  C   UNL     1      -3.596  11.031  17.473  0.00  0.00    +0.000 A 
ATOM      8  C   UNL     1      -2.805  10.067  16.836  0.00  0.00    +0.000 A 
ATOM      9  C   UNL     1      -1.513   9.744  17.416  0.00  0.00    +0.000 A 
ATOM     10  C   UNL     1      -0.853  10.544  18.475  0.00  0.00    +0.000 A 
ENDROOT
BRANCH   7  11
ATOM     11  O   UNL     1      -4.917  11.183  17.176  0.00  0.00    +0.000 OA
ATOM     12  C   UNL     1      -5.668  12.157  17.910  0.00  0.00    +0.000 C 
ENDBRANCH   7  11
BRANCH   8  13
ATOM     13  O   UNL     1      -3.139   9.458  15.643  0.00  0.00    +0.000 OA
ATOM     14  C   UNL     1      -3.047  10.209  14.413  0.00  0.00    +0.000 C 
ENDBRANCH   8  13
BRANCH   1  15
ATOM     15  C   UNL     1       0.701   9.429  20.365  0.00  0.00    +0.000 C 
BRANCH  15  19
ATOM     16  C   UNL     1       2.717   5.719  18.915  0.00  0.00    +0.000 A 
ATOM     17  C   UNL     1       2.763   6.926  18.218  0.00  0.00    +0.000 A 
ATOM     18  C   UNL     1       2.218   8.125  18.730  0.00  0.00    +0.000 A 
ATOM     19  C   UNL     1       1.569   8.167  19.977  0.00  0.00    +0.000 A 
ATOM     20  C   UNL     1       1.627   6.952  20.716  0.00  0.00    +0.000 A 
ATOM     21  C   UNL     1       2.179   5.738  20.195  0.00  0.00    +0.000 A 
BRANCH  16  23
ATOM     22  C   UNL     1       4.562   4.321  18.196  0.00  0.00    +0.000 C 
ATOM     23  O   UNL     1       3.177   4.644  18.205  0.00  0.00    +0.000 OA
ENDBRANCH  16  23
ENDBRANCH  15  19
BRANCH  15  24
ATOM     24  O   UNL     1       1.314  10.100  21.488  0.00  0.00    +0.000 OA
ATOM     25  H   UNL     1       0.862   9.810  22.291  0.00  0.00    +0.000 HD
ENDBRANCH  15  24
ENDBRANCH   1  15
TORSDOF 6
ENDMDL
MODEL 5
REMARK VINA RESULT:      -6.6      3.178      8.032
REMARK  Name = 
REMARK  9 active torsions:
REMARK  status: ('A' for Active; 'I' for Inactive)
REMARK    1  A    between atoms: C_1  and  O_2
REMARK    2  A    between atoms: O_2  and  C_3
REMARK    3  A    between atoms: C_6  and  C_7
REMARK    4  A    between atoms: C_7  and  O_8
REMARK    5  A    between atoms: C_7  and  C_9
REMARK    6  A    between atoms: C_15  and  O_16
REMARK    7  A    between atoms: O_16  and  C_17
REMARK    8  A    between atoms: C_18  and  O_19
REMARK    9  A    between atoms: O_19  and  C_20
REMARK                            x       y       z     vdW  Elec       q    Type
REMARK                         _______ _______ _______ _____ _____    ______ ____
ROOT
ATOM      1  C   UNL     1       0.421  10.462  20.323  0.00  0.00    +0.000 A 
ATOM      2  N   UNL     1       0.882  11.370  21.239  0.00  0.00    +0.000 NA
ATOM      3  C   UNL     1       0.263  12.551  21.292  0.00  0.00    +0.000 A 
ATOM      4  C   UNL     1      -0.901  12.819  20.605  0.00  0.00    +0.000 A 
ATOM      5  C   UNL     1      -1.472  11.857  19.814  0.00  0.00    +0.000 A 
ATOM      6  C   UNL     1      -2.788  12.053  19.420  0.00  0.00    +0.000 A 
ATOM      7  C   UNL     1      -3.269  11.665  18.193  0.00  0.00    +0.000 A 
ATOM      8  C   UNL     1      -2.323  11.063  17.353  0.00  0.00    +0.000 A 
ATOM      9  C   UNL     1      -1.114  10.526  17.952  0.00  0.00    +0.000 A 
ATOM     10  C   UNL     1      -0.681  10.802  19.343  0.00  0.00    +0.000 A 
ENDROOT
BRANCH   7  11
ATOM     11  O   UNL     1      -4.538  11.927  17.770  0.00  0.00    +0.000 OA
ATOM     12  C   UNL     1      -5.584  11.038  18.179  0.00  0.00    +0.000 C 
ENDBRANCH   7  11
BRANCH   8  13
ATOM     13  O   UNL     1      -2.428  11.017  15.978  0.00  0.00    +0.000 OA
ATOM     14  C   UNL     1      -3.066   9.883  15.352  0.00  0.00    +0.000 C 
ENDBRANCH   8  13
BRANCH   1  15
ATOM     15  C   UNL     1       0.647   8.993  20.824  0.00  0.00    +0.000 C 
BRANCH  15  19
ATOM     16  C   UNL     1       3.061   6.086  18.446  0.00  0.00    +0.000 A 
ATOM     17  C   UNL     1       2.811   7.390  18.019  0.00  0.00    +0.000 A 
ATOM     18  C   UNL     1       2.141   8.342  18.820  0.00  0.00    +0.000 A 
ATOM     19  C   UNL     1       1.659   8.019  20.101  0.00  0.00    +0.000 A 
ATOM     20  C   UNL     1       2.017   6.720  20.559  0.00  0.00    +0.000 A 
ATOM     21  C   UNL     1       2.696   5.757  19.745  0.00  0.00    +0.000 A 
BRANCH  16  23
ATOM     22  C   UNL     1       4.687   5.728  16.684  0.00  0.00    +0.000 C 
ATOM     23  O   UNL     1       3.603   5.276  17.486  0.00  0.00    +0.000 OA
ENDBRANCH  16  23
ENDBRANCH  15  19
BRANCH  15  24
ATOM     24  O   UNL     1       1.023   9.124  22.213  0.00  0.00    +0.000 OA
ATOM     25  H   UNL     1       1.152   8.235  22.571  0.00  0.00    +0.000 HD
ENDBRANCH  15  24
ENDBRANCH   1  15
TORSDOF 6
ENDMDL
MODEL 6
REMARK VINA RESULT:      -6.6      3.139      8.074
REMARK  Name = 
REMARK  9 active torsions:
REMARK  status: ('A' for Active; 'I' for Inactive)
REMARK    1  A    between atoms: C_1  and  O_2
REMARK    2  A    between atoms: O_2  and  C_3
REMARK    3  A    between atoms: C_6  and  C_7
REMARK    4  A    between atoms: C_7  and  O_8
REMARK    5  A    between atoms: C_7  and  C_9
REMARK    6  A    between atoms: C_15  and  O_16
REMARK    7  A    between atoms: O_16  and  C_17
REMARK    8  A    between atoms: C_18  and  O_19
REMARK    9  A    between atoms: O_19  and  C_20
REMARK                            x       y       z     vdW  Elec       q    Type
REMARK                         _______ _______ _______ _____ _____    ______ ____
ROOT
ATOM      1  C   UNL     1       0.623  10.339  20.337  0.00  0.00    +0.000 A 
ATOM      2  N   UNL     1       1.060  11.223  21.287  0.00  0.00    +0.000 NA
ATOM      3  C   UNL     1       0.387  12.367  21.413  0.00  0.00    +0.000 A 
ATOM      4  C   UNL     1      -0.805  12.611  20.764  0.00  0.00    +0.000 A 
ATOM      5  C   UNL     1      -1.346  11.662  19.937  0.00  0.00    +0.000 A 
ATOM      6  C   UNL     1      -2.679  11.811  19.581  0.00  0.00    +0.000 A 
ATOM      7  C   UNL     1      -3.169  11.461  18.346  0.00  0.00    +0.000 A 
ATOM      8  C   UNL     1      -2.214  10.948  17.458  0.00  0.00    +0.000 A 
ATOM      9  C   UNL     1      -0.967  10.444  18.004  0.00  0.00    +0.000 A 
ATOM     10  C   UNL     1      -0.516  10.671  19.398  0.00  0.00    +0.000 A 
ENDROOT
BRANCH   7  11
ATOM     11  O   UNL     1      -4.458  11.680  17.963  0.00  0.00    +0.000 OA
ATOM     12  C   UNL     1      -5.320  12.389  18.860  0.00  0.00    +0.000 C 
ENDBRANCH   7  11
BRANCH   8  13
ATOM     13  O   UNL     1      -2.349  10.965  16.084  0.00  0.00    +0.000 OA
ATOM     14  C   UNL     1      -2.923   9.822  15.414  0.00  0.00    +0.000 C 
ENDBRANCH   8  13
BRANCH   1  15
ATOM     15  C   UNL     1       0.931   8.860  20.759  0.00  0.00    +0.000 C 
BRANCH  15  19
ATOM     16  C   UNL     1       3.610   6.215  18.358  0.00  0.00    +0.000 A 
ATOM     17  C   UNL     1       3.060   5.827  19.579  0.00  0.00    +0.000 A 
ATOM     18  C   UNL     1       2.127   6.620  20.285  0.00  0.00    +0.000 A 
ATOM     19  C   UNL     1       1.711   7.873  19.803  0.00  0.00    +0.000 A 
ATOM     20  C   UNL     1       2.201   8.203  18.507  0.00  0.00    +0.000 A 
ATOM     21  C   UNL     1       3.147   7.397  17.795  0.00  0.00    +0.000 A 
BRANCH  16  23
ATOM     22  C   UNL     1       5.030   4.276  18.672  0.00  0.00    +0.000 C 
ATOM     23  O   UNL     1       4.590   5.382  17.893  0.00  0.00    +0.000 OA
ENDBRANCH  16  23
ENDBRANCH  15  19
BRANCH  15  24
ATOM     24  O   UNL     1       1.641   8.968  22.012  0.00  0.00    +0.000 OA
ATOM     25  H   UNL     1       1.027   8.738  22.723  0.00  0.00    +0.000 HD
ENDBRANCH  15  24
ENDBRANCH   1  15
TORSDOF 6
ENDMDL
MODEL 7
REMARK VINA RESULT:      -6.6      3.657      8.364
REMARK  Name = 
REMARK  9 active torsions:
REMARK  status: ('A' for Active; 'I' for Inactive)
REMARK    1  A    between atoms: C_1  and  O_2
REMARK    2  A    between atoms: O_2  and  C_3
REMARK    3  A    between atoms: C_6  and  C_7
REMARK    4  A    between atoms: C_7  and  O_8
REMARK    5  A    between atoms: C_7  and  C_9
REMARK    6  A    between atoms: C_15  and  O_16
REMARK    7  A    between atoms: O_16  and  C_17
REMARK    8  A    between atoms: C_18  and  O_19
REMARK    9  A    between atoms: O_19  and  C_20
REMARK                            x       y       z     vdW  Elec       q    Type
REMARK                         _______ _______ _______ _____ _____    ______ ____
ROOT
ATOM      1  C   UNL     1      -0.295  11.371  20.275  0.00  0.00    +0.000 A 
ATOM      2  N   UNL     1      -0.194  12.365  21.212  0.00  0.00    +0.000 NA
ATOM      3  C   UNL     1      -1.126  13.318  21.193  0.00  0.00    +0.000 A 
ATOM      4  C   UNL     1      -2.255  13.248  20.405  0.00  0.00    +0.000 A 
ATOM      5  C   UNL     1      -2.457  12.170  19.584  0.00  0.00    +0.000 A 
ATOM      6  C   UNL     1      -3.735  11.984  19.077  0.00  0.00    +0.000 A 
ATOM      7  C   UNL     1      -3.977  11.486  17.819  0.00  0.00    +0.000 A 
ATOM      8  C   UNL     1      -2.830  11.187  17.074  0.00  0.00    +0.000 A 
ATOM      9  C   UNL     1      -1.574  11.014  17.781  0.00  0.00    +0.000 A 
ATOM     10  C   UNL     1      -1.359  11.390  19.199  0.00  0.00    +0.000 A 
ENDROOT
BRANCH   7  11
ATOM     11  O   UNL     1      -5.226  11.377  17.287  0.00  0.00    +0.000 OA
ATOM     12  C   UNL     1      -6.038  12.554  17.217  0.00  0.00    +0.000 C 
ENDBRANCH   7  11
BRANCH   8  13
ATOM     13  O   UNL     1      -2.799  11.125  15.695  0.00  0.00    +0.000 OA
ATOM     14  C   UNL     1      -3.022   9.859  15.036  0.00  0.00    +0.000 C 
ENDBRANCH   8  13
BRANCH   1  15
ATOM     15  C   UNL     1       0.297  10.024  20.818  0.00  0.00    +0.000 C 
BRANCH  15  19
ATOM     16  C   UNL     1       2.890   7.315  18.393  0.00  0.00    +0.000 A 
ATOM     17  C   UNL     1       2.420   6.977  19.662  0.00  0.00    +0.000 A 
ATOM     18  C   UNL     1       1.512   7.785  20.382  0.00  0.00    +0.000 A 
ATOM     19  C   UNL     1       1.042   9.006  19.866  0.00  0.00    +0.000 A 
ATOM     20  C   UNL     1       1.449   9.280  18.530  0.00  0.00    +0.000 A 
ATOM     21  C   UNL     1       2.369   8.459  17.802  0.00  0.00    +0.000 A 
BRANCH  16  23
ATOM     22  C   UNL     1       4.437   5.482  18.748  0.00  0.00    +0.000 C 
ATOM     23  O   UNL     1       3.858   6.478  17.912  0.00  0.00    +0.000 OA
ENDBRANCH  16  23
ENDBRANCH  15  19
BRANCH  15  24
ATOM     24  O   UNL     1       1.186  10.409  21.889  0.00  0.00    +0.000 OA
ATOM     25  H   UNL     1       0.993  11.328  22.120  0.00  0.00    +0.000 HD
ENDBRANCH  15  24
ENDBRANCH   1  15
TORSDOF 6
ENDMDL
MODEL 8
REMARK VINA RESULT:      -6.6      3.570      7.725
REMARK  Name = 
REMARK  9 active torsions:
REMARK  status: ('A' for Active; 'I' for Inactive)
REMARK    1  A    between atoms: C_1  and  O_2
REMARK    2  A    between atoms: O_2  and  C_3
REMARK    3  A    between atoms: C_6  and  C_7
REMARK    4  A    between atoms: C_7  and  O_8
REMARK    5  A    between atoms: C_7  and  C_9
REMARK    6  A    between atoms: C_15  and  O_16
REMARK    7  A    between atoms: O_16  and  C_17
REMARK    8  A    between atoms: C_18  and  O_19
REMARK    9  A    between atoms: O_19  and  C_20
REMARK                            x       y       z     vdW  Elec       q    Type
REMARK                         _______ _______ _______ _____ _____    ______ ____
ROOT
ATOM      1  C   UNL     1       4.519   5.969  16.871  0.00  0.00    +0.000 A 
ATOM      2  N   UNL     1       4.213   7.302  16.943  0.00  0.00    +0.000 NA
ATOM      3  C   UNL     1       3.385   7.687  17.914  0.00  0.00    +0.000 A 
ATOM      4  C   UNL     1       2.976   6.848  18.928  0.00  0.00    +0.000 A 
ATOM      5  C   UNL     1       3.413   5.549  18.966  0.00  0.00    +0.000 A 
ATOM      6  C   UNL     1       3.253   4.857  20.158  0.00  0.00    +0.000 A 
ATOM      7  C   UNL     1       2.964   3.514  20.212  0.00  0.00    +0.000 A 
ATOM      8  C   UNL     1       2.830   2.891  18.965  0.00  0.00    +0.000 A 
ATOM      9  C   UNL     1       3.400   3.547  17.802  0.00  0.00    +0.000 A 
ATOM     10  C   UNL     1       3.879   4.950  17.789  0.00  0.00    +0.000 A 
ENDROOT
BRANCH   7  11
ATOM     11  O   UNL     1       2.726   2.847  21.375  0.00  0.00    +0.000 OA
ATOM     12  C   UNL     1       1.395   2.859  21.903  0.00  0.00    +0.000 C 
ENDBRANCH   7  11
BRANCH   8  13
ATOM     13  O   UNL     1       2.118   1.727  18.755  0.00  0.00    +0.000 OA
ATOM     14  C   UNL     1       0.680   1.785  18.643  0.00  0.00    +0.000 C 
ENDBRANCH   8  13
BRANCH   1  15
ATOM     15  C   UNL     1       5.956   5.752  16.282  0.00  0.00    +0.000 C 
BRANCH  15  19
ATOM     16  C   UNL     1       6.739   3.630  12.432  0.00  0.00    +0.000 A 
ATOM     17  C   UNL     1       5.544   3.498  13.139  0.00  0.00    +0.000 A 
ATOM     18  C   UNL     1       5.254   4.253  14.299  0.00  0.00    +0.000 A 
ATOM     19  C   UNL     1       6.175   5.174  14.828  0.00  0.00    +0.000 A 
ATOM     20  C   UNL     1       7.340   5.371  14.034  0.00  0.00    +0.000 A 
ATOM     21  C   UNL     1       7.631   4.605  12.859  0.00  0.00    +0.000 A 
BRANCH  16  23
ATOM     22  C   UNL     1       6.015   1.612  11.300  0.00  0.00    +0.000 C 
ATOM     23  O   UNL     1       6.893   2.726  11.418  0.00  0.00    +0.000 OA
ENDBRANCH  16  23
ENDBRANCH  15  19
BRANCH  15  24
ATOM     24  O   UNL     1       6.602   7.039  16.384  0.00  0.00    +0.000 OA
ATOM     25  H   UNL     1       5.922   7.699  16.579  0.00  0.00    +0.000 HD
ENDBRANCH  15  24
ENDBRANCH   1  15
TORSDOF 6
ENDMDL
MODEL 9
REMARK VINA RESULT:      -6.4      3.424      5.409
REMARK  Name = 
REMARK  9 active torsions:
REMARK  status: ('A' for Active; 'I' for Inactive)
REMARK    1  A    between atoms: C_1  and  O_2
REMARK    2  A    between atoms: O_2  and  C_3
REMARK    3  A    between atoms: C_6  and  C_7
REMARK    4  A    between atoms: C_7  and  O_8
REMARK    5  A    between atoms: C_7  and  C_9
REMARK    6  A    between atoms: C_15  and  O_16
REMARK    7  A    between atoms: O_16  and  C_17
REMARK    8  A    between atoms: C_18  and  O_19
REMARK    9  A    between atoms: O_19  and  C_20
REMARK                            x       y       z     vdW  Elec       q    Type
REMARK                         _______ _______ _______ _____ _____    ______ ____
ROOT
ATOM      1  C   UNL     1       4.987   4.476  18.316  0.00  0.00    +0.000 A 
ATOM      2  N   UNL     1       5.743   4.767  19.420  0.00  0.00    +0.000 NA
ATOM      3  C   UNL     1       7.016   5.108  19.216  0.00  0.00    +0.000 A 
ATOM      4  C   UNL     1       7.538   5.343  17.961  0.00  0.00    +0.000 A 
ATOM      5  C   UNL     1       6.744   5.222  16.851  0.00  0.00    +0.000 A 
ATOM      6  C   UNL     1       7.208   5.783  15.670  0.00  0.00    +0.000 A 
ATOM      7  C   UNL     1       6.982   5.225  14.435  0.00  0.00    +0.000 A 
ATOM      8  C   UNL     1       6.251   4.030  14.454  0.00  0.00    +0.000 A 
ATOM      9  C   UNL     1       5.463   3.724  15.634  0.00  0.00    +0.000 A 
ATOM     10  C   UNL     1       5.580   4.446  16.924  0.00  0.00    +0.000 A 
ENDROOT
BRANCH   7  11
ATOM     11  O   UNL     1       7.503   5.727  13.281  0.00  0.00    +0.000 OA
ATOM     12  C   UNL     1       8.919   5.644  13.084  0.00  0.00    +0.000 C 
ENDBRANCH   7  11
BRANCH   8  13
ATOM     13  O   UNL     1       6.294   3.081  13.452  0.00  0.00    +0.000 OA
ATOM     14  C   UNL     1       5.522   3.284  12.249  0.00  0.00    +0.000 C 
ENDBRANCH   8  13
BRANCH   1  15
ATOM     15  C   UNL     1       3.479   4.835  18.555  0.00  0.00    +0.000 C 
BRANCH  15  19
ATOM     16  C   UNL     1       1.608   8.862  19.029  0.00  0.00    +0.000 A 
ATOM     17  C   UNL     1       1.674   7.931  20.066  0.00  0.00    +0.000 A 
ATOM     18  C   UNL     1       2.362   6.702  19.948  0.00  0.00    +0.000 A 
ATOM     19  C   UNL     1       3.007   6.330  18.756  0.00  0.00    +0.000 A 
ATOM     20  C   UNL     1       3.019   7.336  17.749  0.00  0.00    +0.000 A 
ATOM     21  C   UNL     1       2.321   8.580  17.871  0.00  0.00    +0.000 A 
BRANCH  16  23
ATOM     22  C   UNL     1       0.717  10.488  20.590  0.00  0.00    +0.000 C 
ATOM     23  O   UNL     1       0.792   9.929  19.284  0.00  0.00    +0.000 OA
ENDBRANCH  16  23
ENDBRANCH  15  19
BRANCH  15  24
ATOM     24  O   UNL     1       2.775   4.261  17.433  0.00  0.00    +0.000 OA
ATOM     25  H   UNL     1       1.831   4.437  17.552  0.00  0.00    +0.000 HD
ENDBRANCH  15  24
ENDBRANCH   1  15
TORSDOF 6
ENDMDL
