MODEL 1
REMARK VINA RESULT:      -7.6      0.000      0.000
REMARK  Name = 
REMARK  7 active torsions:
REMARK  status: ('A' for Active; 'I' for Inactive)
REMARK    1  A    between atoms: C_1  and  N_2
REMARK    2  A    between atoms: N_5  and  C_6
REMARK    3  A    between atoms: C_6  and  C_7
REMARK    4  A    between atoms: C_7  and  O_8
REMARK    5  A    between atoms: O_8  and  C_9
REMARK    6  A    between atoms: C_9  and  C_10
REMARK    7  A    between atoms: C_9  and  C_17
REMARK                            x       y       z     vdW  Elec       q    Type
REMARK                         _______ _______ _______ _____ _____    ______ ____
ROOT
ATOM      1  C   UNL     1       3.247   5.841  18.070  0.00  0.00    +0.000 C 
ENDROOT
BRANCH   1   2
ATOM      2  C   UNL     1       4.677   5.509  17.666  0.00  0.00    +0.000 A 
ATOM      3  C   UNL     1       5.660   5.304  18.648  0.00  0.00    +0.000 A 
ATOM      4  C   UNL     1       6.954   4.908  18.297  0.00  0.00    +0.000 A 
ATOM      5  C   UNL     1       7.282   4.708  16.956  0.00  0.00    +0.000 A 
ATOM      6  C   UNL     1       6.316   4.907  15.974  0.00  0.00    +0.000 A 
ATOM      7 CL   UNL     1       6.709   4.625  14.321  0.00  0.00    +0.000 Cl
ATOM      8  C   UNL     1       5.025   5.307  16.318  0.00  0.00    +0.000 A 
ENDBRANCH   1   2
BRANCH   1   9
ATOM      9  C   UNL     1       2.620   4.818  19.012  0.00  0.00    +0.000 A 
ATOM     10  C   UNL     1       2.419   5.142  20.371  0.00  0.00    +0.000 A 
ATOM     11  C   UNL     1       1.802   4.252  21.250  0.00  0.00    +0.000 A 
ATOM     12  C   UNL     1       1.377   3.010  20.796  0.00  0.00    +0.000 A 
ATOM     13  C   UNL     1       1.587   2.654  19.466  0.00  0.00    +0.000 A 
ATOM     14  C   UNL     1       2.210   3.544  18.580  0.00  0.00    +0.000 A 
ATOM     15 CL   UNL     1       2.428   3.012  16.949  0.00  0.00    +0.000 Cl
ENDBRANCH   1   9
BRANCH   1  16
ATOM     16  O   UNL     1       3.200   7.129  18.716  0.00  0.00    +0.000 OA
BRANCH  16  17
ATOM     17  C   UNL     1       2.608   8.153  17.911  0.00  0.00    +0.000 C 
BRANCH  17  18
ATOM     18  C   UNL     1       1.565   8.898  18.760  0.00  0.00    +0.000 C 
BRANCH  18  23
ATOM     19  C   UNL     1      -0.646  12.220  21.561  0.00  0.00    +0.000 C 
ATOM     20  N   UNL     1      -0.252  11.866  20.203  0.00  0.00    +0.000 NA
ATOM     21  C   UNL     1      -0.904  10.621  19.755  0.00  0.00    +0.000 C 
ATOM     22  C   UNL     1      -0.450  10.194  18.333  0.00  0.00    +0.000 C 
ATOM     23  N   UNL     1       1.017  10.112  18.131  0.00  0.00    +0.000 NA
ATOM     24  C   UNL     1       1.617  11.367  18.642  0.00  0.00    +0.000 C 
ATOM     25  C   UNL     1       1.210  11.735  20.086  0.00  0.00    +0.000 C 
ENDBRANCH  18  23
ENDBRANCH  17  18
ENDBRANCH  16  17
ENDBRANCH   1  16
TORSDOF 6
ENDMDL
MODEL 2
REMARK VINA RESULT:      -7.5      3.149      6.261
REMARK  Name = 
REMARK  7 active torsions:
REMARK  status: ('A' for Active; 'I' for Inactive)
REMARK    1  A    between atoms: C_1  and  N_2
REMARK    2  A    between atoms: N_5  and  C_6
REMARK    3  A    between atoms: C_6  and  C_7
REMARK    4  A    between atoms: C_7  and  O_8
REMARK    5  A    between atoms: O_8  and  C_9
REMARK    6  A    between atoms: C_9  and  C_10
REMARK    7  A    between atoms: C_9  and  C_17
REMARK                            x       y       z     vdW  Elec       q    Type
REMARK                         _______ _______ _______ _____ _____    ______ ____
ROOT
ATOM      1  C   UNL     1       3.303   5.849  18.992  0.00  0.00    +0.000 C 
ENDROOT
BRANCH   1   2
ATOM      2  C   UNL     1       2.581   7.191  19.003  0.00  0.00    +0.000 A 
ATOM      3  C   UNL     1       2.498   7.960  17.831  0.00  0.00    +0.000 A 
ATOM      4  C   UNL     1       1.760   9.147  17.802  0.00  0.00    +0.000 A 
ATOM      5  C   UNL     1       1.092   9.580  18.947  0.00  0.00    +0.000 A 
ATOM      6  C   UNL     1       1.167   8.826  20.115  0.00  0.00    +0.000 A 
ATOM      7 CL   UNL     1       0.312   9.340  21.518  0.00  0.00    +0.000 Cl
ATOM      8  C   UNL     1       1.905   7.643  20.151  0.00  0.00    +0.000 A 
ENDBRANCH   1   2
BRANCH   1   9
ATOM      9  C   UNL     1       2.532   4.731  19.685  0.00  0.00    +0.000 A 
ATOM     10  C   UNL     1       2.867   4.356  21.004  0.00  0.00    +0.000 A 
ATOM     11  C   UNL     1       2.151   3.373  21.688  0.00  0.00    +0.000 A 
ATOM     12  C   UNL     1       1.085   2.733  21.068  0.00  0.00    +0.000 A 
ATOM     13  C   UNL     1       0.749   3.065  19.757  0.00  0.00    +0.000 A 
ATOM     14  C   UNL     1       1.469   4.049  19.066  0.00  0.00    +0.000 A 
ATOM     15 CL   UNL     1       0.978   4.391  17.442  0.00  0.00    +0.000 Cl
ENDBRANCH   1   9
BRANCH   1  16
ATOM     16  O   UNL     1       3.563   5.437  17.634  0.00  0.00    +0.000 OA
BRANCH  16  17
ATOM     17  C   UNL     1       4.370   4.260  17.538  0.00  0.00    +0.000 C 
BRANCH  17  18
ATOM     18  C   UNL     1       5.632   4.463  18.392  0.00  0.00    +0.000 C 
BRANCH  18  23
ATOM     19  C   UNL     1       7.750   8.803  17.724  0.00  0.00    +0.000 C 
ATOM     20  N   UNL     1       7.831   7.373  17.452  0.00  0.00    +0.000 NA
ATOM     21  C   UNL     1       6.678   6.904  16.661  0.00  0.00    +0.000 C 
ATOM     22  C   UNL     1       6.715   5.372  16.412  0.00  0.00    +0.000 C 
ATOM     23  N   UNL     1       6.887   4.534  17.624  0.00  0.00    +0.000 NA
ATOM     24  C   UNL     1       8.025   5.083  18.398  0.00  0.00    +0.000 C 
ATOM     25  C   UNL     1       7.932   6.595  18.698  0.00  0.00    +0.000 C 
ENDBRANCH  18  23
ENDBRANCH  17  18
ENDBRANCH  16  17
ENDBRANCH   1  16
TORSDOF 6
ENDMDL
MODEL 3
REMARK VINA RESULT:      -7.5      1.263      1.587
REMARK  Name = 
REMARK  7 active torsions:
REMARK  status: ('A' for Active; 'I' for Inactive)
REMARK    1  A    between atoms: C_1  and  N_2
REMARK    2  A    between atoms: N_5  and  C_6
REMARK    3  A    between atoms: C_6  and  C_7
REMARK    4  A    between atoms: C_7  and  O_8
REMARK    5  A    between atoms: O_8  and  C_9
REMARK    6  A    between atoms: C_9  and  C_10
REMARK    7  A    between atoms: C_9  and  C_17
REMARK                            x       y       z     vdW  Elec       q    Type
REMARK                         _______ _______ _______ _____ _____    ______ ____
ROOT
ATOM      1  C   UNL     1       2.906   5.824  18.391  0.00  0.00    +0.000 C 
ENDROOT
BRANCH   1   2
ATOM      2  C   UNL     1       4.358   5.777  17.932  0.00  0.00    +0.000 A 
ATOM      3  C   UNL     1       4.678   5.937  16.574  0.00  0.00    +0.000 A 
ATOM      4  C   UNL     1       6.009   5.988  16.151  0.00  0.00    +0.000 A 
ATOM      5  C   UNL     1       7.041   5.883  17.084  0.00  0.00    +0.000 A 
ATOM      6  C   UNL     1       6.736   5.724  18.433  0.00  0.00    +0.000 A 
ATOM      7 CL   UNL     1       8.009   5.631  19.589  0.00  0.00    +0.000 Cl
ATOM      8  C   UNL     1       5.410   5.667  18.860  0.00  0.00    +0.000 A 
ENDBRANCH   1   2
BRANCH   1   9
ATOM      9  C   UNL     1       2.500   4.645  19.268  0.00  0.00    +0.000 A 
ATOM     10  C   UNL     1       2.320   4.828  20.656  0.00  0.00    +0.000 A 
ATOM     11  C   UNL     1       1.899   3.785  21.482  0.00  0.00    +0.000 A 
ATOM     12  C   UNL     1       1.654   2.528  20.943  0.00  0.00    +0.000 A 
ATOM     13  C   UNL     1       1.849   2.313  19.581  0.00  0.00    +0.000 A 
ATOM     14  C   UNL     1       2.276   3.358  18.749  0.00  0.00    +0.000 A 
ATOM     15 CL   UNL     1       2.490   2.992  17.071  0.00  0.00    +0.000 Cl
ENDBRANCH   1   9
BRANCH   1  16
ATOM     16  O   UNL     1       2.659   7.037  19.132  0.00  0.00    +0.000 OA
BRANCH  16  17
ATOM     17  C   UNL     1       2.175   8.113  18.324  0.00  0.00    +0.000 C 
BRANCH  17  18
ATOM     18  C   UNL     1       1.462   9.124  19.236  0.00  0.00    +0.000 C 
BRANCH  18  23
ATOM     19  C   UNL     1      -0.289  12.876  21.812  0.00  0.00    +0.000 C 
ATOM     20  N   UNL     1      -0.122  12.308  20.479  0.00  0.00    +0.000 NA
ATOM     21  C   UNL     1      -0.825  11.019  20.345  0.00  0.00    +0.000 C 
ATOM     22  C   UNL     1      -0.610  10.369  18.952  0.00  0.00    +0.000 C 
ATOM     23  N   UNL     1       0.804  10.234  18.525  0.00  0.00    +0.000 NA
ATOM     24  C   UNL     1       1.467  11.544  18.727  0.00  0.00    +0.000 C 
ATOM     25  C   UNL     1       1.302  12.138  20.143  0.00  0.00    +0.000 C 
ENDBRANCH  18  23
ENDBRANCH  17  18
ENDBRANCH  16  17
ENDBRANCH   1  16
TORSDOF 6
ENDMDL
MODEL 4
REMARK VINA RESULT:      -7.5      0.831      1.175
REMARK  Name = 
REMARK  7 active torsions:
REMARK  status: ('A' for Active; 'I' for Inactive)
REMARK    1  A    between atoms: C_1  and  N_2
REMARK    2  A    between atoms: N_5  and  C_6
REMARK    3  A    between atoms: C_6  and  C_7
REMARK    4  A    between atoms: C_7  and  O_8
REMARK    5  A    between atoms: O_8  and  C_9
REMARK    6  A    between atoms: C_9  and  C_10
REMARK    7  A    between atoms: C_9  and  C_17
REMARK                            x       y       z     vdW  Elec       q    Type
REMARK                         _______ _______ _______ _____ _____    ______ ____
ROOT
ATOM      1  C   UNL     1       3.045   5.805  18.091  0.00  0.00    +0.000 C 
ENDROOT
BRANCH   1   2
ATOM      2  C   UNL     1       4.535   5.635  17.824  0.00  0.00    +0.000 A 
ATOM      3  C   UNL     1       5.442   5.564  18.893  0.00  0.00    +0.000 A 
ATOM      4  C   UNL     1       6.799   5.315  18.668  0.00  0.00    +0.000 A 
ATOM      5  C   UNL     1       7.268   5.131  17.368  0.00  0.00    +0.000 A 
ATOM      6  C   UNL     1       6.378   5.199  16.299  0.00  0.00    +0.000 A 
ATOM      7 CL   UNL     1       6.948   4.935  14.696  0.00  0.00    +0.000 Cl
ATOM      8  C   UNL     1       5.024   5.452  16.518  0.00  0.00    +0.000 A 
ENDBRANCH   1   2
BRANCH   1   9
ATOM      9  C   UNL     1       2.463   4.747  19.022  0.00  0.00    +0.000 A 
ATOM     10  C   UNL     1       2.188   5.067  20.369  0.00  0.00    +0.000 A 
ATOM     11  C   UNL     1       1.607   4.141  21.236  0.00  0.00    +0.000 A 
ATOM     12  C   UNL     1       1.293   2.866  20.781  0.00  0.00    +0.000 A 
ATOM     13  C   UNL     1       1.577   2.515  19.463  0.00  0.00    +0.000 A 
ATOM     14  C   UNL     1       2.164   3.442  18.590  0.00  0.00    +0.000 A 
ATOM     15 CL   UNL     1       2.480   2.913  16.974  0.00  0.00    +0.000 Cl
ENDBRANCH   1   9
BRANCH   1  16
ATOM     16  O   UNL     1       2.790   7.100  18.673  0.00  0.00    +0.000 OA
BRANCH  16  17
ATOM     17  C   UNL     1       2.748   8.161  17.715  0.00  0.00    +0.000 C 
BRANCH  17  18
ATOM     18  C   UNL     1       1.527   9.043  18.018  0.00  0.00    +0.000 C 
BRANCH  18  23
ATOM     19  C   UNL     1      -2.212  11.867  19.368  0.00  0.00    +0.000 C 
ATOM     20  N   UNL     1      -0.832  11.487  19.648  0.00  0.00    +0.000 NA
ATOM     21  C   UNL     1       0.060  11.809  18.519  0.00  0.00    +0.000 C 
ATOM     22  C   UNL     1       1.523  11.357  18.773  0.00  0.00    +0.000 C 
ATOM     23  N   UNL     1       1.690   9.939  19.177  0.00  0.00    +0.000 NA
ATOM     24  C   UNL     1       0.737   9.665  20.277  0.00  0.00    +0.000 C 
ATOM     25  C   UNL     1      -0.727  10.055  19.975  0.00  0.00    +0.000 C 
ENDBRANCH  18  23
ENDBRANCH  17  18
ENDBRANCH  16  17
ENDBRANCH   1  16
TORSDOF 6
ENDMDL
MODEL 5
REMARK VINA RESULT:      -7.4      1.370      1.891
REMARK  Name = 
REMARK  7 active torsions:
REMARK  status: ('A' for Active; 'I' for Inactive)
REMARK    1  A    between atoms: C_1  and  N_2
REMARK    2  A    between atoms: N_5  and  C_6
REMARK    3  A    between atoms: C_6  and  C_7
REMARK    4  A    between atoms: C_7  and  O_8
REMARK    5  A    between atoms: O_8  and  C_9
REMARK    6  A    between atoms: C_9  and  C_10
REMARK    7  A    between atoms: C_9  and  C_17
REMARK                            x       y       z     vdW  Elec       q    Type
REMARK                         _______ _______ _______ _____ _____    ______ ____
ROOT
ATOM      1  C   UNL     1       2.976   5.898  18.021  0.00  0.00    +0.000 C 
ENDROOT
BRANCH   1   2
ATOM      2  C   UNL     1       4.451   5.719  17.684  0.00  0.00    +0.000 A 
ATOM      3  C   UNL     1       4.867   5.639  16.346  0.00  0.00    +0.000 A 
ATOM      4  C   UNL     1       6.224   5.567  16.018  0.00  0.00    +0.000 A 
ATOM      5  C   UNL     1       7.186   5.577  17.028  0.00  0.00    +0.000 A 
ATOM      6  C   UNL     1       6.785   5.657  18.359  0.00  0.00    +0.000 A 
ATOM      7 CL   UNL     1       7.973   5.707  19.605  0.00  0.00    +0.000 Cl
ATOM      8  C   UNL     1       5.433   5.723  18.692  0.00  0.00    +0.000 A 
ENDBRANCH   1   2
BRANCH   1   9
ATOM      9  C   UNL     1       2.423   4.824  18.953  0.00  0.00    +0.000 A 
ATOM     10  C   UNL     1       2.145   5.136  20.301  0.00  0.00    +0.000 A 
ATOM     11  C   UNL     1       1.590   4.194  21.168  0.00  0.00    +0.000 A 
ATOM     12  C   UNL     1       1.307   2.912  20.713  0.00  0.00    +0.000 A 
ATOM     13  C   UNL     1       1.596   2.571  19.394  0.00  0.00    +0.000 A 
ATOM     14  C   UNL     1       2.157   3.513  18.520  0.00  0.00    +0.000 A 
ATOM     15 CL   UNL     1       2.482   2.994  16.902  0.00  0.00    +0.000 Cl
ENDBRANCH   1   9
BRANCH   1  16
ATOM     16  O   UNL     1       2.762   7.181  18.645  0.00  0.00    +0.000 OA
BRANCH  16  17
ATOM     17  C   UNL     1       2.651   8.260  17.712  0.00  0.00    +0.000 C 
BRANCH  17  18
ATOM     18  C   UNL     1       1.413   9.094  18.077  0.00  0.00    +0.000 C 
BRANCH  18  23
ATOM     19  C   UNL     1      -2.257  12.010  19.419  0.00  0.00    +0.000 C 
ATOM     20  N   UNL     1      -0.893  11.585  19.711  0.00  0.00    +0.000 NA
ATOM     21  C   UNL     1       0.023  11.896  18.598  0.00  0.00    +0.000 C 
ATOM     22  C   UNL     1       1.468  11.396  18.864  0.00  0.00    +0.000 C 
ATOM     23  N   UNL     1       1.588   9.969  19.250  0.00  0.00    +0.000 NA
ATOM     24  C   UNL     1       0.613   9.709  20.334  0.00  0.00    +0.000 C 
ATOM     25  C   UNL     1      -0.835  10.147  20.020  0.00  0.00    +0.000 C 
ENDBRANCH  18  23
ENDBRANCH  17  18
ENDBRANCH  16  17
ENDBRANCH   1  16
TORSDOF 6
ENDMDL
MODEL 6
REMARK VINA RESULT:      -7.3      4.349      6.170
REMARK  Name = 
REMARK  7 active torsions:
REMARK  status: ('A' for Active; 'I' for Inactive)
REMARK    1  A    between atoms: C_1  and  N_2
REMARK    2  A    between atoms: N_5  and  C_6
REMARK    3  A    between atoms: C_6  and  C_7
REMARK    4  A    between atoms: C_7  and  O_8
REMARK    5  A    between atoms: O_8  and  C_9
REMARK    6  A    between atoms: C_9  and  C_10
REMARK    7  A    between atoms: C_9  and  C_17
REMARK                            x       y       z     vdW  Elec       q    Type
REMARK                         _______ _______ _______ _____ _____    ______ ____
ROOT
ATOM      1  C   UNL     1       5.900   4.009  16.080  0.00  0.00    +0.000 C 
ENDROOT
BRANCH   1   2
ATOM      2  C   UNL     1       6.263   4.104  14.603  0.00  0.00    +0.000 A 
ATOM      3  C   UNL     1       7.340   4.904  14.189  0.00  0.00    +0.000 A 
ATOM      4  C   UNL     1       7.743   4.929  12.850  0.00  0.00    +0.000 A 
ATOM      5  C   UNL     1       7.074   4.150  11.907  0.00  0.00    +0.000 A 
ATOM      6  C   UNL     1       6.005   3.352  12.306  0.00  0.00    +0.000 A 
ATOM      7 CL   UNL     1       5.201   2.362  11.149  0.00  0.00    +0.000 Cl
ATOM      8  C   UNL     1       5.595   3.327  13.639  0.00  0.00    +0.000 A 
ENDBRANCH   1   2
BRANCH   1   9
ATOM      9  C   UNL     1       6.578   5.064  16.948  0.00  0.00    +0.000 A 
ATOM     10  C   UNL     1       7.550   4.678  17.896  0.00  0.00    +0.000 A 
ATOM     11  C   UNL     1       8.228   5.620  18.671  0.00  0.00    +0.000 A 
ATOM     12  C   UNL     1       7.946   6.972  18.525  0.00  0.00    +0.000 A 
ATOM     13  C   UNL     1       6.972   7.378  17.615  0.00  0.00    +0.000 A 
ATOM     14  C   UNL     1       6.286   6.435  16.838  0.00  0.00    +0.000 A 
ATOM     15 CL   UNL     1       5.095   7.036  15.737  0.00  0.00    +0.000 Cl
ENDBRANCH   1   9
BRANCH   1  16
ATOM     16  O   UNL     1       4.474   4.141  16.250  0.00  0.00    +0.000 OA
BRANCH  16  17
ATOM     17  C   UNL     1       4.002   3.669  17.514  0.00  0.00    +0.000 C 
BRANCH  17  18
ATOM     18  C   UNL     1       2.713   2.863  17.283  0.00  0.00    +0.000 C 
BRANCH  18  23
ATOM     19  C   UNL     1       2.135   3.118  22.117  0.00  0.00    +0.000 C 
ATOM     20  N   UNL     1       1.546   3.426  20.820  0.00  0.00    +0.000 NA
ATOM     21  C   UNL     1       1.287   2.204  20.036  0.00  0.00    +0.000 C 
ATOM     22  C   UNL     1       0.715   2.514  18.627  0.00  0.00    +0.000 C 
ATOM     23  N   UNL     1       1.494   3.488  17.824  0.00  0.00    +0.000 NA
ATOM     24  C   UNL     1       1.763   4.669  18.678  0.00  0.00    +0.000 C 
ATOM     25  C   UNL     1       2.400   4.344  20.047  0.00  0.00    +0.000 C 
ENDBRANCH  18  23
ENDBRANCH  17  18
ENDBRANCH  16  17
ENDBRANCH   1  16
TORSDOF 6
ENDMDL
MODEL 7
REMARK VINA RESULT:      -7.2      3.487      6.608
REMARK  Name = 
REMARK  7 active torsions:
REMARK  status: ('A' for Active; 'I' for Inactive)
REMARK    1  A    between atoms: C_1  and  N_2
REMARK    2  A    between atoms: N_5  and  C_6
REMARK    3  A    between atoms: C_6  and  C_7
REMARK    4  A    between atoms: C_7  and  O_8
REMARK    5  A    between atoms: O_8  and  C_9
REMARK    6  A    between atoms: C_9  and  C_10
REMARK    7  A    between atoms: C_9  and  C_17
REMARK                            x       y       z     vdW  Elec       q    Type
REMARK                         _______ _______ _______ _____ _____    ______ ____
ROOT
ATOM      1  C   UNL     1       3.092   5.999  19.694  0.00  0.00    +0.000 C 
ENDROOT
BRANCH   1   2
ATOM      2  C   UNL     1       2.317   7.310  19.651  0.00  0.00    +0.000 A 
ATOM      3  C   UNL     1       2.305   8.087  18.481  0.00  0.00    +0.000 A 
ATOM      4  C   UNL     1       1.525   9.244  18.396  0.00  0.00    +0.000 A 
ATOM      5  C   UNL     1       0.742   9.638  19.480  0.00  0.00    +0.000 A 
ATOM      6  C   UNL     1       0.744   8.875  20.645  0.00  0.00    +0.000 A 
ATOM      7 CL   UNL     1      -0.251   9.340  21.971  0.00  0.00    +0.000 Cl
ATOM      8  C   UNL     1       1.525   7.723  20.737  0.00  0.00    +0.000 A 
ENDBRANCH   1   2
BRANCH   1   9
ATOM      9  C   UNL     1       2.243   4.772  19.374  0.00  0.00    +0.000 A 
ATOM     10  C   UNL     1       1.781   4.558  18.058  0.00  0.00    +0.000 A 
ATOM     11  C   UNL     1       1.047   3.422  17.717  0.00  0.00    +0.000 A 
ATOM     12  C   UNL     1       0.747   2.472  18.686  0.00  0.00    +0.000 A 
ATOM     13  C   UNL     1       1.168   2.672  19.999  0.00  0.00    +0.000 A 
ATOM     14  C   UNL     1       1.903   3.814  20.346  0.00  0.00    +0.000 A 
ATOM     15 CL   UNL     1       2.380   3.973  22.001  0.00  0.00    +0.000 Cl
ENDBRANCH   1   9
BRANCH   1  16
ATOM     16  O   UNL     1       4.187   6.039  18.757  0.00  0.00    +0.000 OA
BRANCH  16  17
ATOM     17  C   UNL     1       5.207   5.073  19.027  0.00  0.00    +0.000 C 
BRANCH  17  18
ATOM     18  C   UNL     1       5.376   4.182  17.786  0.00  0.00    +0.000 C 
BRANCH  18  23
ATOM     19  C   UNL     1       7.689   8.470  17.605  0.00  0.00    +0.000 C 
ATOM     20  N   UNL     1       7.753   7.055  17.257  0.00  0.00    +0.000 NA
ATOM     21  C   UNL     1       6.678   6.675  16.323  0.00  0.00    +0.000 C 
ATOM     22  C   UNL     1       6.693   5.159  15.988  0.00  0.00    +0.000 C 
ATOM     23  N   UNL     1       6.707   4.249  17.159  0.00  0.00    +0.000 NA
ATOM     24  C   UNL     1       7.773   4.709  18.080  0.00  0.00    +0.000 C 
ATOM     25  C   UNL     1       7.696   6.205  18.459  0.00  0.00    +0.000 C 
ENDBRANCH  18  23
ENDBRANCH  17  18
ENDBRANCH  16  17
ENDBRANCH   1  16
TORSDOF 6
ENDMDL
MODEL 8
REMARK VINA RESULT:      -7.2      3.999      6.270
REMARK  Name = 
REMARK  7 active torsions:
REMARK  status: ('A' for Active; 'I' for Inactive)
REMARK    1  A    between atoms: C_1  and  N_2
REMARK    2  A    between atoms: N_5  and  C_6
REMARK    3  A    between atoms: C_6  and  C_7
REMARK    4  A    between atoms: C_7  and  O_8
REMARK    5  A    between atoms: O_8  and  C_9
REMARK    6  A    between atoms: C_9  and  C_10
REMARK    7  A    between atoms: C_9  and  C_17
REMARK                            x       y       z     vdW  Elec       q    Type
REMARK                         _______ _______ _______ _____ _____    ______ ____
ROOT
ATOM      1  C   UNL     1       5.983   3.902  16.072  0.00  0.00    +0.000 C 
ENDROOT
BRANCH   1   2
ATOM      2  C   UNL     1       6.212   4.052  14.573  0.00  0.00    +0.000 A 
ATOM      3  C   UNL     1       7.363   4.698  14.094  0.00  0.00    +0.000 A 
ATOM      4  C   UNL     1       7.633   4.762  12.724  0.00  0.00    +0.000 A 
ATOM      5  C   UNL     1       6.754   4.176  11.813  0.00  0.00    +0.000 A 
ATOM      6  C   UNL     1       5.610   3.533  12.276  0.00  0.00    +0.000 A 
ATOM      7 CL   UNL     1       4.543   2.777  11.155  0.00  0.00    +0.000 Cl
ATOM      8  C   UNL     1       5.333   3.470  13.641  0.00  0.00    +0.000 A 
ENDBRANCH   1   2
BRANCH   1   9
ATOM      9  C   UNL     1       6.581   5.033  16.901  0.00  0.00    +0.000 A 
ATOM     10  C   UNL     1       7.559   4.750  17.879  0.00  0.00    +0.000 A 
ATOM     11  C   UNL     1       8.166   5.764  18.621  0.00  0.00    +0.000 A 
ATOM     12  C   UNL     1       7.806   7.089  18.409  0.00  0.00    +0.000 A 
ATOM     13  C   UNL     1       6.825   7.395  17.468  0.00  0.00    +0.000 A 
ATOM     14  C   UNL     1       6.210   6.378  16.724  0.00  0.00    +0.000 A 
ATOM     15 CL   UNL     1       5.003   6.857  15.581  0.00  0.00    +0.000 Cl
ENDBRANCH   1   9
BRANCH   1  16
ATOM     16  O   UNL     1       4.569   3.842  16.354  0.00  0.00    +0.000 OA
BRANCH  16  17
ATOM     17  C   UNL     1       4.269   3.408  17.683  0.00  0.00    +0.000 C 
BRANCH  17  18
ATOM     18  C   UNL     1       3.123   2.386  17.614  0.00  0.00    +0.000 C 
BRANCH  18  23
ATOM     19  C   UNL     1       1.518   5.684  20.826  0.00  0.00    +0.000 C 
ATOM     20  N   UNL     1       1.756   4.267  20.578  0.00  0.00    +0.000 NA
ATOM     21  C   UNL     1       3.186   3.988  20.350  0.00  0.00    +0.000 C 
ATOM     22  C   UNL     1       3.452   2.494  20.023  0.00  0.00    +0.000 C 
ATOM     23  N   UNL     1       2.632   1.926  18.925  0.00  0.00    +0.000 NA
ATOM     24  C   UNL     1       1.217   2.280  19.185  0.00  0.00    +0.000 C 
ATOM     25  C   UNL     1       0.963   3.783  19.435  0.00  0.00    +0.000 C 
ENDBRANCH  18  23
ENDBRANCH  17  18
ENDBRANCH  16  17
ENDBRANCH   1  16
TORSDOF 6
ENDMDL
MODEL 9
REMARK VINA RESULT:      -7.2      1.397      1.907
REMARK  Name = 
REMARK  7 active torsions:
REMARK  status: ('A' for Active; 'I' for Inactive)
REMARK    1  A    between atoms: C_1  and  N_2
REMARK    2  A    between atoms: N_5  and  C_6
REMARK    3  A    between atoms: C_6  and  C_7
REMARK    4  A    between atoms: C_7  and  O_8
REMARK    5  A    between atoms: O_8  and  C_9
REMARK    6  A    between atoms: C_9  and  C_10
REMARK    7  A    between atoms: C_9  and  C_17
REMARK                            x       y       z     vdW  Elec       q    Type
REMARK                         _______ _______ _______ _____ _____    ______ ____
ROOT
ATOM      1  C   UNL     1       2.899   5.888  17.837  0.00  0.00    +0.000 C 
ENDROOT
BRANCH   1   2
ATOM      2  C   UNL     1       4.404   5.664  17.752  0.00  0.00    +0.000 A 
ATOM      3  C   UNL     1       5.172   5.568  18.924  0.00  0.00    +0.000 A 
ATOM      4  C   UNL     1       6.537   5.271  18.865  0.00  0.00    +0.000 A 
ATOM      5  C   UNL     1       7.152   5.062  17.631  0.00  0.00    +0.000 A 
ATOM      6  C   UNL     1       6.400   5.154  16.463  0.00  0.00    +0.000 A 
ATOM      7 CL   UNL     1       7.150   4.860  14.941  0.00  0.00    +0.000 Cl
ATOM      8  C   UNL     1       5.040   5.456  16.515  0.00  0.00    +0.000 A 
ENDBRANCH   1   2
BRANCH   1   9
ATOM      9  C   UNL     1       2.147   4.756  18.529  0.00  0.00    +0.000 A 
ATOM     10  C   UNL     1       1.965   3.522  17.868  0.00  0.00    +0.000 A 
ATOM     11  C   UNL     1       1.328   2.448  18.490  0.00  0.00    +0.000 A 
ATOM     12  C   UNL     1       0.849   2.581  19.787  0.00  0.00    +0.000 A 
ATOM     13  C   UNL     1       0.992   3.796  20.453  0.00  0.00    +0.000 A 
ATOM     14  C   UNL     1       1.628   4.879  19.830  0.00  0.00    +0.000 A 
ATOM     15 CL   UNL     1       1.756   6.346  20.738  0.00  0.00    +0.000 Cl
ENDBRANCH   1   9
BRANCH   1  16
ATOM     16  O   UNL     1       2.619   7.111  18.549  0.00  0.00    +0.000 OA
BRANCH  16  17
ATOM     17  C   UNL     1       2.659   8.277  17.723  0.00  0.00    +0.000 C 
BRANCH  17  18
ATOM     18  C   UNL     1       1.426   9.140  18.039  0.00  0.00    +0.000 C 
BRANCH  18  23
ATOM     19  C   UNL     1      -2.291  12.017  19.332  0.00  0.00    +0.000 C 
ATOM     20  N   UNL     1      -0.927  11.606  19.642  0.00  0.00    +0.000 NA
ATOM     21  C   UNL     1       0.001  11.927  18.542  0.00  0.00    +0.000 C 
ATOM     22  C   UNL     1       1.448  11.442  18.828  0.00  0.00    +0.000 C 
ATOM     23  N   UNL     1       1.576  10.016  19.214  0.00  0.00    +0.000 NA
ATOM     24  C   UNL     1       0.589   9.744  20.285  0.00  0.00    +0.000 C 
ATOM     25  C   UNL     1      -0.859  10.168  19.950  0.00  0.00    +0.000 C 
ENDBRANCH  18  23
ENDBRANCH  17  18
ENDBRANCH  16  17
ENDBRANCH   1  16
TORSDOF 6
ENDMDL
