MODEL 1
REMARK VINA RESULT:      -7.4      0.000      0.000
REMARK  Name = 
REMARK  9 active torsions:
REMARK  status: ('A' for Active; 'I' for Inactive)
REMARK    1  A    between atoms: C_1  and  C_2
REMARK    2  A    between atoms: C_2  and  N_3
REMARK    3  A    between atoms: N_3  and  C_4
REMARK    4  A    between atoms: N_3  and  C_6
REMARK    5  A    between atoms: C_4  and  C_5
REMARK    6  A    between atoms: C_6  and  C_7
REMARK    7  A    between atoms: C_7  and  C_8
REMARK    8  A    between atoms: C_8  and  O_9
REMARK    9  A    between atoms: O_9  and  C_10
REMARK                            x       y       z     vdW  Elec       q    Type
REMARK                         _______ _______ _______ _____ _____    ______ ____
ROOT
ATOM      1  C   UNL     1       5.146   5.869  15.926  0.00  0.00    +0.000 A 
ATOM      2  C   UNL     1       4.757   7.049  16.559  0.00  0.00    +0.000 A 
ATOM      3  C   UNL     1       3.866   7.011  17.640  0.00  0.00    +0.000 A 
ATOM      4  C   UNL     1       3.376   5.795  18.117  0.00  0.00    +0.000 A 
ATOM      5  N   UNL     1       2.517   5.801  19.233  0.00  0.00    +0.000 NA
ATOM      6  C   UNL     1       2.160   4.646  19.684  0.00  0.00    +0.000 A 
ATOM      7  N   UNL     1       2.531   3.442  19.145  0.00  0.00    +0.000 N 
ATOM      8  C   UNL     1       3.321   3.327  18.025  0.00  0.00    +0.000 A 
ATOM      9  O   UNL     1       3.637   2.261  17.514  0.00  0.00    +0.000 OA
ATOM     10  C   UNL     1       3.789   4.617  17.480  0.00  0.00    +0.000 A 
ATOM     11  C   UNL     1       4.657   4.648  16.388  0.00  0.00    +0.000 A 
ATOM     12  C   UNL     1       2.035   2.319  19.887  0.00  0.00    +0.000 C 
ATOM     13  C   UNL     1       1.211   2.908  21.019  0.00  0.00    +0.000 C 
ATOM     14  C   UNL     1       1.285   4.427  20.876  0.00  0.00    +0.000 C 
ENDROOT
BRANCH   1  15
ATOM     15  O   UNL     1       5.995   5.768  14.863  0.00  0.00    +0.000 OA
BRANCH  15  16
ATOM     16  C   UNL     1       6.837   4.615  14.807  0.00  0.00    +0.000 C 
BRANCH  16  17
ATOM     17  C   UNL     1       6.154   3.607  13.893  0.00  0.00    +0.000 C 
BRANCH  17  18
ATOM     18  C   UNL     1       6.468   3.837  12.411  0.00  0.00    +0.000 C 
BRANCH  18  19
ATOM     19  N   UNL     1       5.584   3.122  11.471  0.00  0.00    +0.000 NA
BRANCH  19  21
ATOM     20  C   UNL     1       7.085   1.186  10.842  0.00  0.00    +0.000 C 
ATOM     21  C   UNL     1       5.801   1.665  11.514  0.00  0.00    +0.000 C 
ENDBRANCH  19  21
BRANCH  19  22
ATOM     22  C   UNL     1       4.176   3.524  11.652  0.00  0.00    +0.000 C 
ATOM     23  C   UNL     1       3.306   3.523  10.397  0.00  0.00    +0.000 C 
ENDBRANCH  19  22
ENDBRANCH  18  19
ENDBRANCH  17  18
ENDBRANCH  16  17
ENDBRANCH  15  16
ENDBRANCH   1  15
TORSDOF 7
ENDMDL
MODEL 2
REMARK VINA RESULT:      -7.3      0.884      1.695
REMARK  Name = 
REMARK  9 active torsions:
REMARK  status: ('A' for Active; 'I' for Inactive)
REMARK    1  A    between atoms: C_1  and  C_2
REMARK    2  A    between atoms: C_2  and  N_3
REMARK    3  A    between atoms: N_3  and  C_4
REMARK    4  A    between atoms: N_3  and  C_6
REMARK    5  A    between atoms: C_4  and  C_5
REMARK    6  A    between atoms: C_6  and  C_7
REMARK    7  A    between atoms: C_7  and  C_8
REMARK    8  A    between atoms: C_8  and  O_9
REMARK    9  A    between atoms: O_9  and  C_10
REMARK                            x       y       z     vdW  Elec       q    Type
REMARK                         _______ _______ _______ _____ _____    ______ ____
ROOT
ATOM      1  C   UNL     1       5.898   5.757  16.375  0.00  0.00    +0.000 A 
ATOM      2  C   UNL     1       4.969   6.798  16.362  0.00  0.00    +0.000 A 
ATOM      3  C   UNL     1       3.826   6.734  17.169  0.00  0.00    +0.000 A 
ATOM      4  C   UNL     1       3.611   5.647  18.016  0.00  0.00    +0.000 A 
ATOM      5  N   UNL     1       2.470   5.646  18.842  0.00  0.00    +0.000 NA
ATOM      6  C   UNL     1       2.362   4.659  19.666  0.00  0.00    +0.000 A 
ATOM      7  N   UNL     1       3.250   3.619  19.768  0.00  0.00    +0.000 N 
ATOM      8  C   UNL     1       4.366   3.498  18.972  0.00  0.00    +0.000 A 
ATOM      9  O   UNL     1       5.153   2.562  19.031  0.00  0.00    +0.000 OA
ATOM     10  C   UNL     1       4.561   4.617  18.029  0.00  0.00    +0.000 A 
ATOM     11  C   UNL     1       5.690   4.660  17.211  0.00  0.00    +0.000 A 
ATOM     12  C   UNL     1       2.912   2.693  20.809  0.00  0.00    +0.000 C 
ATOM     13  C   UNL     1       1.614   3.208  21.408  0.00  0.00    +0.000 C 
ATOM     14  C   UNL     1       1.253   4.484  20.651  0.00  0.00    +0.000 C 
ENDROOT
BRANCH   1  15
ATOM     15  O   UNL     1       7.042   5.689  15.634  0.00  0.00    +0.000 OA
BRANCH  15  16
ATOM     16  C   UNL     1       7.304   4.463  14.948  0.00  0.00    +0.000 C 
BRANCH  16  17
ATOM     17  C   UNL     1       6.036   4.098  14.188  0.00  0.00    +0.000 C 
BRANCH  17  18
ATOM     18  C   UNL     1       6.312   3.632  12.755  0.00  0.00    +0.000 C 
BRANCH  18  19
ATOM     19  N   UNL     1       5.217   2.868  12.128  0.00  0.00    +0.000 NA
BRANCH  19  21
ATOM     20  C   UNL     1       3.312   3.014  10.473  0.00  0.00    +0.000 C 
ATOM     21  C   UNL     1       4.290   3.743  11.390  0.00  0.00    +0.000 C 
ENDBRANCH  19  21
BRANCH  19  22
ATOM     22  C   UNL     1       5.741   1.741  11.333  0.00  0.00    +0.000 C 
ATOM     23  C   UNL     1       7.233   1.776  11.012  0.00  0.00    +0.000 C 
ENDBRANCH  19  22
ENDBRANCH  18  19
ENDBRANCH  17  18
ENDBRANCH  16  17
ENDBRANCH  15  16
ENDBRANCH   1  15
TORSDOF 7
ENDMDL
MODEL 3
REMARK VINA RESULT:      -7.3      1.376      1.484
REMARK  Name = 
REMARK  9 active torsions:
REMARK  status: ('A' for Active; 'I' for Inactive)
REMARK    1  A    between atoms: C_1  and  C_2
REMARK    2  A    between atoms: C_2  and  N_3
REMARK    3  A    between atoms: N_3  and  C_4
REMARK    4  A    between atoms: N_3  and  C_6
REMARK    5  A    between atoms: C_4  and  C_5
REMARK    6  A    between atoms: C_6  and  C_7
REMARK    7  A    between atoms: C_7  and  C_8
REMARK    8  A    between atoms: C_8  and  O_9
REMARK    9  A    between atoms: O_9  and  C_10
REMARK                            x       y       z     vdW  Elec       q    Type
REMARK                         _______ _______ _______ _____ _____    ______ ____
ROOT
ATOM      1  C   UNL     1       6.730   4.595  16.530  0.00  0.00    +0.000 A 
ATOM      2  C   UNL     1       7.236   5.173  17.695  0.00  0.00    +0.000 A 
ATOM      3  C   UNL     1       6.417   5.327  18.821  0.00  0.00    +0.000 A 
ATOM      4  C   UNL     1       5.095   4.883  18.807  0.00  0.00    +0.000 A 
ATOM      5  N   UNL     1       4.322   5.019  19.976  0.00  0.00    +0.000 NA
ATOM      6  C   UNL     1       3.134   4.517  19.937  0.00  0.00    +0.000 A 
ATOM      7  N   UNL     1       2.577   3.899  18.847  0.00  0.00    +0.000 N 
ATOM      8  C   UNL     1       3.227   3.762  17.642  0.00  0.00    +0.000 A 
ATOM      9  O   UNL     1       2.734   3.239  16.652  0.00  0.00    +0.000 OA
ATOM     10  C   UNL     1       4.606   4.290  17.636  0.00  0.00    +0.000 A 
ATOM     11  C   UNL     1       5.407   4.154  16.501  0.00  0.00    +0.000 A 
ATOM     12  C   UNL     1       1.264   3.383  19.105  0.00  0.00    +0.000 C 
ATOM     13  C   UNL     1       0.948   3.770  20.540  0.00  0.00    +0.000 C 
ATOM     14  C   UNL     1       2.166   4.520  21.075  0.00  0.00    +0.000 C 
ENDROOT
BRANCH   1  15
ATOM     15  O   UNL     1       7.413   4.396  15.366  0.00  0.00    +0.000 OA
BRANCH  15  16
ATOM     16  C   UNL     1       6.882   5.002  14.186  0.00  0.00    +0.000 C 
BRANCH  16  17
ATOM     17  C   UNL     1       5.970   3.975  13.530  0.00  0.00    +0.000 C 
BRANCH  17  18
ATOM     18  C   UNL     1       6.549   3.403  12.233  0.00  0.00    +0.000 C 
BRANCH  18  19
ATOM     19  N   UNL     1       5.548   2.895  11.275  0.00  0.00    +0.000 NA
BRANCH  19  21
ATOM     20  C   UNL     1       6.965   0.808  11.105  0.00  0.00    +0.000 C 
ATOM     21  C   UNL     1       5.571   1.425  11.185  0.00  0.00    +0.000 C 
ENDBRANCH  19  21
BRANCH  19  22
ATOM     22  C   UNL     1       4.213   3.458  11.553  0.00  0.00    +0.000 C 
ATOM     23  C   UNL     1       3.217   3.437  10.395  0.00  0.00    +0.000 C 
ENDBRANCH  19  22
ENDBRANCH  18  19
ENDBRANCH  17  18
ENDBRANCH  16  17
ENDBRANCH  15  16
ENDBRANCH   1  15
TORSDOF 7
ENDMDL
MODEL 4
REMARK VINA RESULT:      -7.3      4.366      7.043
REMARK  Name = 
REMARK  9 active torsions:
REMARK  status: ('A' for Active; 'I' for Inactive)
REMARK    1  A    between atoms: C_1  and  C_2
REMARK    2  A    between atoms: C_2  and  N_3
REMARK    3  A    between atoms: N_3  and  C_4
REMARK    4  A    between atoms: N_3  and  C_6
REMARK    5  A    between atoms: C_4  and  C_5
REMARK    6  A    between atoms: C_6  and  C_7
REMARK    7  A    between atoms: C_7  and  C_8
REMARK    8  A    between atoms: C_8  and  O_9
REMARK    9  A    between atoms: O_9  and  C_10
REMARK                            x       y       z     vdW  Elec       q    Type
REMARK                         _______ _______ _______ _____ _____    ______ ____
ROOT
ATOM      1  C   UNL     1       6.710   6.277  16.845  0.00  0.00    +0.000 A 
ATOM      2  C   UNL     1       6.868   5.134  16.060  0.00  0.00    +0.000 A 
ATOM      3  C   UNL     1       5.987   4.054  16.199  0.00  0.00    +0.000 A 
ATOM      4  C   UNL     1       4.926   4.112  17.103  0.00  0.00    +0.000 A 
ATOM      5  N   UNL     1       4.040   3.020  17.178  0.00  0.00    +0.000 NA
ATOM      6  C   UNL     1       3.028   3.159  17.968  0.00  0.00    +0.000 A 
ATOM      7  N   UNL     1       2.781   4.263  18.741  0.00  0.00    +0.000 N 
ATOM      8  C   UNL     1       3.611   5.359  18.781  0.00  0.00    +0.000 A 
ATOM      9  O   UNL     1       3.419   6.340  19.488  0.00  0.00    +0.000 OA
ATOM     10  C   UNL     1       4.771   5.272  17.872  0.00  0.00    +0.000 A 
ATOM     11  C   UNL     1       5.658   6.344  17.757  0.00  0.00    +0.000 A 
ATOM     12  C   UNL     1       1.553   4.169  19.477  0.00  0.00    +0.000 C 
ATOM     13  C   UNL     1       0.982   2.801  19.144  0.00  0.00    +0.000 C 
ATOM     14  C   UNL     1       1.953   2.140  18.168  0.00  0.00    +0.000 C 
ENDROOT
BRANCH   1  15
ATOM     15  O   UNL     1       7.500   7.389  16.816  0.00  0.00    +0.000 OA
BRANCH  15  16
ATOM     16  C   UNL     1       7.956   7.899  18.071  0.00  0.00    +0.000 C 
BRANCH  16  17
ATOM     17  C   UNL     1       8.078   9.409  17.921  0.00  0.00    +0.000 C 
BRANCH  17  18
ATOM     18  C   UNL     1       9.208  10.003  18.767  0.00  0.00    +0.000 C 
BRANCH  18  19
ATOM     19  N   UNL     1       9.198  11.475  18.872  0.00  0.00    +0.000 NA
BRANCH  19  21
ATOM     20  C   UNL     1      10.909  11.997  20.658  0.00  0.00    +0.000 C 
ATOM     21  C   UNL     1      10.535  12.013  19.179  0.00  0.00    +0.000 C 
ENDBRANCH  19  21
BRANCH  19  22
ATOM     22  C   UNL     1       8.561  12.089  17.692  0.00  0.00    +0.000 C 
ATOM     23  C   UNL     1       8.190  13.565  17.815  0.00  0.00    +0.000 C 
ENDBRANCH  19  22
ENDBRANCH  18  19
ENDBRANCH  17  18
ENDBRANCH  16  17
ENDBRANCH  15  16
ENDBRANCH   1  15
TORSDOF 7
ENDMDL
MODEL 5
REMARK VINA RESULT:      -7.1      4.281      6.518
REMARK  Name = 
REMARK  9 active torsions:
REMARK  status: ('A' for Active; 'I' for Inactive)
REMARK    1  A    between atoms: C_1  and  C_2
REMARK    2  A    between atoms: C_2  and  N_3
REMARK    3  A    between atoms: N_3  and  C_4
REMARK    4  A    between atoms: N_3  and  C_6
REMARK    5  A    between atoms: C_4  and  C_5
REMARK    6  A    between atoms: C_6  and  C_7
REMARK    7  A    between atoms: C_7  and  C_8
REMARK    8  A    between atoms: C_8  and  O_9
REMARK    9  A    between atoms: O_9  and  C_10
REMARK                            x       y       z     vdW  Elec       q    Type
REMARK                         _______ _______ _______ _____ _____    ______ ____
ROOT
ATOM      1  C   UNL     1       5.827   6.889  17.349  0.00  0.00    +0.000 A 
ATOM      2  C   UNL     1       4.657   7.603  17.088  0.00  0.00    +0.000 A 
ATOM      3  C   UNL     1       3.422   7.131  17.553  0.00  0.00    +0.000 A 
ATOM      4  C   UNL     1       3.345   5.959  18.305  0.00  0.00    +0.000 A 
ATOM      5  N   UNL     1       2.088   5.546  18.789  0.00  0.00    +0.000 NA
ATOM      6  C   UNL     1       2.084   4.503  19.548  0.00  0.00    +0.000 A 
ATOM      7  N   UNL     1       3.193   3.770  19.885  0.00  0.00    +0.000 N 
ATOM      8  C   UNL     1       4.456   4.057  19.422  0.00  0.00    +0.000 A 
ATOM      9  O   UNL     1       5.451   3.397  19.690  0.00  0.00    +0.000 OA
ATOM     10  C   UNL     1       4.530   5.262  18.573  0.00  0.00    +0.000 A 
ATOM     11  C   UNL     1       5.761   5.711  18.093  0.00  0.00    +0.000 A 
ATOM     12  C   UNL     1       2.902   2.698  20.791  0.00  0.00    +0.000 C 
ATOM     13  C   UNL     1       1.400   2.748  21.016  0.00  0.00    +0.000 C 
ATOM     14  C   UNL     1       0.869   3.920  20.194  0.00  0.00    +0.000 C 
ENDROOT
BRANCH   1  15
ATOM     15  O   UNL     1       7.085   7.230  16.948  0.00  0.00    +0.000 OA
BRANCH  15  16
ATOM     16  C   UNL     1       7.963   7.767  17.939  0.00  0.00    +0.000 C 
BRANCH  16  17
ATOM     17  C   UNL     1       8.090   9.259  17.662  0.00  0.00    +0.000 C 
BRANCH  17  18
ATOM     18  C   UNL     1       8.802  10.016  18.787  0.00  0.00    +0.000 C 
BRANCH  18  19
ATOM     19  N   UNL     1       9.333  11.339  18.405  0.00  0.00    +0.000 NA
BRANCH  19  21
ATOM     20  C   UNL     1      11.825  11.629  18.722  0.00  0.00    +0.000 C 
ATOM     21  C   UNL     1      10.673  11.238  17.800  0.00  0.00    +0.000 C 
ENDBRANCH  19  21
BRANCH  19  22
ATOM     22  C   UNL     1       8.361  12.088  17.587  0.00  0.00    +0.000 C 
ATOM     23  C   UNL     1       8.077  13.524  18.021  0.00  0.00    +0.000 C 
ENDBRANCH  19  22
ENDBRANCH  18  19
ENDBRANCH  17  18
ENDBRANCH  16  17
ENDBRANCH  15  16
ENDBRANCH   1  15
TORSDOF 7
ENDMDL
MODEL 6
REMARK VINA RESULT:      -7.1      4.469      7.260
REMARK  Name = 
REMARK  9 active torsions:
REMARK  status: ('A' for Active; 'I' for Inactive)
REMARK    1  A    between atoms: C_1  and  C_2
REMARK    2  A    between atoms: C_2  and  N_3
REMARK    3  A    between atoms: N_3  and  C_4
REMARK    4  A    between atoms: N_3  and  C_6
REMARK    5  A    between atoms: C_4  and  C_5
REMARK    6  A    between atoms: C_6  and  C_7
REMARK    7  A    between atoms: C_7  and  C_8
REMARK    8  A    between atoms: C_8  and  O_9
REMARK    9  A    between atoms: O_9  and  C_10
REMARK                            x       y       z     vdW  Elec       q    Type
REMARK                         _______ _______ _______ _____ _____    ______ ____
ROOT
ATOM      1  C   UNL     1       7.020   6.414  16.869  0.00  0.00    +0.000 A 
ATOM      2  C   UNL     1       7.249   5.253  16.130  0.00  0.00    +0.000 A 
ATOM      3  C   UNL     1       6.370   4.167  16.231  0.00  0.00    +0.000 A 
ATOM      4  C   UNL     1       5.241   4.237  17.047  0.00  0.00    +0.000 A 
ATOM      5  N   UNL     1       4.362   3.137  17.084  0.00  0.00    +0.000 NA
ATOM      6  C   UNL     1       3.291   3.285  17.789  0.00  0.00    +0.000 A 
ATOM      7  N   UNL     1       2.974   4.407  18.510  0.00  0.00    +0.000 N 
ATOM      8  C   UNL     1       3.788   5.513  18.584  0.00  0.00    +0.000 A 
ATOM      9  O   UNL     1       3.532   6.510  19.245  0.00  0.00    +0.000 OA
ATOM     10  C   UNL     1       5.016   5.415  17.770  0.00  0.00    +0.000 A 
ATOM     11  C   UNL     1       5.899   6.493  17.695  0.00  0.00    +0.000 A 
ATOM     12  C   UNL     1       1.694   4.318  19.150  0.00  0.00    +0.000 C 
ATOM     13  C   UNL     1       1.163   2.935  18.812  0.00  0.00    +0.000 C 
ATOM     14  C   UNL     1       2.214   2.260  17.933  0.00  0.00    +0.000 C 
ENDROOT
BRANCH   1  15
ATOM     15  O   UNL     1       7.798   7.535  16.870  0.00  0.00    +0.000 OA
BRANCH  15  16
ATOM     16  C   UNL     1       7.360   8.633  17.672  0.00  0.00    +0.000 C 
BRANCH  16  17
ATOM     17  C   UNL     1       8.598   9.225  18.333  0.00  0.00    +0.000 C 
BRANCH  17  18
ATOM     18  C   UNL     1       8.849  10.682  17.932  0.00  0.00    +0.000 C 
BRANCH  18  19
ATOM     19  N   UNL     1       9.314  11.556  19.026  0.00  0.00    +0.000 NA
BRANCH  19  21
ATOM     20  C   UNL     1       8.951  11.589  21.528  0.00  0.00    +0.000 C 
ATOM     21  C   UNL     1       9.434  10.824  20.299  0.00  0.00    +0.000 C 
ENDBRANCH  19  21
BRANCH  19  22
ATOM     22  C   UNL     1      10.534  12.290  18.640  0.00  0.00    +0.000 C 
ATOM     23  C   UNL     1      11.856  11.549  18.824  0.00  0.00    +0.000 C 
ENDBRANCH  19  22
ENDBRANCH  18  19
ENDBRANCH  17  18
ENDBRANCH  16  17
ENDBRANCH  15  16
ENDBRANCH   1  15
TORSDOF 7
ENDMDL
MODEL 7
REMARK VINA RESULT:      -7.1      0.847      1.695
REMARK  Name = 
REMARK  9 active torsions:
REMARK  status: ('A' for Active; 'I' for Inactive)
REMARK    1  A    between atoms: C_1  and  C_2
REMARK    2  A    between atoms: C_2  and  N_3
REMARK    3  A    between atoms: N_3  and  C_4
REMARK    4  A    between atoms: N_3  and  C_6
REMARK    5  A    between atoms: C_4  and  C_5
REMARK    6  A    between atoms: C_6  and  C_7
REMARK    7  A    between atoms: C_7  and  C_8
REMARK    8  A    between atoms: C_8  and  O_9
REMARK    9  A    between atoms: O_9  and  C_10
REMARK                            x       y       z     vdW  Elec       q    Type
REMARK                         _______ _______ _______ _____ _____    ______ ____
ROOT
ATOM      1  C   UNL     1       6.031   4.891  16.144  0.00  0.00    +0.000 A 
ATOM      2  C   UNL     1       5.691   6.186  16.537  0.00  0.00    +0.000 A 
ATOM      3  C   UNL     1       4.631   6.398  17.429  0.00  0.00    +0.000 A 
ATOM      4  C   UNL     1       3.918   5.322  17.958  0.00  0.00    +0.000 A 
ATOM      5  N   UNL     1       2.890   5.581  18.884  0.00  0.00    +0.000 NA
ATOM      6  C   UNL     1       2.318   4.548  19.406  0.00  0.00    +0.000 A 
ATOM      7  N   UNL     1       2.621   3.246  19.104  0.00  0.00    +0.000 N 
ATOM      8  C   UNL     1       3.570   2.887  18.175  0.00  0.00    +0.000 A 
ATOM      9  O   UNL     1       3.832   1.730  17.874  0.00  0.00    +0.000 OA
ATOM     10  C   UNL     1       4.282   4.027  17.566  0.00  0.00    +0.000 A 
ATOM     11  C   UNL     1       5.321   3.807  16.660  0.00  0.00    +0.000 A 
ATOM     12  C   UNL     1       1.870   2.302  19.879  0.00  0.00    +0.000 C 
ATOM     13  C   UNL     1       0.946   3.133  20.752  0.00  0.00    +0.000 C 
ATOM     14  C   UNL     1       1.233   4.598  20.432  0.00  0.00    +0.000 C 
ENDROOT
BRANCH   1  15
ATOM     15  O   UNL     1       7.029   4.547  15.279  0.00  0.00    +0.000 OA
BRANCH  15  16
ATOM     16  C   UNL     1       7.023   5.173  13.995  0.00  0.00    +0.000 C 
BRANCH  16  17
ATOM     17  C   UNL     1       6.822   4.070  12.964  0.00  0.00    +0.000 C 
BRANCH  17  18
ATOM     18  C   UNL     1       5.432   3.431  13.036  0.00  0.00    +0.000 C 
BRANCH  18  19
ATOM     19  N   UNL     1       5.000   2.743  11.804  0.00  0.00    +0.000 NA
BRANCH  19  21
ATOM     20  C   UNL     1       3.060   3.002  10.203  0.00  0.00    +0.000 C 
ATOM     21  C   UNL     1       4.253   3.642  10.907  0.00  0.00    +0.000 C 
ENDBRANCH  19  21
BRANCH  19  22
ATOM     22  C   UNL     1       6.130   2.052  11.155  0.00  0.00    +0.000 C 
ATOM     23  C   UNL     1       6.092   0.526  11.177  0.00  0.00    +0.000 C 
ENDBRANCH  19  22
ENDBRANCH  18  19
ENDBRANCH  17  18
ENDBRANCH  16  17
ENDBRANCH  15  16
ENDBRANCH   1  15
TORSDOF 7
ENDMDL
MODEL 8
REMARK VINA RESULT:      -6.9      4.750      7.283
REMARK  Name = 
REMARK  9 active torsions:
REMARK  status: ('A' for Active; 'I' for Inactive)
REMARK    1  A    between atoms: C_1  and  C_2
REMARK    2  A    between atoms: C_2  and  N_3
REMARK    3  A    between atoms: N_3  and  C_4
REMARK    4  A    between atoms: N_3  and  C_6
REMARK    5  A    between atoms: C_4  and  C_5
REMARK    6  A    between atoms: C_6  and  C_7
REMARK    7  A    between atoms: C_7  and  C_8
REMARK    8  A    between atoms: C_8  and  O_9
REMARK    9  A    between atoms: O_9  and  C_10
REMARK                            x       y       z     vdW  Elec       q    Type
REMARK                         _______ _______ _______ _____ _____    ______ ____
ROOT
ATOM      1  C   UNL     1       6.613   6.815  17.451  0.00  0.00    +0.000 A 
ATOM      2  C   UNL     1       7.350   5.643  17.618  0.00  0.00    +0.000 A 
ATOM      3  C   UNL     1       6.707   4.447  17.963  0.00  0.00    +0.000 A 
ATOM      4  C   UNL     1       5.322   4.402  18.120  0.00  0.00    +0.000 A 
ATOM      5  N   UNL     1       4.714   3.169  18.425  0.00  0.00    +0.000 NA
ATOM      6  C   UNL     1       3.424   3.165  18.476  0.00  0.00    +0.000 A 
ATOM      7  N   UNL     1       2.627   4.264  18.285  0.00  0.00    +0.000 N 
ATOM      8  C   UNL     1       3.122   5.523  18.036  0.00  0.00    +0.000 A 
ATOM      9  O   UNL     1       2.425   6.518  17.892  0.00  0.00    +0.000 OA
ATOM     10  C   UNL     1       4.594   5.584  17.933  0.00  0.00    +0.000 A 
ATOM     11  C   UNL     1       5.228   6.785  17.613  0.00  0.00    +0.000 A 
ATOM     12  C   UNL     1       1.227   3.957  18.341  0.00  0.00    +0.000 C 
ATOM     13  C   UNL     1       1.147   2.471  18.649  0.00  0.00    +0.000 C 
ATOM     14  C   UNL     1       2.583   1.961  18.748  0.00  0.00    +0.000 C 
ENDROOT
BRANCH   1  15
ATOM     15  O   UNL     1       7.113   8.042  17.126  0.00  0.00    +0.000 OA
BRANCH  15  16
ATOM     16  C   UNL     1       8.227   8.514  17.886  0.00  0.00    +0.000 C 
BRANCH  16  17
ATOM     17  C   UNL     1       8.094  10.028  17.979  0.00  0.00    +0.000 C 
BRANCH  17  18
ATOM     18  C   UNL     1       9.401  10.719  18.381  0.00  0.00    +0.000 C 
BRANCH  18  19
ATOM     19  N   UNL     1       9.670  11.992  17.685  0.00  0.00    +0.000 NA
BRANCH  19  21
ATOM     20  C   UNL     1       9.051  13.492  19.623  0.00  0.00    +0.000 C 
ATOM     21  C   UNL     1       8.805  13.079  18.175  0.00  0.00    +0.000 C 
ENDBRANCH  19  21
BRANCH  19  22
ATOM     22  C   UNL     1      11.109  12.316  17.704  0.00  0.00    +0.000 C 
ATOM     23  C   UNL     1      11.579  13.368  16.703  0.00  0.00    +0.000 C 
ENDBRANCH  19  22
ENDBRANCH  18  19
ENDBRANCH  17  18
ENDBRANCH  16  17
ENDBRANCH  15  16
ENDBRANCH   1  15
TORSDOF 7
ENDMDL
MODEL 9
REMARK VINA RESULT:      -6.9      4.312      6.458
REMARK  Name = 
REMARK  9 active torsions:
REMARK  status: ('A' for Active; 'I' for Inactive)
REMARK    1  A    between atoms: C_1  and  C_2
REMARK    2  A    between atoms: C_2  and  N_3
REMARK    3  A    between atoms: N_3  and  C_4
REMARK    4  A    between atoms: N_3  and  C_6
REMARK    5  A    between atoms: C_4  and  C_5
REMARK    6  A    between atoms: C_6  and  C_7
REMARK    7  A    between atoms: C_7  and  C_8
REMARK    8  A    between atoms: C_8  and  O_9
REMARK    9  A    between atoms: O_9  and  C_10
REMARK                            x       y       z     vdW  Elec       q    Type
REMARK                         _______ _______ _______ _____ _____    ______ ____
ROOT
ATOM      1  C   UNL     1       5.445   7.020  17.294  0.00  0.00    +0.000 A 
ATOM      2  C   UNL     1       4.227   7.698  17.225  0.00  0.00    +0.000 A 
ATOM      3  C   UNL     1       3.083   7.157  17.826  0.00  0.00    +0.000 A 
ATOM      4  C   UNL     1       3.147   5.951  18.523  0.00  0.00    +0.000 A 
ATOM      5  N   UNL     1       1.981   5.467  19.148  0.00  0.00    +0.000 NA
ATOM      6  C   UNL     1       2.114   4.391  19.849  0.00  0.00    +0.000 A 
ATOM      7  N   UNL     1       3.282   3.689  19.999  0.00  0.00    +0.000 N 
ATOM      8  C   UNL     1       4.461   4.047  19.388  0.00  0.00    +0.000 A 
ATOM      9  O   UNL     1       5.505   3.415  19.488  0.00  0.00    +0.000 OA
ATOM     10  C   UNL     1       4.380   5.290  18.597  0.00  0.00    +0.000 A 
ATOM     11  C   UNL     1       5.520   5.809  17.980  0.00  0.00    +0.000 A 
ATOM     12  C   UNL     1       3.152   2.567  20.882  0.00  0.00    +0.000 C 
ATOM     13  C   UNL     1       1.693   2.547  21.306  0.00  0.00    +0.000 C 
ATOM     14  C   UNL     1       1.016   3.733  20.620  0.00  0.00    +0.000 C 
ENDROOT
BRANCH   1  15
ATOM     15  O   UNL     1       6.626   7.429  16.746  0.00  0.00    +0.000 OA
BRANCH  15  16
ATOM     16  C   UNL     1       7.813   7.199  17.508  0.00  0.00    +0.000 C 
BRANCH  16  17
ATOM     17  C   UNL     1       8.000   8.407  18.416  0.00  0.00    +0.000 C 
BRANCH  17  18
ATOM     18  C   UNL     1       8.377   9.678  17.648  0.00  0.00    +0.000 C 
BRANCH  18  19
ATOM     19  N   UNL     1       9.397  10.520  18.303  0.00  0.00    +0.000 NA
BRANCH  19  21
ATOM     20  C   UNL     1       8.011  12.439  17.416  0.00  0.00    +0.000 C 
ATOM     21  C   UNL     1       9.390  11.897  17.779  0.00  0.00    +0.000 C 
ENDBRANCH  19  21
BRANCH  19  22
ATOM     22  C   UNL     1       9.293  10.437  19.772  0.00  0.00    +0.000 C 
ATOM     23  C   UNL     1      10.016  11.525  20.563  0.00  0.00    +0.000 C 
ENDBRANCH  19  22
ENDBRANCH  18  19
ENDBRANCH  17  18
ENDBRANCH  16  17
ENDBRANCH  15  16
ENDBRANCH   1  15
TORSDOF 7
ENDMDL
