MODEL 1
REMARK VINA RESULT:      -8.7      0.000      0.000
REMARK  Name = 
REMARK  1 active torsions:
REMARK  status: ('A' for Active; 'I' for Inactive)
REMARK    1  A    between atoms: C_13  and  C_14
REMARK                            x       y       z     vdW  Elec       q    Type
REMARK                         _______ _______ _______ _____ _____    ______ ____
ROOT
ATOM      1 CL   UNL     1       1.631   4.809  20.808  0.00  0.00    +0.000 Cl
ATOM      2  C   UNL     1       2.300   4.093  19.380  0.00  0.00    +0.000 A 
ATOM      3  C   UNL     1       2.030   2.741  19.162  0.00  0.00    +0.000 A 
ATOM      4  C   UNL     1       2.539   2.106  18.039  0.00  0.00    +0.000 A 
ATOM      5  C   UNL     1       3.343   2.814  17.145  0.00  0.00    +0.000 A 
ATOM      6  C   UNL     1       3.662   4.168  17.362  0.00  0.00    +0.000 A 
ATOM      7  C   UNL     1       3.089   4.832  18.474  0.00  0.00    +0.000 A 
ATOM      8  C   UNL     1       3.344   6.302  18.720  0.00  0.00    +0.000 C 
ATOM      9  C   UNL     1       3.873   7.043  17.499  0.00  0.00    +0.000 C 
ATOM     10  C   UNL     1       4.992   6.288  16.796  0.00  0.00    +0.000 C 
ATOM     11  N   UNL     1       6.197   6.097  17.626  0.00  0.00    +0.000 NA
ATOM     12  C   UNL     1       6.883   4.910  17.085  0.00  0.00    +0.000 C 
ATOM     13  C   UNL     1       5.922   4.198  16.114  0.00  0.00    +0.000 C 
ATOM     14  C   UNL     1       4.558   4.886  16.353  0.00  0.00    +0.000 C 
ATOM     15  H   UNL     1       5.919   5.878  18.583  0.00  0.00    +0.000 HD
ENDROOT
BRANCH  13  16
ATOM     16  C   UNL     1       6.334   4.242  14.645  0.00  0.00    +0.000 A 
ATOM     17  C   UNL     1       7.437   5.030  14.272  0.00  0.00    +0.000 A 
ATOM     18  C   UNL     1       7.851   5.104  12.941  0.00  0.00    +0.000 A 
ATOM     19  C   UNL     1       7.172   4.389  11.957  0.00  0.00    +0.000 A 
ATOM     20  C   UNL     1       6.084   3.595  12.308  0.00  0.00    +0.000 A 
ATOM     21  C   UNL     1       5.675   3.514  13.642  0.00  0.00    +0.000 A 
ENDBRANCH  13  16
TORSDOF 1
ENDMDL
MODEL 2
REMARK VINA RESULT:      -8.7      0.288      1.112
REMARK  Name = 
REMARK  1 active torsions:
REMARK  status: ('A' for Active; 'I' for Inactive)
REMARK    1  A    between atoms: C_13  and  C_14
REMARK                            x       y       z     vdW  Elec       q    Type
REMARK                         _______ _______ _______ _____ _____    ______ ____
ROOT
ATOM      1 CL   UNL     1       1.826   4.642  20.993  0.00  0.00    +0.000 Cl
ATOM      2  C   UNL     1       2.551   3.939  19.587  0.00  0.00    +0.000 A 
ATOM      3  C   UNL     1       2.452   2.554  19.446  0.00  0.00    +0.000 A 
ATOM      4  C   UNL     1       3.016   1.927  18.345  0.00  0.00    +0.000 A 
ATOM      5  C   UNL     1       3.704   2.681  17.394  0.00  0.00    +0.000 A 
ATOM      6  C   UNL     1       3.852   4.075  17.532  0.00  0.00    +0.000 A 
ATOM      7  C   UNL     1       3.221   4.721  18.622  0.00  0.00    +0.000 A 
ATOM      8  C   UNL     1       3.292   6.223  18.785  0.00  0.00    +0.000 C 
ATOM      9  C   UNL     1       3.697   6.957  17.513  0.00  0.00    +0.000 C 
ATOM     10  C   UNL     1       4.889   6.312  16.821  0.00  0.00    +0.000 C 
ATOM     11  N   UNL     1       6.125   6.320  17.627  0.00  0.00    +0.000 NA
ATOM     12  C   UNL     1       6.945   5.202  17.130  0.00  0.00    +0.000 C 
ATOM     13  C   UNL     1       6.065   4.321  16.224  0.00  0.00    +0.000 C 
ATOM     14  C   UNL     1       4.628   4.844  16.463  0.00  0.00    +0.000 C 
ATOM     15  H   UNL     1       5.896   6.121  18.601  0.00  0.00    +0.000 HD
ENDROOT
BRANCH  13  16
ATOM     16  C   UNL     1       6.437   4.336  14.743  0.00  0.00    +0.000 A 
ATOM     17  C   UNL     1       5.701   3.539  13.850  0.00  0.00    +0.000 A 
ATOM     18  C   UNL     1       6.004   3.517  12.487  0.00  0.00    +0.000 A 
ATOM     19  C   UNL     1       7.048   4.295  11.992  0.00  0.00    +0.000 A 
ATOM     20  C   UNL     1       7.782   5.099  12.859  0.00  0.00    +0.000 A 
ATOM     21  C   UNL     1       7.473   5.127  14.221  0.00  0.00    +0.000 A 
ENDBRANCH  13  16
TORSDOF 1
ENDMDL
MODEL 3
REMARK VINA RESULT:      -7.1      3.154      6.968
REMARK  Name = 
REMARK  1 active torsions:
REMARK  status: ('A' for Active; 'I' for Inactive)
REMARK    1  A    between atoms: C_13  and  C_14
REMARK                            x       y       z     vdW  Elec       q    Type
REMARK                         _______ _______ _______ _____ _____    ______ ____
ROOT
ATOM      1 CL   UNL     1       5.913   3.116  15.652  0.00  0.00    +0.000 Cl
ATOM      2  C   UNL     1       5.426   4.617  16.363  0.00  0.00    +0.000 A 
ATOM      3  C   UNL     1       6.334   5.675  16.299  0.00  0.00    +0.000 A 
ATOM      4  C   UNL     1       6.007   6.903  16.854  0.00  0.00    +0.000 A 
ATOM      5  C   UNL     1       4.781   7.070  17.498  0.00  0.00    +0.000 A 
ATOM      6  C   UNL     1       3.863   6.008  17.610  0.00  0.00    +0.000 A 
ATOM      7  C   UNL     1       4.170   4.774  16.987  0.00  0.00    +0.000 A 
ATOM      8  C   UNL     1       3.194   3.620  17.020  0.00  0.00    +0.000 C 
ATOM      9  C   UNL     1       1.771   4.034  17.374  0.00  0.00    +0.000 C 
ATOM     10  C   UNL     1       1.716   4.978  18.567  0.00  0.00    +0.000 C 
ATOM     11  N   UNL     1       2.221   4.386  19.820  0.00  0.00    +0.000 NA
ATOM     12  C   UNL     1       2.656   5.515  20.660  0.00  0.00    +0.000 C 
ATOM     13  C   UNL     1       2.701   6.781  19.783  0.00  0.00    +0.000 C 
ATOM     14  C   UNL     1       2.540   6.250  18.339  0.00  0.00    +0.000 C 
ATOM     15  H   UNL     1       3.045   3.818  19.621  0.00  0.00    +0.000 HD
ENDROOT
BRANCH  13  16
ATOM     16  C   UNL     1       1.655   7.841  20.120  0.00  0.00    +0.000 A 
ATOM     17  C   UNL     1       1.416   8.875  19.198  0.00  0.00    +0.000 A 
ATOM     18  C   UNL     1       0.471   9.869  19.460  0.00  0.00    +0.000 A 
ATOM     19  C   UNL     1      -0.254   9.846  20.650  0.00  0.00    +0.000 A 
ATOM     20  C   UNL     1      -0.038   8.825  21.570  0.00  0.00    +0.000 A 
ATOM     21  C   UNL     1       0.901   7.825  21.303  0.00  0.00    +0.000 A 
ENDBRANCH  13  16
TORSDOF 1
ENDMDL
MODEL 4
REMARK VINA RESULT:      -7.1      3.166      6.996
REMARK  Name = 
REMARK  1 active torsions:
REMARK  status: ('A' for Active; 'I' for Inactive)
REMARK    1  A    between atoms: C_13  and  C_14
REMARK                            x       y       z     vdW  Elec       q    Type
REMARK                         _______ _______ _______ _____ _____    ______ ____
ROOT
ATOM      1 CL   UNL     1       5.939   3.074  15.733  0.00  0.00    +0.000 Cl
ATOM      2  C   UNL     1       5.452   4.588  16.418  0.00  0.00    +0.000 A 
ATOM      3  C   UNL     1       6.372   5.636  16.361  0.00  0.00    +0.000 A 
ATOM      4  C   UNL     1       6.046   6.874  16.895  0.00  0.00    +0.000 A 
ATOM      5  C   UNL     1       4.808   7.059  17.512  0.00  0.00    +0.000 A 
ATOM      6  C   UNL     1       3.878   6.008  17.616  0.00  0.00    +0.000 A 
ATOM      7  C   UNL     1       4.186   4.764  17.014  0.00  0.00    +0.000 A 
ATOM      8  C   UNL     1       3.197   3.620  17.039  0.00  0.00    +0.000 C 
ATOM      9  C   UNL     1       1.772   4.051  17.359  0.00  0.00    +0.000 C 
ATOM     10  C   UNL     1       1.701   5.009  18.540  0.00  0.00    +0.000 C 
ATOM     11  N   UNL     1       2.175   4.426  19.811  0.00  0.00    +0.000 NA
ATOM     12  C   UNL     1       2.604   5.561  20.646  0.00  0.00    +0.000 C 
ATOM     13  C   UNL     1       2.679   6.816  19.756  0.00  0.00    +0.000 C 
ATOM     14  C   UNL     1       2.543   6.270  18.315  0.00  0.00    +0.000 C 
ATOM     15  H   UNL     1       2.997   3.849  19.634  0.00  0.00    +0.000 HD
ENDROOT
BRANCH  13  16
ATOM     16  C   UNL     1       1.637   7.890  20.060  0.00  0.00    +0.000 A 
ATOM     17  C   UNL     1       0.944   7.837  21.281  0.00  0.00    +0.000 A 
ATOM     18  C   UNL     1      -0.019   8.795  21.605  0.00  0.00    +0.000 A 
ATOM     19  C   UNL     1      -0.304   9.826  20.713  0.00  0.00    +0.000 A 
ATOM     20  C   UNL     1       0.380   9.902  19.503  0.00  0.00    +0.000 A 
ATOM     21  C   UNL     1       1.349   8.948  19.183  0.00  0.00    +0.000 A 
ENDBRANCH  13  16
TORSDOF 1
ENDMDL
MODEL 5
REMARK VINA RESULT:      -7.0      2.482      6.052
REMARK  Name = 
REMARK  1 active torsions:
REMARK  status: ('A' for Active; 'I' for Inactive)
REMARK    1  A    between atoms: C_13  and  C_14
REMARK                            x       y       z     vdW  Elec       q    Type
REMARK                         _______ _______ _______ _____ _____    ______ ____
ROOT
ATOM      1 CL   UNL     1       8.708   5.511  13.360  0.00  0.00    +0.000 Cl
ATOM      2  C   UNL     1       7.202   4.812  13.852  0.00  0.00    +0.000 A 
ATOM      3  C   UNL     1       6.403   4.257  12.851  0.00  0.00    +0.000 A 
ATOM      4  C   UNL     1       5.181   3.685  13.177  0.00  0.00    +0.000 A 
ATOM      5  C   UNL     1       4.744   3.691  14.502  0.00  0.00    +0.000 A 
ATOM      6  C   UNL     1       5.513   4.279  15.524  0.00  0.00    +0.000 A 
ATOM      7  C   UNL     1       6.788   4.804  15.200  0.00  0.00    +0.000 A 
ATOM      8  C   UNL     1       7.684   5.388  16.269  0.00  0.00    +0.000 C 
ATOM      9  C   UNL     1       7.296   4.978  17.683  0.00  0.00    +0.000 C 
ATOM     10  C   UNL     1       5.801   5.101  17.939  0.00  0.00    +0.000 C 
ATOM     11  N   UNL     1       5.288   6.480  17.831  0.00  0.00    +0.000 NA
ATOM     12  C   UNL     1       3.856   6.359  17.506  0.00  0.00    +0.000 C 
ATOM     13  C   UNL     1       3.571   4.898  17.109  0.00  0.00    +0.000 C 
ATOM     14  C   UNL     1       4.974   4.264  16.955  0.00  0.00    +0.000 C 
ATOM     15  H   UNL     1       5.740   6.950  17.047  0.00  0.00    +0.000 HD
ENDROOT
BRANCH  13  16
ATOM     16  C   UNL     1       2.698   4.118  18.089  0.00  0.00    +0.000 A 
ATOM     17  C   UNL     1       2.197   4.778  19.225  0.00  0.00    +0.000 A 
ATOM     18  C   UNL     1       1.395   4.107  20.151  0.00  0.00    +0.000 A 
ATOM     19  C   UNL     1       1.077   2.765  19.957  0.00  0.00    +0.000 A 
ATOM     20  C   UNL     1       1.554   2.098  18.832  0.00  0.00    +0.000 A 
ATOM     21  C   UNL     1       2.350   2.772  17.901  0.00  0.00    +0.000 A 
ENDBRANCH  13  16
TORSDOF 1
ENDMDL
MODEL 6
REMARK VINA RESULT:      -6.9      2.499      6.122
REMARK  Name = 
REMARK  1 active torsions:
REMARK  status: ('A' for Active; 'I' for Inactive)
REMARK    1  A    between atoms: C_13  and  C_14
REMARK                            x       y       z     vdW  Elec       q    Type
REMARK                         _______ _______ _______ _____ _____    ______ ____
ROOT
ATOM      1 CL   UNL     1       8.520   5.755  13.673  0.00  0.00    +0.000 Cl
ATOM      2  C   UNL     1       7.084   4.978  14.251  0.00  0.00    +0.000 A 
ATOM      3  C   UNL     1       6.366   4.208  13.335  0.00  0.00    +0.000 A 
ATOM      4  C   UNL     1       5.204   3.563  13.733  0.00  0.00    +0.000 A 
ATOM      5  C   UNL     1       4.743   3.707  15.042  0.00  0.00    +0.000 A 
ATOM      6  C   UNL     1       5.429   4.508  15.975  0.00  0.00    +0.000 A 
ATOM      7  C   UNL     1       6.648   5.113  15.586  0.00  0.00    +0.000 A 
ATOM      8  C   UNL     1       7.459   5.931  16.566  0.00  0.00    +0.000 C 
ATOM      9  C   UNL     1       7.089   5.683  18.022  0.00  0.00    +0.000 C 
ATOM     10  C   UNL     1       5.584   5.683  18.252  0.00  0.00    +0.000 C 
ATOM     11  N   UNL     1       4.934   6.973  17.949  0.00  0.00    +0.000 NA
ATOM     12  C   UNL     1       3.528   6.659  17.638  0.00  0.00    +0.000 C 
ATOM     13  C   UNL     1       3.403   5.136  17.449  0.00  0.00    +0.000 C 
ATOM     14  C   UNL     1       4.866   4.637  17.391  0.00  0.00    +0.000 C 
ATOM     15  H   UNL     1       5.350   7.375  17.109  0.00  0.00    +0.000 HD
ENDROOT
BRANCH  13  16
ATOM     16  C   UNL     1       2.596   4.412  18.525  0.00  0.00    +0.000 A 
ATOM     17  C   UNL     1       1.962   3.201  18.197  0.00  0.00    +0.000 A 
ATOM     18  C   UNL     1       1.212   2.503  19.146  0.00  0.00    +0.000 A 
ATOM     19  C   UNL     1       1.084   3.002  20.440  0.00  0.00    +0.000 A 
ATOM     20  C   UNL     1       1.714   4.194  20.786  0.00  0.00    +0.000 A 
ATOM     21  C   UNL     1       2.472   4.888  19.839  0.00  0.00    +0.000 A 
ENDBRANCH  13  16
TORSDOF 1
ENDMDL
MODEL 7
REMARK VINA RESULT:      -6.8      2.435      4.358
REMARK  Name = 
REMARK  1 active torsions:
REMARK  status: ('A' for Active; 'I' for Inactive)
REMARK    1  A    between atoms: C_13  and  C_14
REMARK                            x       y       z     vdW  Elec       q    Type
REMARK                         _______ _______ _______ _____ _____    ______ ____
ROOT
ATOM      1 CL   UNL     1      -0.411   8.677  21.448  0.00  0.00    +0.000 Cl
ATOM      2  C   UNL     1       0.791   8.524  20.211  0.00  0.00    +0.000 A 
ATOM      3  C   UNL     1       0.927   9.592  19.323  0.00  0.00    +0.000 A 
ATOM      4  C   UNL     1       1.868   9.531  18.306  0.00  0.00    +0.000 A 
ATOM      5  C   UNL     1       2.658   8.391  18.158  0.00  0.00    +0.000 A 
ATOM      6  C   UNL     1       2.515   7.285  19.018  0.00  0.00    +0.000 A 
ATOM      7  C   UNL     1       1.599   7.374  20.094  0.00  0.00    +0.000 A 
ATOM      8  C   UNL     1       1.450   6.242  21.086  0.00  0.00    +0.000 C 
ATOM      9  C   UNL     1       2.615   5.261  21.073  0.00  0.00    +0.000 C 
ATOM     10  C   UNL     1       3.020   4.853  19.664  0.00  0.00    +0.000 C 
ATOM     11  N   UNL     1       1.964   4.138  18.922  0.00  0.00    +0.000 NA
ATOM     12  C   UNL     1       2.252   4.351  17.493  0.00  0.00    +0.000 C 
ATOM     13  C   UNL     1       3.313   5.460  17.373  0.00  0.00    +0.000 C 
ATOM     14  C   UNL     1       3.402   6.059  18.797  0.00  0.00    +0.000 C 
ATOM     15  H   UNL     1       1.060   4.568  19.119  0.00  0.00    +0.000 HD
ENDROOT
BRANCH  13  16
ATOM     16  C   UNL     1       4.677   5.002  16.862  0.00  0.00    +0.000 A 
ATOM     17  C   UNL     1       5.823   5.317  17.612  0.00  0.00    +0.000 A 
ATOM     18  C   UNL     1       7.093   4.921  17.185  0.00  0.00    +0.000 A 
ATOM     19  C   UNL     1       7.239   4.201  16.002  0.00  0.00    +0.000 A 
ATOM     20  C   UNL     1       6.114   3.870  15.252  0.00  0.00    +0.000 A 
ATOM     21  C   UNL     1       4.843   4.259  15.683  0.00  0.00    +0.000 A 
ENDBRANCH  13  16
TORSDOF 1
ENDMDL
MODEL 8
REMARK VINA RESULT:      -6.7      2.505      4.506
REMARK  Name = 
REMARK  1 active torsions:
REMARK  status: ('A' for Active; 'I' for Inactive)
REMARK    1  A    between atoms: C_13  and  C_14
REMARK                            x       y       z     vdW  Elec       q    Type
REMARK                         _______ _______ _______ _____ _____    ______ ____
ROOT
ATOM      1 CL   UNL     1      -0.533   8.641  21.560  0.00  0.00    +0.000 Cl
ATOM      2  C   UNL     1       0.661   8.567  20.308  0.00  0.00    +0.000 A 
ATOM      3  C   UNL     1       0.742   9.658  19.442  0.00  0.00    +0.000 A 
ATOM      4  C   UNL     1       1.674   9.660  18.415  0.00  0.00    +0.000 A 
ATOM      5  C   UNL     1       2.510   8.557  18.234  0.00  0.00    +0.000 A 
ATOM      6  C   UNL     1       2.422   7.428  19.070  0.00  0.00    +0.000 A 
ATOM      7  C   UNL     1       1.515   7.454  20.157  0.00  0.00    +0.000 A 
ATOM      8  C   UNL     1       1.425   6.296  21.125  0.00  0.00    +0.000 C 
ATOM      9  C   UNL     1       2.630   5.365  21.078  0.00  0.00    +0.000 C 
ATOM     10  C   UNL     1       3.036   5.005  19.656  0.00  0.00    +0.000 C 
ATOM     11  N   UNL     1       2.002   4.263  18.909  0.00  0.00    +0.000 NA
ATOM     12  C   UNL     1       2.265   4.519  17.482  0.00  0.00    +0.000 C 
ATOM     13  C   UNL     1       3.278   5.675  17.377  0.00  0.00    +0.000 C 
ATOM     14  C   UNL     1       3.357   6.245  18.813  0.00  0.00    +0.000 C 
ATOM     15  H   UNL     1       1.083   4.650  19.124  0.00  0.00    +0.000 HD
ENDROOT
BRANCH  13  16
ATOM     16  C   UNL     1       4.654   5.286  16.841  0.00  0.00    +0.000 A 
ATOM     17  C   UNL     1       4.771   4.132  16.048  0.00  0.00    +0.000 A 
ATOM     18  C   UNL     1       6.008   3.734  15.535  0.00  0.00    +0.000 A 
ATOM     19  C   UNL     1       7.150   4.484  15.806  0.00  0.00    +0.000 A 
ATOM     20  C   UNL     1       7.052   5.635  16.582  0.00  0.00    +0.000 A 
ATOM     21  C   UNL     1       5.813   6.039  17.087  0.00  0.00    +0.000 A 
ENDBRANCH  13  16
TORSDOF 1
ENDMDL
MODEL 9
REMARK VINA RESULT:      -6.7      3.783      6.424
REMARK  Name = 
REMARK  1 active torsions:
REMARK  status: ('A' for Active; 'I' for Inactive)
REMARK    1  A    between atoms: C_13  and  C_14
REMARK                            x       y       z     vdW  Elec       q    Type
REMARK                         _______ _______ _______ _____ _____    ______ ____
ROOT
ATOM      1 CL   UNL     1       4.065   0.990  18.190  0.00  0.00    +0.000 Cl
ATOM      2  C   UNL     1       2.977   2.205  18.771  0.00  0.00    +0.000 A 
ATOM      3  C   UNL     1       1.660   1.814  19.015  0.00  0.00    +0.000 A 
ATOM      4  C   UNL     1       0.737   2.740  19.478  0.00  0.00    +0.000 A 
ATOM      5  C   UNL     1       1.122   4.067  19.673  0.00  0.00    +0.000 A 
ATOM      6  C   UNL     1       2.435   4.495  19.399  0.00  0.00    +0.000 A 
ATOM      7  C   UNL     1       3.392   3.536  18.989  0.00  0.00    +0.000 A 
ATOM      8  C   UNL     1       4.832   3.927  18.742  0.00  0.00    +0.000 C 
ATOM      9  C   UNL     1       5.217   5.262  19.366  0.00  0.00    +0.000 C 
ATOM     10  C   UNL     1       4.185   6.350  19.105  0.00  0.00    +0.000 C 
ATOM     11  N   UNL     1       4.012   6.678  17.677  0.00  0.00    +0.000 NA
ATOM     12  C   UNL     1       2.655   7.239  17.548  0.00  0.00    +0.000 C 
ATOM     13  C   UNL     1       1.891   6.960  18.855  0.00  0.00    +0.000 C 
ATOM     14  C   UNL     1       2.794   5.965  19.621  0.00  0.00    +0.000 C 
ATOM     15  H   UNL     1       4.042   5.821  17.125  0.00  0.00    +0.000 HD
ENDROOT
BRANCH  13  16
ATOM     16  C   UNL     1       1.565   8.195  19.692  0.00  0.00    +0.000 A 
ATOM     17  C   UNL     1       1.336   9.417  19.037  0.00  0.00    +0.000 A 
ATOM     18  C   UNL     1       1.036  10.575  19.759  0.00  0.00    +0.000 A 
ATOM     19  C   UNL     1       0.957  10.530  21.149  0.00  0.00    +0.000 A 
ATOM     20  C   UNL     1       1.170   9.327  21.814  0.00  0.00    +0.000 A 
ATOM     21  C   UNL     1       1.461   8.167  21.092  0.00  0.00    +0.000 A 
ENDBRANCH  13  16
TORSDOF 1
ENDMDL
