MODEL 1
REMARK VINA RESULT:      -7.0      0.000      0.000
REMARK  Name = 
REMARK  4 active torsions:
REMARK  status: ('A' for Active; 'I' for Inactive)
REMARK    1  A    between atoms: C_1  and  C_2
REMARK    2  A    between atoms: C_2  and  C_12
REMARK    3  A    between atoms: N_3  and  N_4
REMARK    4  A    between atoms: C_5  and  C_7
REMARK                            x       y       z     vdW  Elec       q    Type
REMARK                         _______ _______ _______ _____ _____    ______ ____
ROOT
ATOM      1  C   UNL     1       4.957   5.804  16.559  0.00  0.00    +0.000 C 
ATOM      2  C   UNL     1       5.337   4.458  15.970  0.00  0.00    +0.000 C 
ATOM      3  N   UNL     1       5.073   3.298  16.498  0.00  0.00    +0.000 NA
ENDROOT
BRANCH   2   4
ATOM      4  C   UNL     1       6.074   4.475  14.665  0.00  0.00    +0.000 A 
ATOM      5  C   UNL     1       5.697   3.694  13.568  0.00  0.00    +0.000 A 
ATOM      6  C   UNL     1       6.429   3.765  12.383  0.00  0.00    +0.000 A 
ATOM      7  C   UNL     1       7.518   4.619  12.331  0.00  0.00    +0.000 A 
ATOM      8  N   UNL     1       7.912   5.388  13.365  0.00  0.00    +0.000 NA
ATOM      9  C   UNL     1       7.184   5.302  14.508  0.00  0.00    +0.000 A 
ENDBRANCH   2   4
BRANCH   3  10
ATOM     10  N   UNL     1       4.424   3.211  17.686  0.00  0.00    +0.000 N 
ATOM     11  C   UNL     1       3.038   3.127  17.758  0.00  0.00    +0.000 C 
ATOM     12  O   UNL     1       2.301   3.133  16.775  0.00  0.00    +0.000 OA
ATOM     13  H   UNL     1       4.936   3.169  18.556  0.00  0.00    +0.000 HD
BRANCH  11  14
ATOM     14  C   UNL     1       2.519   3.031  19.125  0.00  0.00    +0.000 A 
ATOM     15  C   UNL     1       1.212   3.213  19.540  0.00  0.00    +0.000 A 
ATOM     16  C   UNL     1       1.053   3.046  20.948  0.00  0.00    +0.000 A 
ATOM     17  C   UNL     1       2.244   2.744  21.568  0.00  0.00    +0.000 A 
ATOM     18  S   UNL     1       3.538   2.662  20.459  0.00  0.00    +0.000 S 
ENDBRANCH  11  14
ENDBRANCH   3  10
TORSDOF 3
ENDMDL
MODEL 2
REMARK VINA RESULT:      -6.9      0.787      1.010
REMARK  Name = 
REMARK  4 active torsions:
REMARK  status: ('A' for Active; 'I' for Inactive)
REMARK    1  A    between atoms: C_1  and  C_2
REMARK    2  A    between atoms: C_2  and  C_12
REMARK    3  A    between atoms: N_3  and  N_4
REMARK    4  A    between atoms: C_5  and  C_7
REMARK                            x       y       z     vdW  Elec       q    Type
REMARK                         _______ _______ _______ _____ _____    ______ ____
ROOT
ATOM      1  C   UNL     1       4.944   5.853  16.607  0.00  0.00    +0.000 C 
ATOM      2  C   UNL     1       5.363   4.508  16.040  0.00  0.00    +0.000 C 
ATOM      3  N   UNL     1       5.141   3.351  16.593  0.00  0.00    +0.000 NA
ENDROOT
BRANCH   2   4
ATOM      4  C   UNL     1       6.089   4.524  14.729  0.00  0.00    +0.000 A 
ATOM      5  C   UNL     1       5.696   3.749  13.634  0.00  0.00    +0.000 A 
ATOM      6  C   UNL     1       6.419   3.818  12.442  0.00  0.00    +0.000 A 
ATOM      7  C   UNL     1       7.513   4.665  12.383  0.00  0.00    +0.000 A 
ATOM      8  N   UNL     1       7.921   5.428  13.415  0.00  0.00    +0.000 NA
ATOM      9  C   UNL     1       7.203   5.343  14.564  0.00  0.00    +0.000 A 
ENDBRANCH   2   4
BRANCH   3  10
ATOM     10  N   UNL     1       4.506   3.266  17.788  0.00  0.00    +0.000 N 
ATOM     11  C   UNL     1       3.141   3.012  17.874  0.00  0.00    +0.000 C 
ATOM     12  O   UNL     1       2.412   2.855  16.897  0.00  0.00    +0.000 OA
ATOM     13  H   UNL     1       5.015   3.351  18.656  0.00  0.00    +0.000 HD
BRANCH  11  14
ATOM     14  C   UNL     1       2.634   2.947  19.248  0.00  0.00    +0.000 A 
ATOM     15  C   UNL     1       3.361   2.703  20.398  0.00  0.00    +0.000 A 
ATOM     16  C   UNL     1       2.552   2.709  21.573  0.00  0.00    +0.000 A 
ATOM     17  C   UNL     1       1.230   2.956  21.285  0.00  0.00    +0.000 A 
ATOM     18  S   UNL     1       0.970   3.179  19.614  0.00  0.00    +0.000 S 
ENDBRANCH  11  14
ENDBRANCH   3  10
TORSDOF 3
ENDMDL
MODEL 3
REMARK VINA RESULT:      -6.5      0.803      1.217
REMARK  Name = 
REMARK  4 active torsions:
REMARK  status: ('A' for Active; 'I' for Inactive)
REMARK    1  A    between atoms: C_1  and  C_2
REMARK    2  A    between atoms: C_2  and  C_12
REMARK    3  A    between atoms: N_3  and  N_4
REMARK    4  A    between atoms: C_5  and  C_7
REMARK                            x       y       z     vdW  Elec       q    Type
REMARK                         _______ _______ _______ _____ _____    ______ ____
ROOT
ATOM      1  C   UNL     1       5.782   5.758  16.696  0.00  0.00    +0.000 C 
ATOM      2  C   UNL     1       5.597   4.483  15.893  0.00  0.00    +0.000 C 
ATOM      3  N   UNL     1       4.959   3.421  16.295  0.00  0.00    +0.000 NA
ENDROOT
BRANCH   2   4
ATOM      4  C   UNL     1       6.198   4.455  14.521  0.00  0.00    +0.000 A 
ATOM      5  C   UNL     1       7.321   5.210  14.168  0.00  0.00    +0.000 A 
ATOM      6  C   UNL     1       7.829   5.129  12.870  0.00  0.00    +0.000 A 
ATOM      7  C   UNL     1       7.196   4.293  11.965  0.00  0.00    +0.000 A 
ATOM      8  N   UNL     1       6.114   3.550  12.268  0.00  0.00    +0.000 NA
ATOM      9  C   UNL     1       5.639   3.644  13.536  0.00  0.00    +0.000 A 
ENDBRANCH   2   4
BRANCH   3  10
ATOM     10  N   UNL     1       4.407   3.373  17.533  0.00  0.00    +0.000 N 
ATOM     11  C   UNL     1       3.039   3.200  17.717  0.00  0.00    +0.000 C 
ATOM     12  O   UNL     1       2.235   3.086  16.796  0.00  0.00    +0.000 OA
ATOM     13  H   UNL     1       4.982   3.428  18.362  0.00  0.00    +0.000 HD
BRANCH  11  14
ATOM     14  C   UNL     1       2.630   3.165  19.124  0.00  0.00    +0.000 A 
ATOM     15  C   UNL     1       1.443   3.626  19.663  0.00  0.00    +0.000 A 
ATOM     16  C   UNL     1       1.368   3.436  21.075  0.00  0.00    +0.000 A 
ATOM     17  C   UNL     1       2.502   2.838  21.573  0.00  0.00    +0.000 A 
ATOM     18  S   UNL     1       3.642   2.507  20.348  0.00  0.00    +0.000 S 
ENDBRANCH  11  14
ENDBRANCH   3  10
TORSDOF 3
ENDMDL
MODEL 4
REMARK VINA RESULT:      -6.4      1.068      1.551
REMARK  Name = 
REMARK  4 active torsions:
REMARK  status: ('A' for Active; 'I' for Inactive)
REMARK    1  A    between atoms: C_1  and  C_2
REMARK    2  A    between atoms: C_2  and  C_12
REMARK    3  A    between atoms: N_3  and  N_4
REMARK    4  A    between atoms: C_5  and  C_7
REMARK                            x       y       z     vdW  Elec       q    Type
REMARK                         _______ _______ _______ _____ _____    ______ ____
ROOT
ATOM      1  C   UNL     1       5.532   5.674  16.773  0.00  0.00    +0.000 C 
ATOM      2  C   UNL     1       5.517   4.375  15.987  0.00  0.00    +0.000 C 
ATOM      3  N   UNL     1       4.998   3.252  16.390  0.00  0.00    +0.000 NA
ENDROOT
BRANCH   2   4
ATOM      4  C   UNL     1       6.150   4.400  14.629  0.00  0.00    +0.000 A 
ATOM      5  C   UNL     1       7.248   5.208  14.317  0.00  0.00    +0.000 A 
ATOM      6  C   UNL     1       7.789   5.175  13.031  0.00  0.00    +0.000 A 
ATOM      7  C   UNL     1       7.214   4.331  12.096  0.00  0.00    +0.000 A 
ATOM      8  N   UNL     1       6.158   3.537  12.358  0.00  0.00    +0.000 NA
ATOM      9  C   UNL     1       5.649   3.586  13.616  0.00  0.00    +0.000 A 
ENDBRANCH   2   4
BRANCH   3  10
ATOM     10  N   UNL     1       4.425   3.156  17.616  0.00  0.00    +0.000 N 
ATOM     11  C   UNL     1       3.044   3.104  17.776  0.00  0.00    +0.000 C 
ATOM     12  O   UNL     1       2.246   3.147  16.843  0.00  0.00    +0.000 OA
ATOM     13  H   UNL     1       4.990   3.084  18.451  0.00  0.00    +0.000 HD
BRANCH  11  14
ATOM     14  C   UNL     1       2.612   2.992  19.171  0.00  0.00    +0.000 A 
ATOM     15  C   UNL     1       3.414   2.843  20.288  0.00  0.00    +0.000 A 
ATOM     16  C   UNL     1       2.664   2.765  21.499  0.00  0.00    +0.000 A 
ATOM     17  C   UNL     1       1.310   2.853  21.272  0.00  0.00    +0.000 A 
ATOM     18  S   UNL     1       0.951   3.031  19.614  0.00  0.00    +0.000 S 
ENDBRANCH  11  14
ENDBRANCH   3  10
TORSDOF 3
ENDMDL
MODEL 5
REMARK VINA RESULT:      -6.3      4.570      5.000
REMARK  Name = 
REMARK  4 active torsions:
REMARK  status: ('A' for Active; 'I' for Inactive)
REMARK    1  A    between atoms: C_1  and  C_2
REMARK    2  A    between atoms: C_2  and  C_12
REMARK    3  A    between atoms: N_3  and  N_4
REMARK    4  A    between atoms: C_5  and  C_7
REMARK                            x       y       z     vdW  Elec       q    Type
REMARK                         _______ _______ _______ _____ _____    ______ ____
ROOT
ATOM      1  C   UNL     1       4.190   5.410  19.338  0.00  0.00    +0.000 C 
ATOM      2  C   UNL     1       4.201   6.126  18.000  0.00  0.00    +0.000 C 
ATOM      3  N   UNL     1       3.473   7.158  17.686  0.00  0.00    +0.000 NA
ENDROOT
BRANCH   2   4
ATOM      4  C   UNL     1       5.138   5.595  16.957  0.00  0.00    +0.000 A 
ATOM      5  C   UNL     1       4.823   4.506  16.137  0.00  0.00    +0.000 A 
ATOM      6  C   UNL     1       5.744   4.069  15.183  0.00  0.00    +0.000 A 
ATOM      7  C   UNL     1       6.953   4.737  15.079  0.00  0.00    +0.000 A 
ATOM      8  N   UNL     1       7.291   5.790  15.849  0.00  0.00    +0.000 NA
ATOM      9  C   UNL     1       6.379   6.197  16.770  0.00  0.00    +0.000 A 
ENDBRANCH   2   4
BRANCH   3  10
ATOM     10  N   UNL     1       2.592   7.678  18.577  0.00  0.00    +0.000 N 
ATOM     11  C   UNL     1       1.985   8.912  18.370  0.00  0.00    +0.000 C 
ATOM     12  O   UNL     1       2.197   9.622  17.390  0.00  0.00    +0.000 OA
ATOM     13  H   UNL     1       2.323   7.164  19.405  0.00  0.00    +0.000 HD
BRANCH  11  14
ATOM     14  C   UNL     1       1.057   9.304  19.434  0.00  0.00    +0.000 A 
ATOM     15  C   UNL     1       0.101  10.303  19.388  0.00  0.00    +0.000 A 
ATOM     16  C   UNL     1      -0.634  10.419  20.605  0.00  0.00    +0.000 A 
ATOM     17  C   UNL     1      -0.217   9.507  21.546  0.00  0.00    +0.000 A 
ATOM     18  S   UNL     1       1.048   8.521  20.965  0.00  0.00    +0.000 S 
ENDBRANCH  11  14
ENDBRANCH   3  10
TORSDOF 3
ENDMDL
MODEL 6
REMARK VINA RESULT:      -6.3      1.404      1.427
REMARK  Name = 
REMARK  4 active torsions:
REMARK  status: ('A' for Active; 'I' for Inactive)
REMARK    1  A    between atoms: C_1  and  C_2
REMARK    2  A    between atoms: C_2  and  C_12
REMARK    3  A    between atoms: N_3  and  N_4
REMARK    4  A    between atoms: C_5  and  C_7
REMARK                            x       y       z     vdW  Elec       q    Type
REMARK                         _______ _______ _______ _____ _____    ______ ____
ROOT
ATOM      1  C   UNL     1       4.957   6.248  16.221  0.00  0.00    +0.000 C 
ATOM      2  C   UNL     1       5.196   4.838  15.713  0.00  0.00    +0.000 C 
ATOM      3  N   UNL     1       4.722   3.750  16.248  0.00  0.00    +0.000 NA
ENDROOT
BRANCH   2   4
ATOM      4  C   UNL     1       6.047   4.695  14.488  0.00  0.00    +0.000 A 
ATOM      5  C   UNL     1       5.724   3.834  13.434  0.00  0.00    +0.000 A 
ATOM      6  C   UNL     1       6.562   3.757  12.321  0.00  0.00    +0.000 A 
ATOM      7  C   UNL     1       7.699   4.547  12.297  0.00  0.00    +0.000 A 
ATOM      8  N   UNL     1       8.043   5.389  13.291  0.00  0.00    +0.000 NA
ATOM      9  C   UNL     1       7.212   5.447  14.363  0.00  0.00    +0.000 A 
ENDBRANCH   2   4
BRANCH   3  10
ATOM     10  N   UNL     1       3.960   3.805  17.369  0.00  0.00    +0.000 N 
ATOM     11  C   UNL     1       4.527   3.854  18.638  0.00  0.00    +0.000 C 
ATOM     12  O   UNL     1       5.738   3.842  18.845  0.00  0.00    +0.000 OA
ATOM     13  H   UNL     1       2.952   3.848  17.311  0.00  0.00    +0.000 HD
BRANCH  11  14
ATOM     14  C   UNL     1       3.547   3.919  19.725  0.00  0.00    +0.000 A 
ATOM     15  C   UNL     1       2.791   5.012  20.107  0.00  0.00    +0.000 A 
ATOM     16  C   UNL     1       1.931   4.729  21.209  0.00  0.00    +0.000 A 
ATOM     17  C   UNL     1       2.058   3.429  21.639  0.00  0.00    +0.000 A 
ATOM     18  S   UNL     1       3.201   2.560  20.719  0.00  0.00    +0.000 S 
ENDBRANCH  11  14
ENDBRANCH   3  10
TORSDOF 3
ENDMDL
MODEL 7
REMARK VINA RESULT:      -6.2      1.389      1.510
REMARK  Name = 
REMARK  4 active torsions:
REMARK  status: ('A' for Active; 'I' for Inactive)
REMARK    1  A    between atoms: C_1  and  C_2
REMARK    2  A    between atoms: C_2  and  C_12
REMARK    3  A    between atoms: N_3  and  N_4
REMARK    4  A    between atoms: C_5  and  C_7
REMARK                            x       y       z     vdW  Elec       q    Type
REMARK                         _______ _______ _______ _____ _____    ______ ____
ROOT
ATOM      1  C   UNL     1       4.801   6.058  16.400  0.00  0.00    +0.000 C 
ATOM      2  C   UNL     1       5.136   4.690  15.835  0.00  0.00    +0.000 C 
ATOM      3  N   UNL     1       4.717   3.551  16.308  0.00  0.00    +0.000 NA
ENDROOT
BRANCH   2   4
ATOM      4  C   UNL     1       6.021   4.656  14.626  0.00  0.00    +0.000 A 
ATOM      5  C   UNL     1       5.759   3.847  13.515  0.00  0.00    +0.000 A 
ATOM      6  C   UNL     1       6.626   3.871  12.422  0.00  0.00    +0.000 A 
ATOM      7  C   UNL     1       7.730   4.706  12.474  0.00  0.00    +0.000 A 
ATOM      8  N   UNL     1       8.015   5.500  13.524  0.00  0.00    +0.000 NA
ATOM      9  C   UNL     1       7.157   5.459  14.576  0.00  0.00    +0.000 A 
ENDBRANCH   2   4
BRANCH   3  10
ATOM     10  N   UNL     1       3.928   3.509  17.410  0.00  0.00    +0.000 N 
ATOM     11  C   UNL     1       4.462   3.555  18.694  0.00  0.00    +0.000 C 
ATOM     12  O   UNL     1       5.666   3.627  18.931  0.00  0.00    +0.000 OA
ATOM     13  H   UNL     1       2.922   3.478  17.329  0.00  0.00    +0.000 HD
BRANCH  11  14
ATOM     14  C   UNL     1       3.456   3.507  19.758  0.00  0.00    +0.000 A 
ATOM     15  C   UNL     1       3.368   2.589  20.788  0.00  0.00    +0.000 A 
ATOM     16  C   UNL     1       2.260   2.835  21.652  0.00  0.00    +0.000 A 
ATOM     17  C   UNL     1       1.532   3.932  21.255  0.00  0.00    +0.000 A 
ATOM     18  S   UNL     1       2.181   4.658  19.855  0.00  0.00    +0.000 S 
ENDBRANCH  11  14
ENDBRANCH   3  10
TORSDOF 3
ENDMDL
MODEL 8
REMARK VINA RESULT:      -6.2      5.317      6.479
REMARK  Name = 
REMARK  4 active torsions:
REMARK  status: ('A' for Active; 'I' for Inactive)
REMARK    1  A    between atoms: C_1  and  C_2
REMARK    2  A    between atoms: C_2  and  C_12
REMARK    3  A    between atoms: N_3  and  N_4
REMARK    4  A    between atoms: C_5  and  C_7
REMARK                            x       y       z     vdW  Elec       q    Type
REMARK                         _______ _______ _______ _____ _____    ______ ____
ROOT
ATOM      1  C   UNL     1       1.833   5.121  20.604  0.00  0.00    +0.000 C 
ATOM      2  C   UNL     1       2.515   6.000  19.571  0.00  0.00    +0.000 C 
ATOM      3  N   UNL     1       2.460   7.300  19.527  0.00  0.00    +0.000 NA
ENDROOT
BRANCH   2   4
ATOM      4  C   UNL     1       3.325   5.303  18.520  0.00  0.00    +0.000 A 
ATOM      5  C   UNL     1       4.107   5.989  17.585  0.00  0.00    +0.000 A 
ATOM      6  C   UNL     1       4.839   5.273  16.636  0.00  0.00    +0.000 A 
ATOM      7  C   UNL     1       4.766   3.890  16.654  0.00  0.00    +0.000 A 
ATOM      8  N   UNL     1       4.026   3.194  17.539  0.00  0.00    +0.000 NA
ATOM      9  C   UNL     1       3.323   3.913  18.452  0.00  0.00    +0.000 A 
ENDBRANCH   2   4
BRANCH   3  10
ATOM     10  N   UNL     1       1.730   7.992  20.437  0.00  0.00    +0.000 N 
ATOM     11  C   UNL     1       1.069   9.168  20.102  0.00  0.00    +0.000 C 
ATOM     12  O   UNL     1       1.095   9.672  18.982  0.00  0.00    +0.000 OA
ATOM     13  H   UNL     1       1.618   7.652  21.382  0.00  0.00    +0.000 HD
BRANCH  11  14
ATOM     14  C   UNL     1       0.326   9.769  21.213  0.00  0.00    +0.000 A 
ATOM     15  C   UNL     1      -0.032   9.166  22.405  0.00  0.00    +0.000 A 
ATOM     16  C   UNL     1      -0.755  10.041  23.270  0.00  0.00    +0.000 A 
ATOM     17  C   UNL     1      -0.930  11.286  22.713  0.00  0.00    +0.000 A 
ATOM     18  S   UNL     1      -0.227  11.396  21.162  0.00  0.00    +0.000 S 
ENDBRANCH  11  14
ENDBRANCH   3  10
TORSDOF 3
ENDMDL
MODEL 9
REMARK VINA RESULT:      -6.2      5.903      8.640
REMARK  Name = 
REMARK  4 active torsions:
REMARK  status: ('A' for Active; 'I' for Inactive)
REMARK    1  A    between atoms: C_1  and  C_2
REMARK    2  A    between atoms: C_2  and  C_12
REMARK    3  A    between atoms: N_3  and  N_4
REMARK    4  A    between atoms: C_5  and  C_7
REMARK                            x       y       z     vdW  Elec       q    Type
REMARK                         _______ _______ _______ _____ _____    ______ ____
ROOT
ATOM      1  C   UNL     1       1.201   9.557  18.694  0.00  0.00    +0.000 C 
ATOM      2  C   UNL     1       1.106   9.022  20.111  0.00  0.00    +0.000 C 
ATOM      3  N   UNL     1       1.662   7.929  20.547  0.00  0.00    +0.000 NA
ENDROOT
BRANCH   2   4
ATOM      4  C   UNL     1       0.307   9.832  21.087  0.00  0.00    +0.000 A 
ATOM      5  C   UNL     1      -0.523  10.888  20.698  0.00  0.00    +0.000 A 
ATOM      6  C   UNL     1      -1.241  11.595  21.663  0.00  0.00    +0.000 A 
ATOM      7  C   UNL     1      -1.108  11.221  22.990  0.00  0.00    +0.000 A 
ATOM      8  N   UNL     1      -0.320  10.209  23.404  0.00  0.00    +0.000 NA
ATOM      9  C   UNL     1       0.369   9.536  22.446  0.00  0.00    +0.000 A 
ENDBRANCH   2   4
BRANCH   3  10
ATOM     10  N   UNL     1       2.384   7.140  19.712  0.00  0.00    +0.000 N 
ATOM     11  C   UNL     1       2.521   5.774  19.934  0.00  0.00    +0.000 C 
ATOM     12  O   UNL     1       2.019   5.182  20.886  0.00  0.00    +0.000 OA
ATOM     13  H   UNL     1       2.816   7.520  18.882  0.00  0.00    +0.000 HD
BRANCH  11  14
ATOM     14  C   UNL     1       3.329   5.087  18.922  0.00  0.00    +0.000 A 
ATOM     15  C   UNL     1       2.883   4.495  17.755  0.00  0.00    +0.000 A 
ATOM     16  C   UNL     1       3.940   3.912  16.994  0.00  0.00    +0.000 A 
ATOM     17  C   UNL     1       5.162   4.073  17.605  0.00  0.00    +0.000 A 
ATOM     18  S   UNL     1       5.033   4.921  19.079  0.00  0.00    +0.000 S 
ENDBRANCH  11  14
ENDBRANCH   3  10
TORSDOF 3
ENDMDL
