MODEL 1
REMARK VINA RESULT:      -8.4      0.000      0.000
REMARK  Name = 
REMARK  4 active torsions:
REMARK  status: ('A' for Active; 'I' for Inactive)
REMARK    1  A    between atoms: C_5  and  N_6
REMARK    2  A    between atoms: N_10  and  C_11
REMARK    3  A    between atoms: C_11  and  C_12
REMARK    4  A    between atoms: N_19  and  C_20
REMARK                            x       y       z     vdW  Elec       q    Type
REMARK                         _______ _______ _______ _____ _____    ______ ____
ROOT
ATOM      1  N   UNL     1       1.601  10.557  17.942  0.00  0.00    +0.000 N 
ATOM      2  C   UNL     1       2.222   9.308  18.133  0.00  0.00    +0.000 A 
ATOM      3  N   UNL     1       3.140   8.814  17.265  0.00  0.00    +0.000 NA
ATOM      4  C   UNL     1       3.643   7.567  17.464  0.00  0.00    +0.000 A 
ATOM      5  N   UNL     1       4.579   7.036  16.539  0.00  0.00    +0.000 N 
ATOM      6  N   UNL     1       3.212   6.815  18.507  0.00  0.00    +0.000 NA
ATOM      7  C   UNL     1       2.296   7.308  19.372  0.00  0.00    +0.000 A 
ATOM      8  N   UNL     1       1.782   6.523  20.446  0.00  0.00    +0.000 N 
ATOM      9  N   UNL     1       1.834   8.550  19.202  0.00  0.00    +0.000 NA
ATOM     10  H   UNL     1       2.169  11.350  17.583  0.00  0.00    +0.000 HD
ATOM     11  H   UNL     1       4.565   7.386  15.569  0.00  0.00    +0.000 HD
ATOM     12  H   UNL     1       1.342   6.998  21.251  0.00  0.00    +0.000 HD
ENDROOT
BRANCH   1  17
ATOM     13  F   UNL     1      -3.599  11.687  19.583  0.00  0.00    +0.000 F 
ATOM     14  C   UNL     1      -2.339  11.359  19.220  0.00  0.00    +0.000 A 
ATOM     15  C   UNL     1      -2.105  10.452  18.177  0.00  0.00    +0.000 A 
ATOM     16  C   UNL     1      -0.804  10.147  17.781  0.00  0.00    +0.000 A 
ATOM     17  C   UNL     1       0.277  10.770  18.413  0.00  0.00    +0.000 A 
ATOM     18  C   UNL     1       0.021  11.644  19.513  0.00  0.00    +0.000 A 
ATOM     19  C   UNL     1      -1.276  11.940  19.893  0.00  0.00    +0.000 A 
ENDBRANCH   1  17
BRANCH   8  20
ATOM     20  C   UNL     1       1.768   5.100  20.387  0.00  0.00    +0.000 A 
ATOM     21  C   UNL     1       2.255   4.324  21.451  0.00  0.00    +0.000 A 
ATOM     22  C   UNL     1       2.218   2.925  21.370  0.00  0.00    +0.000 A 
ATOM     23  C   UNL     1       1.678   2.302  20.240  0.00  0.00    +0.000 A 
ATOM     24  F   UNL     1       1.638   0.949  20.162  0.00  0.00    +0.000 F 
ATOM     25  C   UNL     1       1.180   3.072  19.190  0.00  0.00    +0.000 A 
ATOM     26  C   UNL     1       1.224   4.459  19.263  0.00  0.00    +0.000 A 
ENDBRANCH   8  20
BRANCH   5  27
ATOM     27  C   UNL     1       5.561   6.051  16.932  0.00  0.00    +0.000 C 
BRANCH  27  28
ATOM     28  C   UNL     1       6.060   5.329  15.711  0.00  0.00    +0.000 A 
ATOM     29  C   UNL     1       5.391   4.346  15.003  0.00  0.00    +0.000 A 
ATOM     30  C   UNL     1       6.239   3.982  13.978  0.00  0.00    +0.000 A 
ATOM     31  C   UNL     1       7.366   4.766  14.114  0.00  0.00    +0.000 A 
ATOM     32  O   UNL     1       7.228   5.559  15.155  0.00  0.00    +0.000 OA
ENDBRANCH  27  28
ENDBRANCH   5  27
TORSDOF 4
ENDMDL
MODEL 2
REMARK VINA RESULT:      -8.2      3.936      9.712
REMARK  Name = 
REMARK  4 active torsions:
REMARK  status: ('A' for Active; 'I' for Inactive)
REMARK    1  A    between atoms: C_5  and  N_6
REMARK    2  A    between atoms: N_10  and  C_11
REMARK    3  A    between atoms: C_11  and  C_12
REMARK    4  A    between atoms: N_19  and  C_20
REMARK                            x       y       z     vdW  Elec       q    Type
REMARK                         _______ _______ _______ _____ _____    ______ ____
ROOT
ATOM      1  N   UNL     1       2.103   7.641  20.974  0.00  0.00    +0.000 N 
ATOM      2  C   UNL     1       1.216   8.708  20.737  0.00  0.00    +0.000 A 
ATOM      3  N   UNL     1       0.680   9.443  21.743  0.00  0.00    +0.000 NA
ATOM      4  C   UNL     1      -0.233  10.407  21.452  0.00  0.00    +0.000 A 
ATOM      5  N   UNL     1      -0.818  11.156  22.506  0.00  0.00    +0.000 N 
ATOM      6  N   UNL     1      -0.622  10.615  20.170  0.00  0.00    +0.000 NA
ATOM      7  C   UNL     1      -0.087   9.881  19.166  0.00  0.00    +0.000 A 
ATOM      8  N   UNL     1      -0.515  10.037  17.815  0.00  0.00    +0.000 N 
ATOM      9  N   UNL     1       0.842   8.962  19.448  0.00  0.00    +0.000 NA
ATOM     10  H   UNL     1       2.820   7.741  21.721  0.00  0.00    +0.000 HD
ATOM     11  H   UNL     1      -0.872  10.727  23.443  0.00  0.00    +0.000 HD
ATOM     12  H   UNL     1       0.100   9.711  17.052  0.00  0.00    +0.000 HD
ENDROOT
BRANCH   1  17
ATOM     13  F   UNL     1       1.915   3.414  17.354  0.00  0.00    +0.000 F 
ATOM     14  C   UNL     1       2.019   4.419  18.251  0.00  0.00    +0.000 A 
ATOM     15  C   UNL     1       2.707   5.599  17.930  0.00  0.00    +0.000 A 
ATOM     16  C   UNL     1       2.778   6.649  18.844  0.00  0.00    +0.000 A 
ATOM     17  C   UNL     1       2.137   6.535  20.082  0.00  0.00    +0.000 A 
ATOM     18  C   UNL     1       1.493   5.304  20.413  0.00  0.00    +0.000 A 
ATOM     19  C   UNL     1       1.428   4.271  19.495  0.00  0.00    +0.000 A 
ENDBRANCH   1  17
BRANCH   8  20
ATOM     20  C   UNL     1      -1.810  10.536  17.498  0.00  0.00    +0.000 A 
ATOM     21  C   UNL     1      -2.413  10.256  16.260  0.00  0.00    +0.000 A 
ATOM     22  C   UNL     1      -3.695  10.750  15.981  0.00  0.00    +0.000 A 
ATOM     23  C   UNL     1      -4.382  11.504  16.939  0.00  0.00    +0.000 A 
ATOM     24  F   UNL     1      -5.623  11.978  16.671  0.00  0.00    +0.000 F 
ATOM     25  C   UNL     1      -3.790  11.768  18.174  0.00  0.00    +0.000 A 
ATOM     26  C   UNL     1      -2.516  11.288  18.451  0.00  0.00    +0.000 A 
ENDBRANCH   8  20
BRANCH   5  27
ATOM     27  C   UNL     1      -1.304  12.502  22.305  0.00  0.00    +0.000 C 
BRANCH  27  28
ATOM     28  C   UNL     1      -2.425  12.777  23.268  0.00  0.00    +0.000 A 
ATOM     29  C   UNL     1      -2.701  13.983  23.889  0.00  0.00    +0.000 A 
ATOM     30  C   UNL     1      -3.807  13.751  24.679  0.00  0.00    +0.000 A 
ATOM     31  C   UNL     1      -4.144  12.427  24.490  0.00  0.00    +0.000 A 
ATOM     32  O   UNL     1      -3.302  11.874  23.643  0.00  0.00    +0.000 OA
ENDBRANCH  27  28
ENDBRANCH   5  27
TORSDOF 4
ENDMDL
MODEL 3
REMARK VINA RESULT:      -8.2      1.190      1.795
REMARK  Name = 
REMARK  4 active torsions:
REMARK  status: ('A' for Active; 'I' for Inactive)
REMARK    1  A    between atoms: C_5  and  N_6
REMARK    2  A    between atoms: N_10  and  C_11
REMARK    3  A    between atoms: C_11  and  C_12
REMARK    4  A    between atoms: N_19  and  C_20
REMARK                            x       y       z     vdW  Elec       q    Type
REMARK                         _______ _______ _______ _____ _____    ______ ____
ROOT
ATOM      1  N   UNL     1       1.597  10.584  17.956  0.00  0.00    +0.000 N 
ATOM      2  C   UNL     1       2.201   9.321  18.110  0.00  0.00    +0.000 A 
ATOM      3  N   UNL     1       3.042   8.800  17.183  0.00  0.00    +0.000 NA
ATOM      4  C   UNL     1       3.528   7.542  17.353  0.00  0.00    +0.000 A 
ATOM      5  N   UNL     1       4.384   6.985  16.367  0.00  0.00    +0.000 N 
ATOM      6  N   UNL     1       3.154   6.805  18.427  0.00  0.00    +0.000 NA
ATOM      7  C   UNL     1       2.312   7.324  19.352  0.00  0.00    +0.000 A 
ATOM      8  N   UNL     1       1.857   6.557  20.464  0.00  0.00    +0.000 N 
ATOM      9  N   UNL     1       1.870   8.577  19.207  0.00  0.00    +0.000 NA
ATOM     10  H   UNL     1       2.158  11.361  17.553  0.00  0.00    +0.000 HD
ATOM     11  H   UNL     1       4.310   7.331  15.398  0.00  0.00    +0.000 HD
ATOM     12  H   UNL     1       1.486   7.046  21.295  0.00  0.00    +0.000 HD
ENDROOT
BRANCH   1  17
ATOM     13  F   UNL     1      -3.435  11.860  19.969  0.00  0.00    +0.000 F 
ATOM     14  C   UNL     1      -2.216  11.495  19.513  0.00  0.00    +0.000 A 
ATOM     15  C   UNL     1      -2.089  10.638  18.410  0.00  0.00    +0.000 A 
ATOM     16  C   UNL     1      -0.829  10.296  17.920  0.00  0.00    +0.000 A 
ATOM     17  C   UNL     1       0.316  10.831  18.517  0.00  0.00    +0.000 A 
ATOM     18  C   UNL     1       0.168  11.653  19.676  0.00  0.00    +0.000 A 
ATOM     19  C   UNL     1      -1.088  11.987  20.150  0.00  0.00    +0.000 A 
ENDBRANCH   1  17
BRANCH   8  20
ATOM     20  C   UNL     1       1.804   5.135  20.414  0.00  0.00    +0.000 A 
ATOM     21  C   UNL     1       2.295   4.352  21.472  0.00  0.00    +0.000 A 
ATOM     22  C   UNL     1       2.219   2.954  21.400  0.00  0.00    +0.000 A 
ATOM     23  C   UNL     1       1.637   2.338  20.286  0.00  0.00    +0.000 A 
ATOM     24  F   UNL     1       1.560   0.987  20.218  0.00  0.00    +0.000 F 
ATOM     25  C   UNL     1       1.135   3.116  19.243  0.00  0.00    +0.000 A 
ATOM     26  C   UNL     1       1.218   4.501  19.306  0.00  0.00    +0.000 A 
ENDBRANCH   8  20
BRANCH   5  27
ATOM     27  C   UNL     1       5.367   5.978  16.695  0.00  0.00    +0.000 C 
BRANCH  27  28
ATOM     28  C   UNL     1       6.542   6.628  17.370  0.00  0.00    +0.000 A 
ATOM     29  C   UNL     1       7.275   6.114  18.426  0.00  0.00    +0.000 A 
ATOM     30  C   UNL     1       8.239   7.059  18.707  0.00  0.00    +0.000 A 
ATOM     31  C   UNL     1       8.045   8.086  17.805  0.00  0.00    +0.000 A 
ATOM     32  O   UNL     1       7.027   7.798  17.022  0.00  0.00    +0.000 OA
ENDBRANCH  27  28
ENDBRANCH   5  27
TORSDOF 4
ENDMDL
MODEL 4
REMARK VINA RESULT:      -8.1      3.899      9.552
REMARK  Name = 
REMARK  4 active torsions:
REMARK  status: ('A' for Active; 'I' for Inactive)
REMARK    1  A    between atoms: C_5  and  N_6
REMARK    2  A    between atoms: N_10  and  C_11
REMARK    3  A    between atoms: C_11  and  C_12
REMARK    4  A    between atoms: N_19  and  C_20
REMARK                            x       y       z     vdW  Elec       q    Type
REMARK                         _______ _______ _______ _____ _____    ______ ____
ROOT
ATOM      1  N   UNL     1       2.158   7.615  20.818  0.00  0.00    +0.000 N 
ATOM      2  C   UNL     1       1.285   8.700  20.611  0.00  0.00    +0.000 A 
ATOM      3  N   UNL     1       0.822   9.464  21.631  0.00  0.00    +0.000 NA
ATOM      4  C   UNL     1      -0.082  10.446  21.373  0.00  0.00    +0.000 A 
ATOM      5  N   UNL     1      -0.590  11.225  22.444  0.00  0.00    +0.000 N 
ATOM      6  N   UNL     1      -0.537  10.641  20.111  0.00  0.00    +0.000 NA
ATOM      7  C   UNL     1      -0.076   9.877  19.093  0.00  0.00    +0.000 A 
ATOM      8  N   UNL     1      -0.574  10.021  17.764  0.00  0.00    +0.000 N 
ATOM      9  N   UNL     1       0.846   8.941  19.339  0.00  0.00    +0.000 NA
ATOM     10  H   UNL     1       2.917   7.710  21.522  0.00  0.00    +0.000 HD
ATOM     11  H   UNL     1      -0.603  10.814  23.390  0.00  0.00    +0.000 HD
ATOM     12  H   UNL     1      -0.010   9.667  16.975  0.00  0.00    +0.000 HD
ENDROOT
BRANCH   1  17
ATOM     13  F   UNL     1       2.317   3.124  17.531  0.00  0.00    +0.000 F 
ATOM     14  C   UNL     1       2.221   4.228  18.304  0.00  0.00    +0.000 A 
ATOM     15  C   UNL     1       1.524   4.193  19.521  0.00  0.00    +0.000 A 
ATOM     16  C   UNL     1       1.460   5.324  20.333  0.00  0.00    +0.000 A 
ATOM     17  C   UNL     1       2.117   6.495  19.945  0.00  0.00    +0.000 A 
ATOM     18  C   UNL     1       2.771   6.528  18.676  0.00  0.00    +0.000 A 
ATOM     19  C   UNL     1       2.829   5.398  17.880  0.00  0.00    +0.000 A 
ENDBRANCH   1  17
BRANCH   8  20
ATOM     20  C   UNL     1      -1.873  10.545  17.510  0.00  0.00    +0.000 A 
ATOM     21  C   UNL     1      -2.595  11.215  18.511  0.00  0.00    +0.000 A 
ATOM     22  C   UNL     1      -3.867  11.732  18.228  0.00  0.00    +0.000 A 
ATOM     23  C   UNL     1      -4.410  11.598  16.945  0.00  0.00    +0.000 A 
ATOM     24  F   UNL     1      -5.638  12.100  16.670  0.00  0.00    +0.000 F 
ATOM     25  C   UNL     1      -3.687  10.946  15.946  0.00  0.00    +0.000 A 
ATOM     26  C   UNL     1      -2.430  10.425  16.226  0.00  0.00    +0.000 A 
ENDBRANCH   8  20
BRANCH   5  27
ATOM     27  C   UNL     1      -1.056  12.579  22.245  0.00  0.00    +0.000 C 
BRANCH  27  28
ATOM     28  C   UNL     1      -2.512  12.665  22.608  0.00  0.00    +0.000 A 
ATOM     29  C   UNL     1      -3.557  12.981  21.757  0.00  0.00    +0.000 A 
ATOM     30  C   UNL     1      -4.696  12.944  22.533  0.00  0.00    +0.000 A 
ATOM     31  C   UNL     1      -4.283  12.600  23.804  0.00  0.00    +0.000 A 
ATOM     32  O   UNL     1      -2.977  12.440  23.816  0.00  0.00    +0.000 OA
ENDBRANCH  27  28
ENDBRANCH   5  27
TORSDOF 4
ENDMDL
MODEL 5
REMARK VINA RESULT:      -8.0      1.433      1.747
REMARK  Name = 
REMARK  4 active torsions:
REMARK  status: ('A' for Active; 'I' for Inactive)
REMARK    1  A    between atoms: C_5  and  N_6
REMARK    2  A    between atoms: N_10  and  C_11
REMARK    3  A    between atoms: C_11  and  C_12
REMARK    4  A    between atoms: N_19  and  C_20
REMARK                            x       y       z     vdW  Elec       q    Type
REMARK                         _______ _______ _______ _____ _____    ______ ____
ROOT
ATOM      1  N   UNL     1       1.496  10.454  17.839  0.00  0.00    +0.000 N 
ATOM      2  C   UNL     1       2.129   9.233  18.141  0.00  0.00    +0.000 A 
ATOM      3  N   UNL     1       3.070   8.684  17.334  0.00  0.00    +0.000 NA
ATOM      4  C   UNL     1       3.585   7.465  17.643  0.00  0.00    +0.000 A 
ATOM      5  N   UNL     1       4.547   6.876  16.782  0.00  0.00    +0.000 N 
ATOM      6  N   UNL     1       3.142   6.792  18.733  0.00  0.00    +0.000 NA
ATOM      7  C   UNL     1       2.201   7.340  19.538  0.00  0.00    +0.000 A 
ATOM      8  N   UNL     1       1.675   6.636  20.661  0.00  0.00    +0.000 N 
ATOM      9  N   UNL     1       1.727   8.558  19.259  0.00  0.00    +0.000 NA
ATOM     10  H   UNL     1       2.062  11.224  17.429  0.00  0.00    +0.000 HD
ATOM     11  H   UNL     1       4.549   7.146  15.786  0.00  0.00    +0.000 HD
ATOM     12  H   UNL     1       1.212   7.167  21.415  0.00  0.00    +0.000 HD
ENDROOT
BRANCH   1  17
ATOM     13  F   UNL     1      -3.747  11.644  19.287  0.00  0.00    +0.000 F 
ATOM     14  C   UNL     1      -2.478  11.304  18.974  0.00  0.00    +0.000 A 
ATOM     15  C   UNL     1      -2.214  10.346  17.984  0.00  0.00    +0.000 A 
ATOM     16  C   UNL     1      -0.902  10.026  17.638  0.00  0.00    +0.000 A 
ATOM     17  C   UNL     1       0.160  10.685  18.264  0.00  0.00    +0.000 A 
ATOM     18  C   UNL     1      -0.127  11.613  19.311  0.00  0.00    +0.000 A 
ATOM     19  C   UNL     1      -1.434  11.922  19.643  0.00  0.00    +0.000 A 
ENDBRANCH   1  17
BRANCH   8  20
ATOM     20  C   UNL     1       1.680   5.213  20.715  0.00  0.00    +0.000 A 
ATOM     21  C   UNL     1       2.484   4.524  21.638  0.00  0.00    +0.000 A 
ATOM     22  C   UNL     1       2.459   3.123  21.677  0.00  0.00    +0.000 A 
ATOM     23  C   UNL     1       1.621   2.411  20.812  0.00  0.00    +0.000 A 
ATOM     24  F   UNL     1       1.594   1.057  20.852  0.00  0.00    +0.000 F 
ATOM     25  C   UNL     1       0.811   3.095  19.906  0.00  0.00    +0.000 A 
ATOM     26  C   UNL     1       0.840   4.484  19.858  0.00  0.00    +0.000 A 
ENDBRANCH   8  20
BRANCH   5  27
ATOM     27  C   UNL     1       5.533   5.939  17.272  0.00  0.00    +0.000 C 
BRANCH  27  28
ATOM     28  C   UNL     1       4.863   4.632  17.593  0.00  0.00    +0.000 A 
ATOM     29  C   UNL     1       3.972   3.942  16.789  0.00  0.00    +0.000 A 
ATOM     30  C   UNL     1       3.623   2.814  17.501  0.00  0.00    +0.000 A 
ATOM     31  C   UNL     1       4.325   2.875  18.688  0.00  0.00    +0.000 A 
ATOM     32  O   UNL     1       5.055   3.970  18.712  0.00  0.00    +0.000 OA
ENDBRANCH  27  28
ENDBRANCH   5  27
TORSDOF 4
ENDMDL
MODEL 6
REMARK VINA RESULT:      -7.9      1.487      2.017
REMARK  Name = 
REMARK  4 active torsions:
REMARK  status: ('A' for Active; 'I' for Inactive)
REMARK    1  A    between atoms: C_5  and  N_6
REMARK    2  A    between atoms: N_10  and  C_11
REMARK    3  A    between atoms: C_11  and  C_12
REMARK    4  A    between atoms: N_19  and  C_20
REMARK                            x       y       z     vdW  Elec       q    Type
REMARK                         _______ _______ _______ _____ _____    ______ ____
ROOT
ATOM      1  N   UNL     1       1.334  10.531  17.818  0.00  0.00    +0.000 N 
ATOM      2  C   UNL     1       1.981   9.323  18.139  0.00  0.00    +0.000 A 
ATOM      3  N   UNL     1       2.932   8.775  17.342  0.00  0.00    +0.000 NA
ATOM      4  C   UNL     1       3.461   7.566  17.668  0.00  0.00    +0.000 A 
ATOM      5  N   UNL     1       4.434   6.978  16.818  0.00  0.00    +0.000 N 
ATOM      6  N   UNL     1       3.022   6.902  18.765  0.00  0.00    +0.000 NA
ATOM      7  C   UNL     1       2.071   7.448  19.559  0.00  0.00    +0.000 A 
ATOM      8  N   UNL     1       1.550   6.752  20.689  0.00  0.00    +0.000 N 
ATOM      9  N   UNL     1       1.583   8.657  19.264  0.00  0.00    +0.000 NA
ATOM     10  H   UNL     1       1.892  11.303  17.401  0.00  0.00    +0.000 HD
ATOM     11  H   UNL     1       4.436   7.236  15.819  0.00  0.00    +0.000 HD
ATOM     12  H   UNL     1       1.077   7.287  21.435  0.00  0.00    +0.000 HD
ENDROOT
BRANCH   1  17
ATOM     13  F   UNL     1      -3.929  11.676  19.234  0.00  0.00    +0.000 F 
ATOM     14  C   UNL     1      -2.654  11.346  18.929  0.00  0.00    +0.000 A 
ATOM     15  C   UNL     1      -2.376  10.384  17.947  0.00  0.00    +0.000 A 
ATOM     16  C   UNL     1      -1.059  10.077  17.610  0.00  0.00    +0.000 A 
ATOM     17  C   UNL     1      -0.006  10.751  18.236  0.00  0.00    +0.000 A 
ATOM     18  C   UNL     1      -0.308  11.684  19.275  0.00  0.00    +0.000 A 
ATOM     19  C   UNL     1      -1.620  11.981  19.598  0.00  0.00    +0.000 A 
ENDBRANCH   1  17
BRANCH   8  20
ATOM     20  C   UNL     1       1.572   5.330  20.762  0.00  0.00    +0.000 A 
ATOM     21  C   UNL     1       0.743   4.547  19.941  0.00  0.00    +0.000 A 
ATOM     22  C   UNL     1       0.796   3.149  20.026  0.00  0.00    +0.000 A 
ATOM     23  C   UNL     1       1.686   2.532  20.912  0.00  0.00    +0.000 A 
ATOM     24  F   UNL     1       1.740   1.180  20.991  0.00  0.00    +0.000 F 
ATOM     25  C   UNL     1       2.521   3.308  21.715  0.00  0.00    +0.000 A 
ATOM     26  C   UNL     1       2.464   4.695  21.640  0.00  0.00    +0.000 A 
ENDBRANCH   8  20
BRANCH   5  27
ATOM     27  C   UNL     1       5.429   6.060  17.323  0.00  0.00    +0.000 C 
BRANCH  27  28
ATOM     28  C   UNL     1       4.782   4.734  17.617  0.00  0.00    +0.000 A 
ATOM     29  C   UNL     1       5.001   3.938  18.727  0.00  0.00    +0.000 A 
ATOM     30  C   UNL     1       4.200   2.829  18.556  0.00  0.00    +0.000 A 
ATOM     31  C   UNL     1       3.535   3.017  17.361  0.00  0.00    +0.000 A 
ATOM     32  O   UNL     1       3.903   4.161  16.826  0.00  0.00    +0.000 OA
ENDBRANCH  27  28
ENDBRANCH   5  27
TORSDOF 4
ENDMDL
MODEL 7
REMARK VINA RESULT:      -7.8      3.919      9.357
REMARK  Name = 
REMARK  4 active torsions:
REMARK  status: ('A' for Active; 'I' for Inactive)
REMARK    1  A    between atoms: C_5  and  N_6
REMARK    2  A    between atoms: N_10  and  C_11
REMARK    3  A    between atoms: C_11  and  C_12
REMARK    4  A    between atoms: N_19  and  C_20
REMARK                            x       y       z     vdW  Elec       q    Type
REMARK                         _______ _______ _______ _____ _____    ______ ____
ROOT
ATOM      1  N   UNL     1       2.194   7.740  20.836  0.00  0.00    +0.000 N 
ATOM      2  C   UNL     1       1.352   8.830  20.545  0.00  0.00    +0.000 A 
ATOM      3  N   UNL     1       0.972   9.727  21.489  0.00  0.00    +0.000 NA
ATOM      4  C   UNL     1       0.094  10.710  21.161  0.00  0.00    +0.000 A 
ATOM      5  N   UNL     1      -0.328  11.630  22.157  0.00  0.00    +0.000 N 
ATOM      6  N   UNL     1      -0.418  10.779  19.908  0.00  0.00    +0.000 NA
ATOM      7  C   UNL     1      -0.041   9.883  18.966  0.00  0.00    +0.000 A 
ATOM      8  N   UNL     1      -0.601   9.895  17.655  0.00  0.00    +0.000 N 
ATOM      9  N   UNL     1       0.857   8.943  19.276  0.00  0.00    +0.000 NA
ATOM     10  H   UNL     1       2.992   7.883  21.488  0.00  0.00    +0.000 HD
ATOM     11  H   UNL     1      -0.307  11.331  23.144  0.00  0.00    +0.000 HD
ATOM     12  H   UNL     1      -0.093   9.428  16.886  0.00  0.00    +0.000 HD
ENDROOT
BRANCH   1  17
ATOM     13  F   UNL     1       1.355   3.097  17.879  0.00  0.00    +0.000 F 
ATOM     14  C   UNL     1       1.619   4.204  18.609  0.00  0.00    +0.000 A 
ATOM     15  C   UNL     1       2.277   5.301  18.035  0.00  0.00    +0.000 A 
ATOM     16  C   UNL     1       2.512   6.455  18.781  0.00  0.00    +0.000 A 
ATOM     17  C   UNL     1       2.065   6.529  20.104  0.00  0.00    +0.000 A 
ATOM     18  C   UNL     1       1.450   5.380  20.688  0.00  0.00    +0.000 A 
ATOM     19  C   UNL     1       1.221   4.242  19.936  0.00  0.00    +0.000 A 
ENDBRANCH   1  17
BRANCH   8  20
ATOM     20  C   UNL     1      -1.891  10.443  17.403  0.00  0.00    +0.000 A 
ATOM     21  C   UNL     1      -2.646  11.028  18.432  0.00  0.00    +0.000 A 
ATOM     22  C   UNL     1      -3.908  11.570  18.152  0.00  0.00    +0.000 A 
ATOM     23  C   UNL     1      -4.408  11.546  16.845  0.00  0.00    +0.000 A 
ATOM     24  F   UNL     1      -5.626  12.073  16.573  0.00  0.00    +0.000 F 
ATOM     25  C   UNL     1      -3.652  10.979  15.819  0.00  0.00    +0.000 A 
ATOM     26  C   UNL     1      -2.405  10.433  16.096  0.00  0.00    +0.000 A 
ENDBRANCH   8  20
BRANCH   5  27
ATOM     27  C   UNL     1      -0.752  12.970  21.823  0.00  0.00    +0.000 C 
BRANCH  27  28
ATOM     28  C   UNL     1      -2.254  13.038  21.838  0.00  0.00    +0.000 A 
ATOM     29  C   UNL     1      -3.054  13.783  20.990  0.00  0.00    +0.000 A 
ATOM     30  C   UNL     1      -4.351  13.535  21.386  0.00  0.00    +0.000 A 
ATOM     31  C   UNL     1      -4.268  12.649  22.441  0.00  0.00    +0.000 A 
ATOM     32  O   UNL     1      -3.005  12.373  22.686  0.00  0.00    +0.000 OA
ENDBRANCH  27  28
ENDBRANCH   5  27
TORSDOF 4
ENDMDL
MODEL 8
REMARK VINA RESULT:      -7.7      3.905      9.613
REMARK  Name = 
REMARK  4 active torsions:
REMARK  status: ('A' for Active; 'I' for Inactive)
REMARK    1  A    between atoms: C_5  and  N_6
REMARK    2  A    between atoms: N_10  and  C_11
REMARK    3  A    between atoms: C_11  and  C_12
REMARK    4  A    between atoms: N_19  and  C_20
REMARK                            x       y       z     vdW  Elec       q    Type
REMARK                         _______ _______ _______ _____ _____    ______ ____
ROOT
ATOM      1  N   UNL     1       2.166   7.686  20.760  0.00  0.00    +0.000 N 
ATOM      2  C   UNL     1       1.347   8.795  20.472  0.00  0.00    +0.000 A 
ATOM      3  N   UNL     1       0.996   9.703  21.416  0.00  0.00    +0.000 NA
ATOM      4  C   UNL     1       0.138  10.705  21.091  0.00  0.00    +0.000 A 
ATOM      5  N   UNL     1      -0.255  11.638  22.086  0.00  0.00    +0.000 N 
ATOM      6  N   UNL     1      -0.382  10.782  19.841  0.00  0.00    +0.000 NA
ATOM      7  C   UNL     1      -0.032   9.875  18.899  0.00  0.00    +0.000 A 
ATOM      8  N   UNL     1      -0.602   9.895  17.593  0.00  0.00    +0.000 N 
ATOM      9  N   UNL     1       0.846   8.914  19.207  0.00  0.00    +0.000 NA
ATOM     10  H   UNL     1       2.972   7.812  21.406  0.00  0.00    +0.000 HD
ATOM     11  H   UNL     1      -0.233  11.342  23.074  0.00  0.00    +0.000 HD
ATOM     12  H   UNL     1      -0.111   9.414  16.822  0.00  0.00    +0.000 HD
ENDROOT
BRANCH   1  17
ATOM     13  F   UNL     1       1.859   2.848  18.021  0.00  0.00    +0.000 F 
ATOM     14  C   UNL     1       1.873   4.036  18.666  0.00  0.00    +0.000 A 
ATOM     15  C   UNL     1       1.310   4.165  19.944  0.00  0.00    +0.000 A 
ATOM     16  C   UNL     1       1.362   5.382  20.621  0.00  0.00    +0.000 A 
ATOM     17  C   UNL     1       2.004   6.476  20.033  0.00  0.00    +0.000 A 
ATOM     18  C   UNL     1       2.518   6.342  18.708  0.00  0.00    +0.000 A 
ATOM     19  C   UNL     1       2.462   5.127  18.048  0.00  0.00    +0.000 A 
ENDBRANCH   1  17
BRANCH   8  20
ATOM     20  C   UNL     1      -1.881  10.471  17.348  0.00  0.00    +0.000 A 
ATOM     21  C   UNL     1      -2.469  10.420  16.074  0.00  0.00    +0.000 A 
ATOM     22  C   UNL     1      -3.735  10.986  15.865  0.00  0.00    +0.000 A 
ATOM     23  C   UNL     1      -4.420  11.583  16.929  0.00  0.00    +0.000 A 
ATOM     24  F   UNL     1      -5.646  12.127  16.729  0.00  0.00    +0.000 F 
ATOM     25  C   UNL     1      -3.844  11.620  18.198  0.00  0.00    +0.000 A 
ATOM     26  C   UNL     1      -2.585  11.069  18.406  0.00  0.00    +0.000 A 
ENDBRANCH   8  20
BRANCH   5  27
ATOM     27  C   UNL     1      -0.649  12.987  21.751  0.00  0.00    +0.000 C 
BRANCH  27  28
ATOM     28  C   UNL     1      -1.327  13.618  22.935  0.00  0.00    +0.000 A 
ATOM     29  C   UNL     1      -2.635  13.416  23.342  0.00  0.00    +0.000 A 
ATOM     30  C   UNL     1      -2.805  14.205  24.460  0.00  0.00    +0.000 A 
ATOM     31  C   UNL     1      -1.595  14.833  24.674  0.00  0.00    +0.000 A 
ATOM     32  O   UNL     1      -0.735  14.462  23.750  0.00  0.00    +0.000 OA
ENDBRANCH  27  28
ENDBRANCH   5  27
TORSDOF 4
ENDMDL
MODEL 9
REMARK VINA RESULT:      -7.6      3.672      8.900
REMARK  Name = 
REMARK  4 active torsions:
REMARK  status: ('A' for Active; 'I' for Inactive)
REMARK    1  A    between atoms: C_5  and  N_6
REMARK    2  A    between atoms: N_10  and  C_11
REMARK    3  A    between atoms: C_11  and  C_12
REMARK    4  A    between atoms: N_19  and  C_20
REMARK                            x       y       z     vdW  Elec       q    Type
REMARK                         _______ _______ _______ _____ _____    ______ ____
ROOT
ATOM      1  N   UNL     1       2.110   7.808  20.936  0.00  0.00    +0.000 N 
ATOM      2  C   UNL     1       1.229   8.873  20.668  0.00  0.00    +0.000 A 
ATOM      3  N   UNL     1       0.752   9.684  21.645  0.00  0.00    +0.000 NA
ATOM      4  C   UNL     1      -0.158  10.644  21.330  0.00  0.00    +0.000 A 
ATOM      5  N   UNL     1      -0.682  11.472  22.357  0.00  0.00    +0.000 N 
ATOM      6  N   UNL     1      -0.603  10.772  20.056  0.00  0.00    +0.000 NA
ATOM      7  C   UNL     1      -0.127   9.962  19.082  0.00  0.00    +0.000 A 
ATOM      8  N   UNL     1      -0.614  10.036  17.744  0.00  0.00    +0.000 N 
ATOM      9  N   UNL     1       0.800   9.048  19.383  0.00  0.00    +0.000 NA
ATOM     10  H   UNL     1       2.862   7.944  21.642  0.00  0.00    +0.000 HD
ATOM     11  H   UNL     1      -0.700  11.108  23.322  0.00  0.00    +0.000 HD
ATOM     12  H   UNL     1      -0.040   9.648  16.978  0.00  0.00    +0.000 HD
ENDROOT
BRANCH   1  17
ATOM     13  F   UNL     1       1.686   3.350  17.627  0.00  0.00    +0.000 F 
ATOM     14  C   UNL     1       1.848   4.412  18.447  0.00  0.00    +0.000 A 
ATOM     15  C   UNL     1       2.524   5.560  18.008  0.00  0.00    +0.000 A 
ATOM     16  C   UNL     1       2.655   6.668  18.844  0.00  0.00    +0.000 A 
ATOM     17  C   UNL     1       2.085   6.645  20.120  0.00  0.00    +0.000 A 
ATOM     18  C   UNL     1       1.453   5.446  20.570  0.00  0.00    +0.000 A 
ATOM     19  C   UNL     1       1.328   4.354  19.730  0.00  0.00    +0.000 A 
ENDBRANCH   1  17
BRANCH   8  20
ATOM     20  C   UNL     1      -1.915  10.536  17.452  0.00  0.00    +0.000 A 
ATOM     21  C   UNL     1      -2.534  10.273  16.220  0.00  0.00    +0.000 A 
ATOM     22  C   UNL     1      -3.821  10.769  15.965  0.00  0.00    +0.000 A 
ATOM     23  C   UNL     1      -4.496  11.507  16.944  0.00  0.00    +0.000 A 
ATOM     24  F   UNL     1      -5.741  11.982  16.700  0.00  0.00    +0.000 F 
ATOM     25  C   UNL     1      -3.887  11.754  18.174  0.00  0.00    +0.000 A 
ATOM     26  C   UNL     1      -2.608  11.273  18.426  0.00  0.00    +0.000 A 
ENDBRANCH   8  20
BRANCH   5  27
ATOM     27  C   UNL     1      -1.156  12.810  22.087  0.00  0.00    +0.000 C 
BRANCH  27  28
ATOM     28  C   UNL     1      -0.021  13.645  21.563  0.00  0.00    +0.000 A 
ATOM     29  C   UNL     1       0.026  14.302  20.346  0.00  0.00    +0.000 A 
ATOM     30  C   UNL     1       1.256  14.924  20.304  0.00  0.00    +0.000 A 
ATOM     31  C   UNL     1       1.881  14.620  21.496  0.00  0.00    +0.000 A 
ATOM     32  O   UNL     1       1.095  13.857  22.224  0.00  0.00    +0.000 OA
ENDBRANCH  27  28
ENDBRANCH   5  27
TORSDOF 4
ENDMDL
