MODEL 1
REMARK VINA RESULT:      -6.8      0.000      0.000
REMARK  Name = 
REMARK  10 active torsions:
REMARK  status: ('A' for Active; 'I' for Inactive)
REMARK    1  A    between atoms: C_1  and  C_2
REMARK    2  A    between atoms: C_2  and  C_3
REMARK    3  A    between atoms: C_2  and  C_4
REMARK    4  A    between atoms: C_2  and  N_5
REMARK    5  A    between atoms: N_5  and  C_6
REMARK    6  A    between atoms: C_6  and  C_7
REMARK    7  A    between atoms: C_7  and  O_8
REMARK    8  A    between atoms: C_7  and  C_9
REMARK    9  A    between atoms: C_9  and  O_10
REMARK   10  A    between atoms: O_10  and  C_11
REMARK                            x       y       z     vdW  Elec       q    Type
REMARK                         _______ _______ _______ _____ _____    ______ ____
ROOT
ATOM      1  O   UNL     1       4.887   6.627  16.831  0.00  0.00    +0.000 OA
ENDROOT
BRANCH   1   2
ATOM      2  C   UNL     1       5.743   6.132  17.765  0.00  0.00    +0.000 A 
ATOM      3  N   UNL     1       6.938   6.702  17.897  0.00  0.00    +0.000 NA
ATOM      4  S   UNL     1       7.686   5.818  19.100  0.00  0.00    +0.000 S 
ATOM      5  N   UNL     1       6.497   4.701  19.443  0.00  0.00    +0.000 NA
ATOM      6  C   UNL     1       5.455   5.014  18.661  0.00  0.00    +0.000 A 
ATOM      7  N   UNL     1       4.292   4.295  18.631  0.00  0.00    +0.000 N 
ATOM      8  C   UNL     1       4.227   2.938  19.194  0.00  0.00    +0.000 C 
ATOM      9  C   UNL     1       3.216   2.119  18.364  0.00  0.00    +0.000 C 
ATOM     10  O   UNL     1       1.928   2.761  18.283  0.00  0.00    +0.000 OA
ATOM     11  C   UNL     1       2.050   4.088  17.738  0.00  0.00    +0.000 C 
ATOM     12  C   UNL     1       2.980   4.947  18.603  0.00  0.00    +0.000 C 
ENDBRANCH   1   2
BRANCH   1  13
ATOM     13  C   UNL     1       5.308   6.416  15.472  0.00  0.00    +0.000 C 
BRANCH  13  14
ATOM     14  C   UNL     1       6.080   5.087  15.364  0.00  0.00    +0.000 C 
BRANCH  14  15
ATOM     15  O   UNL     1       7.426   5.343  14.927  0.00  0.00    +0.000 OA
ATOM     16  H   UNL     1       7.761   4.508  14.553  0.00  0.00    +0.000 HD
ENDBRANCH  14  15
BRANCH  14  17
ATOM     17  C   UNL     1       5.401   4.116  14.376  0.00  0.00    +0.000 C 
BRANCH  17  18
ATOM     18  N   UNL     1       6.395   3.330  13.628  0.00  0.00    +0.000 NA
ATOM     19  H   UNL     1       7.329   3.640  13.913  0.00  0.00    +0.000 HD
BRANCH  18  21
ATOM     20  C   UNL     1       7.116   4.465  11.517  0.00  0.00    +0.000 C 
ATOM     21  C   UNL     1       6.260   3.360  12.160  0.00  0.00    +0.000 C 
ATOM     22  C   UNL     1       4.787   3.527  11.750  0.00  0.00    +0.000 C 
ATOM     23  C   UNL     1       6.754   2.002  11.621  0.00  0.00    +0.000 C 
ENDBRANCH  18  21
ENDBRANCH  17  18
ENDBRANCH  14  17
ENDBRANCH  13  14
ENDBRANCH   1  13
TORSDOF 7
ENDMDL
MODEL 2
REMARK VINA RESULT:      -6.7      1.946      2.262
REMARK  Name = 
REMARK  10 active torsions:
REMARK  status: ('A' for Active; 'I' for Inactive)
REMARK    1  A    between atoms: C_1  and  C_2
REMARK    2  A    between atoms: C_2  and  C_3
REMARK    3  A    between atoms: C_2  and  C_4
REMARK    4  A    between atoms: C_2  and  N_5
REMARK    5  A    between atoms: N_5  and  C_6
REMARK    6  A    between atoms: C_6  and  C_7
REMARK    7  A    between atoms: C_7  and  O_8
REMARK    8  A    between atoms: C_7  and  C_9
REMARK    9  A    between atoms: C_9  and  O_10
REMARK   10  A    between atoms: O_10  and  C_11
REMARK                            x       y       z     vdW  Elec       q    Type
REMARK                         _______ _______ _______ _____ _____    ______ ____
ROOT
ATOM      1  O   UNL     1       4.703   4.486  16.574  0.00  0.00    +0.000 OA
ENDROOT
BRANCH   1   2
ATOM      2  C   UNL     1       4.072   5.546  17.149  0.00  0.00    +0.000 A 
ATOM      3  N   UNL     1       4.468   6.774  16.822  0.00  0.00    +0.000 NA
ATOM      4  S   UNL     1       3.490   7.777  17.731  0.00  0.00    +0.000 S 
ATOM      5  N   UNL     1       2.574   6.650  18.552  0.00  0.00    +0.000 NA
ATOM      6  C   UNL     1       2.970   5.451  18.104  0.00  0.00    +0.000 A 
ATOM      7  N   UNL     1       2.469   4.269  18.574  0.00  0.00    +0.000 N 
ATOM      8  C   UNL     1       1.716   4.214  19.836  0.00  0.00    +0.000 C 
ATOM      9  C   UNL     1       1.991   2.850  20.503  0.00  0.00    +0.000 C 
ATOM     10  O   UNL     1       1.705   1.744  19.624  0.00  0.00    +0.000 OA
ATOM     11  C   UNL     1       2.457   1.852  18.401  0.00  0.00    +0.000 C 
ATOM     12  C   UNL     1       2.127   3.163  17.675  0.00  0.00    +0.000 C 
ENDBRANCH   1   2
BRANCH   1  13
ATOM     13  C   UNL     1       6.090   4.360  16.931  0.00  0.00    +0.000 C 
BRANCH  13  14
ATOM     14  C   UNL     1       6.976   4.693  15.716  0.00  0.00    +0.000 C 
BRANCH  14  15
ATOM     15  O   UNL     1       7.560   5.997  15.885  0.00  0.00    +0.000 OA
ATOM     16  H   UNL     1       7.351   6.502  15.079  0.00  0.00    +0.000 HD
ENDBRANCH  14  15
BRANCH  14  17
ATOM     17  C   UNL     1       6.170   4.665  14.401  0.00  0.00    +0.000 C 
BRANCH  17  18
ATOM     18  N   UNL     1       6.249   3.346  13.752  0.00  0.00    +0.000 NA
ATOM     19  H   UNL     1       7.105   2.883  14.071  0.00  0.00    +0.000 HD
BRANCH  18  21
ATOM     20  C   UNL     1       7.102   4.413  11.655  0.00  0.00    +0.000 C 
ATOM     21  C   UNL     1       6.177   3.354  12.279  0.00  0.00    +0.000 C 
ATOM     22  C   UNL     1       4.731   3.570  11.803  0.00  0.00    +0.000 C 
ATOM     23  C   UNL     1       6.640   1.969  11.785  0.00  0.00    +0.000 C 
ENDBRANCH  18  21
ENDBRANCH  17  18
ENDBRANCH  14  17
ENDBRANCH  13  14
ENDBRANCH   1  13
TORSDOF 7
ENDMDL
MODEL 3
REMARK VINA RESULT:      -6.6      0.356      1.022
REMARK  Name = 
REMARK  10 active torsions:
REMARK  status: ('A' for Active; 'I' for Inactive)
REMARK    1  A    between atoms: C_1  and  C_2
REMARK    2  A    between atoms: C_2  and  C_3
REMARK    3  A    between atoms: C_2  and  C_4
REMARK    4  A    between atoms: C_2  and  N_5
REMARK    5  A    between atoms: N_5  and  C_6
REMARK    6  A    between atoms: C_6  and  C_7
REMARK    7  A    between atoms: C_7  and  O_8
REMARK    8  A    between atoms: C_7  and  C_9
REMARK    9  A    between atoms: C_9  and  O_10
REMARK   10  A    between atoms: O_10  and  C_11
REMARK                            x       y       z     vdW  Elec       q    Type
REMARK                         _______ _______ _______ _____ _____    ______ ____
ROOT
ATOM      1  O   UNL     1       4.691   6.187  16.776  0.00  0.00    +0.000 OA
ENDROOT
BRANCH   1   2
ATOM      2  C   UNL     1       5.518   5.827  17.795  0.00  0.00    +0.000 A 
ATOM      3  N   UNL     1       6.687   6.452  17.914  0.00  0.00    +0.000 NA
ATOM      4  S   UNL     1       7.406   5.730  19.237  0.00  0.00    +0.000 S 
ATOM      5  N   UNL     1       6.240   4.612  19.648  0.00  0.00    +0.000 NA
ATOM      6  C   UNL     1       5.225   4.801  18.793  0.00  0.00    +0.000 A 
ATOM      7  N   UNL     1       4.090   4.039  18.791  0.00  0.00    +0.000 N 
ATOM      8  C   UNL     1       4.043   2.748  19.494  0.00  0.00    +0.000 C 
ATOM      9  C   UNL     1       3.099   1.809  18.715  0.00  0.00    +0.000 C 
ATOM     10  O   UNL     1       1.796   2.389  18.509  0.00  0.00    +0.000 OA
ATOM     11  C   UNL     1       1.900   3.654  17.830  0.00  0.00    +0.000 C 
ATOM     12  C   UNL     1       2.760   4.635  18.636  0.00  0.00    +0.000 C 
ENDBRANCH   1   2
BRANCH   1  13
ATOM     13  C   UNL     1       5.359   6.401  15.520  0.00  0.00    +0.000 C 
BRANCH  13  14
ATOM     14  C   UNL     1       6.137   5.134  15.118  0.00  0.00    +0.000 C 
BRANCH  14  15
ATOM     15  O   UNL     1       7.402   5.505  14.541  0.00  0.00    +0.000 OA
ATOM     16  H   UNL     1       7.371   5.235  13.606  0.00  0.00    +0.000 HD
ENDBRANCH  14  15
BRANCH  14  17
ATOM     17  C   UNL     1       5.348   4.280  14.104  0.00  0.00    +0.000 C 
BRANCH  17  18
ATOM     18  N   UNL     1       6.198   3.243  13.499  0.00  0.00    +0.000 NA
ATOM     19  H   UNL     1       7.161   3.397  13.811  0.00  0.00    +0.000 HD
BRANCH  18  21
ATOM     20  C   UNL     1       4.696   3.268  11.498  0.00  0.00    +0.000 C 
ATOM     21  C   UNL     1       6.134   3.141  12.029  0.00  0.00    +0.000 C 
ATOM     22  C   UNL     1       6.762   1.824  11.544  0.00  0.00    +0.000 C 
ATOM     23  C   UNL     1       6.960   4.306  11.447  0.00  0.00    +0.000 C 
ENDBRANCH  18  21
ENDBRANCH  17  18
ENDBRANCH  14  17
ENDBRANCH  13  14
ENDBRANCH   1  13
TORSDOF 7
ENDMDL
MODEL 4
REMARK VINA RESULT:      -6.6      3.965      6.375
REMARK  Name = 
REMARK  10 active torsions:
REMARK  status: ('A' for Active; 'I' for Inactive)
REMARK    1  A    between atoms: C_1  and  C_2
REMARK    2  A    between atoms: C_2  and  C_3
REMARK    3  A    between atoms: C_2  and  C_4
REMARK    4  A    between atoms: C_2  and  N_5
REMARK    5  A    between atoms: N_5  and  C_6
REMARK    6  A    between atoms: C_6  and  C_7
REMARK    7  A    between atoms: C_7  and  O_8
REMARK    8  A    between atoms: C_7  and  C_9
REMARK    9  A    between atoms: C_9  and  O_10
REMARK   10  A    between atoms: O_10  and  C_11
REMARK                            x       y       z     vdW  Elec       q    Type
REMARK                         _______ _______ _______ _____ _____    ______ ____
ROOT
ATOM      1  O   UNL     1       6.593   6.338  17.793  0.00  0.00    +0.000 OA
ENDROOT
BRANCH   1   2
ATOM      2  C   UNL     1       6.415   5.519  16.721  0.00  0.00    +0.000 A 
ATOM      3  N   UNL     1       7.271   5.606  15.705  0.00  0.00    +0.000 NA
ATOM      4  S   UNL     1       6.716   4.483  14.601  0.00  0.00    +0.000 S 
ATOM      5  N   UNL     1       5.378   3.897  15.406  0.00  0.00    +0.000 NA
ATOM      6  C   UNL     1       5.350   4.526  16.589  0.00  0.00    +0.000 A 
ATOM      7  N   UNL     1       4.368   4.336  17.521  0.00  0.00    +0.000 N 
ATOM      8  C   UNL     1       3.096   3.693  17.159  0.00  0.00    +0.000 C 
ATOM      9  C   UNL     1       1.979   4.308  18.027  0.00  0.00    +0.000 C 
ATOM     10  O   UNL     1       2.274   4.228  19.435  0.00  0.00    +0.000 OA
ATOM     11  C   UNL     1       3.532   4.861  19.733  0.00  0.00    +0.000 C 
ATOM     12  C   UNL     1       4.672   4.200  18.948  0.00  0.00    +0.000 C 
ENDBRANCH   1   2
BRANCH   1  13
ATOM     13  C   UNL     1       6.860   7.709  17.450  0.00  0.00    +0.000 C 
BRANCH  13  14
ATOM     14  C   UNL     1       8.272   8.102  17.923  0.00  0.00    +0.000 C 
BRANCH  14  15
ATOM     15  O   UNL     1       8.612   7.357  19.107  0.00  0.00    +0.000 OA
ATOM     16  H   UNL     1       7.875   7.477  19.732  0.00  0.00    +0.000 HD
ENDBRANCH  14  15
BRANCH  14  17
ATOM     17  C   UNL     1       8.369   9.611  18.228  0.00  0.00    +0.000 C 
BRANCH  17  18
ATOM     18  N   UNL     1       9.299   9.876  19.337  0.00  0.00    +0.000 NA
ATOM     19  H   UNL     1       8.861   9.557  20.206  0.00  0.00    +0.000 HD
BRANCH  18  21
ATOM     20  C   UNL     1      11.277  11.406  19.249  0.00  0.00    +0.000 C 
ATOM     21  C   UNL     1       9.760  11.271  19.465  0.00  0.00    +0.000 C 
ATOM     22  C   UNL     1       9.367  11.854  20.832  0.00  0.00    +0.000 C 
ATOM     23  C   UNL     1       9.050  12.096  18.373  0.00  0.00    +0.000 C 
ENDBRANCH  18  21
ENDBRANCH  17  18
ENDBRANCH  14  17
ENDBRANCH  13  14
ENDBRANCH   1  13
TORSDOF 7
ENDMDL
MODEL 5
REMARK VINA RESULT:      -6.5      2.054      2.649
REMARK  Name = 
REMARK  10 active torsions:
REMARK  status: ('A' for Active; 'I' for Inactive)
REMARK    1  A    between atoms: C_1  and  C_2
REMARK    2  A    between atoms: C_2  and  C_3
REMARK    3  A    between atoms: C_2  and  C_4
REMARK    4  A    between atoms: C_2  and  N_5
REMARK    5  A    between atoms: N_5  and  C_6
REMARK    6  A    between atoms: C_6  and  C_7
REMARK    7  A    between atoms: C_7  and  O_8
REMARK    8  A    between atoms: C_7  and  C_9
REMARK    9  A    between atoms: C_9  and  O_10
REMARK   10  A    between atoms: O_10  and  C_11
REMARK                            x       y       z     vdW  Elec       q    Type
REMARK                         _______ _______ _______ _____ _____    ______ ____
ROOT
ATOM      1  O   UNL     1       5.368   4.848  17.864  0.00  0.00    +0.000 OA
ENDROOT
BRANCH   1   2
ATOM      2  C   UNL     1       4.411   5.813  17.942  0.00  0.00    +0.000 A 
ATOM      3  N   UNL     1       4.596   6.947  17.271  0.00  0.00    +0.000 NA
ATOM      4  S   UNL     1       3.247   7.863  17.630  0.00  0.00    +0.000 S 
ATOM      5  N   UNL     1       2.435   6.825  18.651  0.00  0.00    +0.000 NA
ATOM      6  C   UNL     1       3.169   5.705  18.705  0.00  0.00    +0.000 A 
ATOM      7  N   UNL     1       2.842   4.626  19.479  0.00  0.00    +0.000 N 
ATOM      8  C   UNL     1       1.855   4.743  20.563  0.00  0.00    +0.000 C 
ATOM      9  C   UNL     1       2.260   3.772  21.691  0.00  0.00    +0.000 C 
ATOM     10  O   UNL     1       2.423   2.421  21.218  0.00  0.00    +0.000 OA
ATOM     11  C   UNL     1       3.389   2.364  20.152  0.00  0.00    +0.000 C 
ATOM     12  C   UNL     1       2.957   3.254  18.979  0.00  0.00    +0.000 C 
ENDBRANCH   1   2
BRANCH   1  13
ATOM     13  C   UNL     1       5.393   4.140  16.613  0.00  0.00    +0.000 C 
BRANCH  13  14
ATOM     14  C   UNL     1       6.752   4.349  15.919  0.00  0.00    +0.000 C 
BRANCH  14  15
ATOM     15  O   UNL     1       7.404   5.506  16.470  0.00  0.00    +0.000 OA
ATOM     16  H   UNL     1       7.687   5.265  17.371  0.00  0.00    +0.000 HD
ENDBRANCH  14  15
BRANCH  14  17
ATOM     17  C   UNL     1       6.590   4.535  14.396  0.00  0.00    +0.000 C 
BRANCH  17  18
ATOM     18  N   UNL     1       6.308   3.255  13.727  0.00  0.00    +0.000 NA
ATOM     19  H   UNL     1       7.024   2.581  14.011  0.00  0.00    +0.000 HD
BRANCH  18  21
ATOM     20  C   UNL     1       4.756   3.566  11.789  0.00  0.00    +0.000 C 
ATOM     21  C   UNL     1       6.199   3.313  12.257  0.00  0.00    +0.000 C 
ATOM     22  C   UNL     1       6.744   2.026  11.617  0.00  0.00    +0.000 C 
ATOM     23  C   UNL     1       7.069   4.491  11.774  0.00  0.00    +0.000 C 
ENDBRANCH  18  21
ENDBRANCH  17  18
ENDBRANCH  14  17
ENDBRANCH  13  14
ENDBRANCH   1  13
TORSDOF 7
ENDMDL
MODEL 6
REMARK VINA RESULT:      -6.4      2.091      2.667
REMARK  Name = 
REMARK  10 active torsions:
REMARK  status: ('A' for Active; 'I' for Inactive)
REMARK    1  A    between atoms: C_1  and  C_2
REMARK    2  A    between atoms: C_2  and  C_3
REMARK    3  A    between atoms: C_2  and  C_4
REMARK    4  A    between atoms: C_2  and  N_5
REMARK    5  A    between atoms: N_5  and  C_6
REMARK    6  A    between atoms: C_6  and  C_7
REMARK    7  A    between atoms: C_7  and  O_8
REMARK    8  A    between atoms: C_7  and  C_9
REMARK    9  A    between atoms: C_9  and  O_10
REMARK   10  A    between atoms: O_10  and  C_11
REMARK                            x       y       z     vdW  Elec       q    Type
REMARK                         _______ _______ _______ _____ _____    ______ ____
ROOT
ATOM      1  O   UNL     1       4.607   4.658  17.299  0.00  0.00    +0.000 OA
ENDROOT
BRANCH   1   2
ATOM      2  C   UNL     1       3.892   5.763  17.648  0.00  0.00    +0.000 A 
ATOM      3  N   UNL     1       4.214   6.929  17.093  0.00  0.00    +0.000 NA
ATOM      4  S   UNL     1       3.149   8.018  17.776  0.00  0.00    +0.000 S 
ATOM      5  N   UNL     1       2.290   7.011  18.790  0.00  0.00    +0.000 NA
ATOM      6  C   UNL     1       2.775   5.778  18.590  0.00  0.00    +0.000 A 
ATOM      7  N   UNL     1       2.343   4.678  19.275  0.00  0.00    +0.000 N 
ATOM      8  C   UNL     1       1.563   4.816  20.515  0.00  0.00    +0.000 C 
ATOM      9  C   UNL     1       1.910   3.630  21.439  0.00  0.00    +0.000 C 
ATOM     10  O   UNL     1       1.721   2.358  20.790  0.00  0.00    +0.000 OA
ATOM     11  C   UNL     1       2.495   2.279  19.578  0.00  0.00    +0.000 C 
ATOM     12  C   UNL     1       2.097   3.397  18.606  0.00  0.00    +0.000 C 
ENDBRANCH   1   2
BRANCH   1  13
ATOM     13  C   UNL     1       5.029   4.638  15.925  0.00  0.00    +0.000 C 
BRANCH  13  14
ATOM     14  C   UNL     1       6.558   4.808  15.844  0.00  0.00    +0.000 C 
BRANCH  14  15
ATOM     15  O   UNL     1       6.906   6.182  16.085  0.00  0.00    +0.000 OA
ATOM     16  H   UNL     1       6.876   6.633  15.223  0.00  0.00    +0.000 HD
ENDBRANCH  14  15
BRANCH  14  17
ATOM     17  C   UNL     1       7.104   4.380  14.466  0.00  0.00    +0.000 C 
BRANCH  17  18
ATOM     18  N   UNL     1       6.195   3.437  13.797  0.00  0.00    +0.000 NA
ATOM     19  H   UNL     1       6.385   2.498  14.159  0.00  0.00    +0.000 HD
BRANCH  18  21
ATOM     20  C   UNL     1       6.725   2.108  11.743  0.00  0.00    +0.000 C 
ATOM     21  C   UNL     1       6.235   3.446  12.323  0.00  0.00    +0.000 C 
ATOM     22  C   UNL     1       7.113   4.598  11.807  0.00  0.00    +0.000 C 
ATOM     23  C   UNL     1       4.796   3.682  11.822  0.00  0.00    +0.000 C 
ENDBRANCH  18  21
ENDBRANCH  17  18
ENDBRANCH  14  17
ENDBRANCH  13  14
ENDBRANCH   1  13
TORSDOF 7
ENDMDL
MODEL 7
REMARK VINA RESULT:      -6.4      2.519      3.344
REMARK  Name = 
REMARK  10 active torsions:
REMARK  status: ('A' for Active; 'I' for Inactive)
REMARK    1  A    between atoms: C_1  and  C_2
REMARK    2  A    between atoms: C_2  and  C_3
REMARK    3  A    between atoms: C_2  and  C_4
REMARK    4  A    between atoms: C_2  and  N_5
REMARK    5  A    between atoms: N_5  and  C_6
REMARK    6  A    between atoms: C_6  and  C_7
REMARK    7  A    between atoms: C_7  and  O_8
REMARK    8  A    between atoms: C_7  and  C_9
REMARK    9  A    between atoms: C_9  and  O_10
REMARK   10  A    between atoms: O_10  and  C_11
REMARK                            x       y       z     vdW  Elec       q    Type
REMARK                         _______ _______ _______ _____ _____    ______ ____
ROOT
ATOM      1  O   UNL     1       5.006   5.251  18.001  0.00  0.00    +0.000 OA
ENDROOT
BRANCH   1   2
ATOM      2  C   UNL     1       3.985   6.138  18.151  0.00  0.00    +0.000 A 
ATOM      3  N   UNL     1       4.101   7.340  17.592  0.00  0.00    +0.000 NA
ATOM      4  S   UNL     1       2.688   8.126  18.010  0.00  0.00    +0.000 S 
ATOM      5  N   UNL     1       1.936   6.945  18.914  0.00  0.00    +0.000 NA
ATOM      6  C   UNL     1       2.744   5.876  18.877  0.00  0.00    +0.000 A 
ATOM      7  N   UNL     1       2.482   4.710  19.540  0.00  0.00    +0.000 N 
ATOM      8  C   UNL     1       1.475   4.658  20.611  0.00  0.00    +0.000 C 
ATOM      9  C   UNL     1       1.930   3.613  21.651  0.00  0.00    +0.000 C 
ATOM     10  O   UNL     1       2.191   2.327  21.056  0.00  0.00    +0.000 OA
ATOM     11  C   UNL     1       3.172   2.436  20.008  0.00  0.00    +0.000 C 
ATOM     12  C   UNL     1       2.695   3.401  18.916  0.00  0.00    +0.000 C 
ENDBRANCH   1   2
BRANCH   1  13
ATOM     13  C   UNL     1       6.044   5.372  18.989  0.00  0.00    +0.000 C 
BRANCH  13  14
ATOM     14  C   UNL     1       7.399   5.617  18.298  0.00  0.00    +0.000 C 
BRANCH  14  15
ATOM     15  O   UNL     1       7.481   6.986  17.864  0.00  0.00    +0.000 OA
ATOM     16  H   UNL     1       6.633   7.404  18.097  0.00  0.00    +0.000 HD
ENDBRANCH  14  15
BRANCH  14  17
ATOM     17  C   UNL     1       7.593   4.687  17.083  0.00  0.00    +0.000 C 
BRANCH  17  18
ATOM     18  N   UNL     1       7.539   5.437  15.818  0.00  0.00    +0.000 NA
ATOM     19  H   UNL     1       7.348   6.419  16.037  0.00  0.00    +0.000 HD
BRANCH  18  21
ATOM     20  C   UNL     1       7.224   4.792  13.421  0.00  0.00    +0.000 C 
ATOM     21  C   UNL     1       6.586   4.930  14.814  0.00  0.00    +0.000 C 
ATOM     22  C   UNL     1       5.342   5.830  14.737  0.00  0.00    +0.000 C 
ATOM     23  C   UNL     1       6.133   3.529  15.270  0.00  0.00    +0.000 C 
ENDBRANCH  18  21
ENDBRANCH  17  18
ENDBRANCH  14  17
ENDBRANCH  13  14
ENDBRANCH   1  13
TORSDOF 7
ENDMDL
MODEL 8
REMARK VINA RESULT:      -6.4      4.055      6.417
REMARK  Name = 
REMARK  10 active torsions:
REMARK  status: ('A' for Active; 'I' for Inactive)
REMARK    1  A    between atoms: C_1  and  C_2
REMARK    2  A    between atoms: C_2  and  C_3
REMARK    3  A    between atoms: C_2  and  C_4
REMARK    4  A    between atoms: C_2  and  N_5
REMARK    5  A    between atoms: N_5  and  C_6
REMARK    6  A    between atoms: C_6  and  C_7
REMARK    7  A    between atoms: C_7  and  O_8
REMARK    8  A    between atoms: C_7  and  C_9
REMARK    9  A    between atoms: C_9  and  O_10
REMARK   10  A    between atoms: O_10  and  C_11
REMARK                            x       y       z     vdW  Elec       q    Type
REMARK                         _______ _______ _______ _____ _____    ______ ____
ROOT
ATOM      1  O   UNL     1       6.652   6.542  17.767  0.00  0.00    +0.000 OA
ENDROOT
BRANCH   1   2
ATOM      2  C   UNL     1       6.484   5.674  16.732  0.00  0.00    +0.000 A 
ATOM      3  N   UNL     1       7.341   5.724  15.715  0.00  0.00    +0.000 NA
ATOM      4  S   UNL     1       6.799   4.548  14.661  0.00  0.00    +0.000 S 
ATOM      5  N   UNL     1       5.465   3.986  15.489  0.00  0.00    +0.000 NA
ATOM      6  C   UNL     1       5.429   4.667  16.643  0.00  0.00    +0.000 A 
ATOM      7  N   UNL     1       4.446   4.509  17.580  0.00  0.00    +0.000 N 
ATOM      8  C   UNL     1       3.181   3.838  17.245  0.00  0.00    +0.000 C 
ATOM      9  C   UNL     1       2.057   4.481  18.083  0.00  0.00    +0.000 C 
ATOM     10  O   UNL     1       2.349   4.466  19.494  0.00  0.00    +0.000 OA
ATOM     11  C   UNL     1       3.601   5.123  19.765  0.00  0.00    +0.000 C 
ATOM     12  C   UNL     1       4.748   4.439  19.012  0.00  0.00    +0.000 C 
ENDBRANCH   1   2
BRANCH   1  13
ATOM     13  C   UNL     1       6.900   7.900  17.365  0.00  0.00    +0.000 C 
BRANCH  13  14
ATOM     14  C   UNL     1       8.269   8.363  17.897  0.00  0.00    +0.000 C 
BRANCH  14  15
ATOM     15  O   UNL     1       8.630   7.582  19.050  0.00  0.00    +0.000 OA
ATOM     16  H   UNL     1       9.219   6.873  18.733  0.00  0.00    +0.000 HD
ENDBRANCH  14  15
BRANCH  14  17
ATOM     17  C   UNL     1       8.253   9.857  18.281  0.00  0.00    +0.000 C 
BRANCH  17  18
ATOM     18  N   UNL     1       9.579  10.471  18.103  0.00  0.00    +0.000 NA
ATOM     19  H   UNL     1      10.274   9.721  18.050  0.00  0.00    +0.000 HD
BRANCH  18  21
ATOM     20  C   UNL     1       9.329  12.846  18.850  0.00  0.00    +0.000 C 
ATOM     21  C   UNL     1       9.962  11.470  19.117  0.00  0.00    +0.000 C 
ATOM     22  C   UNL     1      11.492  11.601  19.205  0.00  0.00    +0.000 C 
ATOM     23  C   UNL     1       9.448  10.966  20.481  0.00  0.00    +0.000 C 
ENDBRANCH  18  21
ENDBRANCH  17  18
ENDBRANCH  14  17
ENDBRANCH  13  14
ENDBRANCH   1  13
TORSDOF 7
ENDMDL
MODEL 9
REMARK VINA RESULT:      -6.3      2.428      3.380
REMARK  Name = 
REMARK  10 active torsions:
REMARK  status: ('A' for Active; 'I' for Inactive)
REMARK    1  A    between atoms: C_1  and  C_2
REMARK    2  A    between atoms: C_2  and  C_3
REMARK    3  A    between atoms: C_2  and  C_4
REMARK    4  A    between atoms: C_2  and  N_5
REMARK    5  A    between atoms: N_5  and  C_6
REMARK    6  A    between atoms: C_6  and  C_7
REMARK    7  A    between atoms: C_7  and  O_8
REMARK    8  A    between atoms: C_7  and  C_9
REMARK    9  A    between atoms: C_9  and  O_10
REMARK   10  A    between atoms: O_10  and  C_11
REMARK                            x       y       z     vdW  Elec       q    Type
REMARK                         _______ _______ _______ _____ _____    ______ ____
ROOT
ATOM      1  O   UNL     1       5.032   5.356  17.950  0.00  0.00    +0.000 OA
ENDROOT
BRANCH   1   2
ATOM      2  C   UNL     1       3.987   6.211  18.120  0.00  0.00    +0.000 A 
ATOM      3  N   UNL     1       4.048   7.410  17.546  0.00  0.00    +0.000 NA
ATOM      4  S   UNL     1       2.623   8.155  17.997  0.00  0.00    +0.000 S 
ATOM      5  N   UNL     1       1.936   6.960  18.934  0.00  0.00    +0.000 NA
ATOM      6  C   UNL     1       2.777   5.918  18.885  0.00  0.00    +0.000 A 
ATOM      7  N   UNL     1       2.572   4.751  19.567  0.00  0.00    +0.000 N 
ATOM      8  C   UNL     1       1.599   4.678  20.668  0.00  0.00    +0.000 C 
ATOM      9  C   UNL     1       2.118   3.661  21.704  0.00  0.00    +0.000 C 
ATOM     10  O   UNL     1       2.403   2.377  21.116  0.00  0.00    +0.000 OA
ATOM     11  C   UNL     1       3.349   2.506  20.038  0.00  0.00    +0.000 C 
ATOM     12  C   UNL     1       2.810   3.443  18.950  0.00  0.00    +0.000 C 
ENDBRANCH   1   2
BRANCH   1  13
ATOM     13  C   UNL     1       6.173   5.645  18.776  0.00  0.00    +0.000 C 
BRANCH  13  14
ATOM     14  C   UNL     1       7.435   5.768  17.902  0.00  0.00    +0.000 C 
BRANCH  14  15
ATOM     15  O   UNL     1       7.370   6.975  17.123  0.00  0.00    +0.000 OA
ATOM     16  H   UNL     1       7.082   6.714  16.229  0.00  0.00    +0.000 HD
ENDBRANCH  14  15
BRANCH  14  17
ATOM     17  C   UNL     1       7.590   4.559  16.955  0.00  0.00    +0.000 C 
BRANCH  17  18
ATOM     18  N   UNL     1       7.501   4.968  15.545  0.00  0.00    +0.000 NA
ATOM     19  H   UNL     1       7.556   5.990  15.504  0.00  0.00    +0.000 HD
BRANCH  18  21
ATOM     20  C   UNL     1       5.611   3.329  15.546  0.00  0.00    +0.000 C 
ATOM     21  C   UNL     1       6.320   4.478  14.810  0.00  0.00    +0.000 C 
ATOM     22  C   UNL     1       6.705   4.037  13.388  0.00  0.00    +0.000 C 
ATOM     23  C   UNL     1       5.327   5.652  14.693  0.00  0.00    +0.000 C 
ENDBRANCH  18  21
ENDBRANCH  17  18
ENDBRANCH  14  17
ENDBRANCH  13  14
ENDBRANCH   1  13
TORSDOF 7
ENDMDL
