MODEL 1
REMARK VINA RESULT:      -7.7      0.000      0.000
REMARK  Name = 
REMARK  6 active torsions:
REMARK  status: ('A' for Active; 'I' for Inactive)
REMARK    1  A    between atoms: N_1  and  C_2
REMARK    2  A    between atoms: C_2  and  C_3
REMARK    3  A    between atoms: C_2  and  C_11
REMARK    4  A    between atoms: C_3  and  C_4
REMARK    5  A    between atoms: C_7  and  O_8
REMARK    6  A    between atoms: C_16  and  C_17
REMARK                            x       y       z     vdW  Elec       q    Type
REMARK                         _______ _______ _______ _____ _____    ______ ____
ROOT
ATOM      1  C   UNL     1       1.115   8.939  20.590  0.00  0.00    +0.000 C 
ATOM      2  O   UNL     1       1.596   8.691  21.697  0.00  0.00    +0.000 OA
ATOM      3  N   UNL     1       0.205   9.978  20.401  0.00  0.00    +0.000 N 
ATOM      4  C   UNL     1      -0.633  10.119  19.212  0.00  0.00    +0.000 C 
ATOM      5  C   UNL     1      -0.555  11.547  18.680  0.00  0.00    +0.000 C 
ATOM      6  C   UNL     1      -0.988  12.564  19.757  0.00  0.00    +0.000 C 
ATOM      7  C   UNL     1      -0.109  12.349  21.006  0.00  0.00    +0.000 C 
ATOM      8  C   UNL     1      -0.100  10.895  21.495  0.00  0.00    +0.000 C 
ENDROOT
BRANCH   6   9
ATOM      9  C   UNL     1      -2.476  12.538  20.034  0.00  0.00    +0.000 A 
ATOM     10  N   UNL     1      -2.937  12.887  21.247  0.00  0.00    +0.000 NA
ATOM     11  O   UNL     1      -4.304  12.762  21.204  0.00  0.00    +0.000 OA
ATOM     12  C   UNL     1      -4.676  12.301  19.987  0.00  0.00    +0.000 A 
ATOM     13  C   UNL     1      -5.981  12.037  19.593  0.00  0.00    +0.000 A 
ATOM     14  C   UNL     1      -6.125  11.553  18.298  0.00  0.00    +0.000 A 
ATOM     15  F   UNL     1      -7.355  11.273  17.846  0.00  0.00    +0.000 F 
ATOM     16  C   UNL     1      -5.032  11.346  17.457  0.00  0.00    +0.000 A 
ATOM     17  C   UNL     1      -3.726  11.628  17.890  0.00  0.00    +0.000 A 
ATOM     18  C   UNL     1      -3.551  12.125  19.195  0.00  0.00    +0.000 A 
ENDBRANCH   6   9
BRANCH   1  19
ATOM     19  C   UNL     1       1.567   8.156  19.319  0.00  0.00    +0.000 C 
BRANCH  19  20
ATOM     20  N   UNL     1       2.207   9.119  18.384  0.00  0.00    +0.000 NA
ATOM     21  H   UNL     1       1.488   9.563  17.812  0.00  0.00    +0.000 HD
ATOM     22  H   UNL     1       2.793   8.593  17.735  0.00  0.00    +0.000 HD
ENDBRANCH  19  20
BRANCH  19  23
ATOM     23  C   UNL     1       2.524   7.003  19.694  0.00  0.00    +0.000 C 
BRANCH  23  24
ATOM     24  C   UNL     1       2.034   5.588  19.436  0.00  0.00    +0.000 A 
ATOM     25  C   UNL     1       2.176   5.054  18.145  0.00  0.00    +0.000 A 
ATOM     26  C   UNL     1       1.757   3.755  17.851  0.00  0.00    +0.000 A 
ATOM     27  C   UNL     1       1.198   2.974  18.855  0.00  0.00    +0.000 A 
ATOM     28  C   UNL     1       1.062   3.472  20.145  0.00  0.00    +0.000 A 
ATOM     29  C   UNL     1       1.487   4.772  20.438  0.00  0.00    +0.000 A 
BRANCH  27  30
ATOM     30  O   UNL     1       0.771   1.703  18.612  0.00  0.00    +0.000 OA
ATOM     31  H   UNL     1       1.163   1.113  19.277  0.00  0.00    +0.000 HD
ENDBRANCH  27  30
ENDBRANCH  23  24
ENDBRANCH  19  23
ENDBRANCH   1  19
TORSDOF 6
ENDMDL
MODEL 2
REMARK VINA RESULT:      -7.6      1.928      2.485
REMARK  Name = 
REMARK  6 active torsions:
REMARK  status: ('A' for Active; 'I' for Inactive)
REMARK    1  A    between atoms: N_1  and  C_2
REMARK    2  A    between atoms: C_2  and  C_3
REMARK    3  A    between atoms: C_2  and  C_11
REMARK    4  A    between atoms: C_3  and  C_4
REMARK    5  A    between atoms: C_7  and  O_8
REMARK    6  A    between atoms: C_16  and  C_17
REMARK                            x       y       z     vdW  Elec       q    Type
REMARK                         _______ _______ _______ _____ _____    ______ ____
ROOT
ATOM      1  C   UNL     1       0.995   8.984  20.831  0.00  0.00    +0.000 C 
ATOM      2  O   UNL     1       1.508   8.748  21.927  0.00  0.00    +0.000 OA
ATOM      3  N   UNL     1       0.067  10.010  20.662  0.00  0.00    +0.000 N 
ATOM      4  C   UNL     1      -0.804  10.135  19.494  0.00  0.00    +0.000 C 
ATOM      5  C   UNL     1      -0.758  11.561  18.954  0.00  0.00    +0.000 C 
ATOM      6  C   UNL     1      -1.175  12.578  20.036  0.00  0.00    +0.000 C 
ATOM      7  C   UNL     1      -0.261  12.380  21.263  0.00  0.00    +0.000 C 
ATOM      8  C   UNL     1      -0.221  10.929  21.758  0.00  0.00    +0.000 C 
ENDROOT
BRANCH   6   9
ATOM      9  C   UNL     1      -2.655  12.534  20.353  0.00  0.00    +0.000 A 
ATOM     10  N   UNL     1      -3.542  12.285  19.375  0.00  0.00    +0.000 NA
ATOM     11  O   UNL     1      -4.788  12.315  19.950  0.00  0.00    +0.000 OA
ATOM     12  C   UNL     1      -4.671  12.620  21.263  0.00  0.00    +0.000 A 
ATOM     13  C   UNL     1      -5.728  12.755  22.154  0.00  0.00    +0.000 A 
ATOM     14  C   UNL     1      -5.370  13.091  23.454  0.00  0.00    +0.000 A 
ATOM     15  F   UNL     1      -6.335  13.241  24.371  0.00  0.00    +0.000 F 
ATOM     16  C   UNL     1      -4.041  13.280  23.834  0.00  0.00    +0.000 A 
ATOM     17  C   UNL     1      -2.999  13.132  22.905  0.00  0.00    +0.000 A 
ATOM     18  C   UNL     1      -3.331  12.787  21.582  0.00  0.00    +0.000 A 
ENDBRANCH   6   9
BRANCH   1  19
ATOM     19  C   UNL     1       1.423   8.200  19.552  0.00  0.00    +0.000 C 
BRANCH  19  20
ATOM     20  N   UNL     1       2.056   9.162  18.610  0.00  0.00    +0.000 NA
ATOM     21  H   UNL     1       2.198  10.054  19.083  0.00  0.00    +0.000 HD
ATOM     22  H   UNL     1       1.397   9.348  17.854  0.00  0.00    +0.000 HD
ENDBRANCH  19  20
BRANCH  19  23
ATOM     23  C   UNL     1       2.379   7.041  19.912  0.00  0.00    +0.000 C 
BRANCH  23  24
ATOM     24  C   UNL     1       1.935   5.639  19.529  0.00  0.00    +0.000 A 
ATOM     25  C   UNL     1       2.109   5.219  18.200  0.00  0.00    +0.000 A 
ATOM     26  C   UNL     1       1.734   3.937  17.794  0.00  0.00    +0.000 A 
ATOM     27  C   UNL     1       1.187   3.059  18.721  0.00  0.00    +0.000 A 
ATOM     28  C   UNL     1       1.021   3.443  20.045  0.00  0.00    +0.000 A 
ATOM     29  C   UNL     1       1.402   4.726  20.452  0.00  0.00    +0.000 A 
BRANCH  27  30
ATOM     30  O   UNL     1       0.802   1.800  18.366  0.00  0.00    +0.000 OA
ATOM     31  H   UNL     1      -0.118   1.667  18.650  0.00  0.00    +0.000 HD
ENDBRANCH  27  30
ENDBRANCH  23  24
ENDBRANCH  19  23
ENDBRANCH   1  19
TORSDOF 6
ENDMDL
MODEL 3
REMARK VINA RESULT:      -7.5      4.285      9.368
REMARK  Name = 
REMARK  6 active torsions:
REMARK  status: ('A' for Active; 'I' for Inactive)
REMARK    1  A    between atoms: N_1  and  C_2
REMARK    2  A    between atoms: C_2  and  C_3
REMARK    3  A    between atoms: C_2  and  C_11
REMARK    4  A    between atoms: C_3  and  C_4
REMARK    5  A    between atoms: C_7  and  O_8
REMARK    6  A    between atoms: C_16  and  C_17
REMARK                            x       y       z     vdW  Elec       q    Type
REMARK                         _______ _______ _______ _____ _____    ______ ____
ROOT
ATOM      1  C   UNL     1       1.161   9.465  19.962  0.00  0.00    +0.000 C 
ATOM      2  O   UNL     1       0.976   9.762  21.144  0.00  0.00    +0.000 OA
ATOM      3  N   UNL     1       1.794   8.278  19.595  0.00  0.00    +0.000 N 
ATOM      4  C   UNL     1       2.325   8.020  18.257  0.00  0.00    +0.000 C 
ATOM      5  C   UNL     1       1.865   6.651  17.764  0.00  0.00    +0.000 C 
ATOM      6  C   UNL     1       2.305   5.535  18.733  0.00  0.00    +0.000 C 
ATOM      7  C   UNL     1       1.761   5.872  20.137  0.00  0.00    +0.000 C 
ATOM      8  C   UNL     1       2.135   7.283  20.607  0.00  0.00    +0.000 C 
ENDROOT
BRANCH   6   9
ATOM      9  C   UNL     1       3.795   5.267  18.693  0.00  0.00    +0.000 A 
ATOM     10  N   UNL     1       4.486   5.157  19.840  0.00  0.00    +0.000 NA
ATOM     11  O   UNL     1       5.795   4.925  19.495  0.00  0.00    +0.000 OA
ATOM     12  C   UNL     1       5.913   4.933  18.147  0.00  0.00    +0.000 A 
ATOM     13  C   UNL     1       7.097   4.751  17.444  0.00  0.00    +0.000 A 
ATOM     14  C   UNL     1       6.982   4.817  16.060  0.00  0.00    +0.000 A 
ATOM     15  F   UNL     1       8.082   4.652  15.313  0.00  0.00    +0.000 F 
ATOM     16  C   UNL     1       5.762   5.051  15.426  0.00  0.00    +0.000 A 
ATOM     17  C   UNL     1       4.586   5.228  16.171  0.00  0.00    +0.000 A 
ATOM     18  C   UNL     1       4.670   5.161  17.574  0.00  0.00    +0.000 A 
ENDBRANCH   6   9
BRANCH   1  19
ATOM     19  C   UNL     1       0.617  10.361  18.808  0.00  0.00    +0.000 C 
BRANCH  19  20
ATOM     20  N   UNL     1       1.780  10.940  18.082  0.00  0.00    +0.000 NA
ATOM     21  H   UNL     1       1.465  11.725  17.512  0.00  0.00    +0.000 HD
ATOM     22  H   UNL     1       2.127  10.240  17.426  0.00  0.00    +0.000 HD
ENDBRANCH  19  20
BRANCH  19  23
ATOM     23  C   UNL     1      -0.297   9.549  17.864  0.00  0.00    +0.000 C 
BRANCH  23  24
ATOM     24  C   UNL     1      -1.664  10.136  17.555  0.00  0.00    +0.000 A 
ATOM     25  C   UNL     1      -2.233  11.034  18.473  0.00  0.00    +0.000 A 
ATOM     26  C   UNL     1      -3.479  11.616  18.236  0.00  0.00    +0.000 A 
ATOM     27  C   UNL     1      -4.166  11.308  17.068  0.00  0.00    +0.000 A 
ATOM     28  C   UNL     1      -3.619  10.436  16.135  0.00  0.00    +0.000 A 
ATOM     29  C   UNL     1      -2.367   9.858  16.372  0.00  0.00    +0.000 A 
BRANCH  27  30
ATOM     30  O   UNL     1      -5.388  11.849  16.799  0.00  0.00    +0.000 OA
ATOM     31  H   UNL     1      -5.446  12.713  17.238  0.00  0.00    +0.000 HD
ENDBRANCH  27  30
ENDBRANCH  23  24
ENDBRANCH  19  23
ENDBRANCH   1  19
TORSDOF 6
ENDMDL
MODEL 4
REMARK VINA RESULT:      -7.4      4.228      9.697
REMARK  Name = 
REMARK  6 active torsions:
REMARK  status: ('A' for Active; 'I' for Inactive)
REMARK    1  A    between atoms: N_1  and  C_2
REMARK    2  A    between atoms: C_2  and  C_3
REMARK    3  A    between atoms: C_2  and  C_11
REMARK    4  A    between atoms: C_3  and  C_4
REMARK    5  A    between atoms: C_7  and  O_8
REMARK    6  A    between atoms: C_16  and  C_17
REMARK                            x       y       z     vdW  Elec       q    Type
REMARK                         _______ _______ _______ _____ _____    ______ ____
ROOT
ATOM      1  C   UNL     1       1.285   8.600  20.859  0.00  0.00    +0.000 C 
ATOM      2  O   UNL     1       1.068   8.518  22.069  0.00  0.00    +0.000 OA
ATOM      3  N   UNL     1       1.891   7.563  20.151  0.00  0.00    +0.000 N 
ATOM      4  C   UNL     1       2.461   7.715  18.813  0.00  0.00    +0.000 C 
ATOM      5  C   UNL     1       1.972   6.594  17.901  0.00  0.00    +0.000 C 
ATOM      6  C   UNL     1       2.338   5.211  18.479  0.00  0.00    +0.000 C 
ATOM      7  C   UNL     1       1.755   5.112  19.904  0.00  0.00    +0.000 C 
ATOM      8  C   UNL     1       2.159   6.285  20.804  0.00  0.00    +0.000 C 
ENDROOT
BRANCH   6   9
ATOM      9  C   UNL     1       3.818   4.904  18.392  0.00  0.00    +0.000 A 
ATOM     10  N   UNL     1       4.493   4.544  19.496  0.00  0.00    +0.000 NA
ATOM     11  O   UNL     1       5.797   4.339  19.117  0.00  0.00    +0.000 OA
ATOM     12  C   UNL     1       5.930   4.609  17.797  0.00  0.00    +0.000 A 
ATOM     13  C   UNL     1       7.114   4.528  17.077  0.00  0.00    +0.000 A 
ATOM     14  C   UNL     1       7.016   4.870  15.733  0.00  0.00    +0.000 A 
ATOM     15  F   UNL     1       8.117   4.817  14.972  0.00  0.00    +0.000 F 
ATOM     16  C   UNL     1       5.811   5.268  15.153  0.00  0.00    +0.000 A 
ATOM     17  C   UNL     1       4.634   5.335  15.914  0.00  0.00    +0.000 A 
ATOM     18  C   UNL     1       4.701   4.989  17.277  0.00  0.00    +0.000 A 
ENDBRANCH   6   9
BRANCH   1  19
ATOM     19  C   UNL     1       0.815   9.838  20.035  0.00  0.00    +0.000 C 
BRANCH  19  20
ATOM     20  N   UNL     1      -0.560   9.568  19.537  0.00  0.00    +0.000 NA
ATOM     21  H   UNL     1      -0.624   9.842  18.556  0.00  0.00    +0.000 HD
ATOM     22  H   UNL     1      -1.206  10.178  20.039  0.00  0.00    +0.000 HD
ENDBRANCH  19  20
BRANCH  19  23
ATOM     23  C   UNL     1       0.871  11.122  20.892  0.00  0.00    +0.000 C 
BRANCH  23  24
ATOM     24  C   UNL     1      -0.443  11.623  21.468  0.00  0.00    +0.000 A 
ATOM     25  C   UNL     1      -1.236  12.479  20.687  0.00  0.00    +0.000 A 
ATOM     26  C   UNL     1      -2.458  12.960  21.158  0.00  0.00    +0.000 A 
ATOM     27  C   UNL     1      -2.903  12.579  22.418  0.00  0.00    +0.000 A 
ATOM     28  C   UNL     1      -2.147  11.719  23.204  0.00  0.00    +0.000 A 
ATOM     29  C   UNL     1      -0.924  11.234  22.728  0.00  0.00    +0.000 A 
BRANCH  27  30
ATOM     30  O   UNL     1      -4.088  13.029  22.919  0.00  0.00    +0.000 OA
ATOM     31  H   UNL     1      -4.315  13.862  22.474  0.00  0.00    +0.000 HD
ENDBRANCH  27  30
ENDBRANCH  23  24
ENDBRANCH  19  23
ENDBRANCH   1  19
TORSDOF 6
ENDMDL
MODEL 5
REMARK VINA RESULT:      -7.4      2.012      2.702
REMARK  Name = 
REMARK  6 active torsions:
REMARK  status: ('A' for Active; 'I' for Inactive)
REMARK    1  A    between atoms: N_1  and  C_2
REMARK    2  A    between atoms: C_2  and  C_3
REMARK    3  A    between atoms: C_2  and  C_11
REMARK    4  A    between atoms: C_3  and  C_4
REMARK    5  A    between atoms: C_7  and  O_8
REMARK    6  A    between atoms: C_16  and  C_17
REMARK                            x       y       z     vdW  Elec       q    Type
REMARK                         _______ _______ _______ _____ _____    ______ ____
ROOT
ATOM      1  C   UNL     1       0.241  10.187  22.043  0.00  0.00    +0.000 C 
ATOM      2  O   UNL     1      -0.024  10.541  23.193  0.00  0.00    +0.000 OA
ATOM      3  N   UNL     1      -0.446  10.699  20.942  0.00  0.00    +0.000 N 
ATOM      4  C   UNL     1      -0.409  10.099  19.610  0.00  0.00    +0.000 C 
ATOM      5  C   UNL     1      -0.130  11.170  18.558  0.00  0.00    +0.000 C 
ATOM      6  C   UNL     1      -1.194  12.286  18.608  0.00  0.00    +0.000 C 
ATOM      7  C   UNL     1      -1.229  12.858  20.040  0.00  0.00    +0.000 C 
ATOM      8  C   UNL     1      -1.411  11.780  21.116  0.00  0.00    +0.000 C 
ENDROOT
BRANCH   6   9
ATOM      9  C   UNL     1      -2.544  11.843  18.084  0.00  0.00    +0.000 A 
ATOM     10  N   UNL     1      -2.638  11.278  16.869  0.00  0.00    +0.000 NA
ATOM     11  O   UNL     1      -3.965  10.991  16.665  0.00  0.00    +0.000 OA
ATOM     12  C   UNL     1      -4.686  11.413  17.730  0.00  0.00    +0.000 A 
ATOM     13  C   UNL     1      -6.064  11.304  17.861  0.00  0.00    +0.000 A 
ATOM     14  C   UNL     1      -6.592  11.824  19.038  0.00  0.00    +0.000 A 
ATOM     15  F   UNL     1      -7.915  11.757  19.236  0.00  0.00    +0.000 F 
ATOM     16  C   UNL     1      -5.790  12.413  20.015  0.00  0.00    +0.000 A 
ATOM     17  C   UNL     1      -4.400  12.503  19.848  0.00  0.00    +0.000 A 
ATOM     18  C   UNL     1      -3.836  11.980  18.669  0.00  0.00    +0.000 A 
ENDBRANCH   6   9
BRANCH   1  19
ATOM     19  C   UNL     1       1.420   9.210  21.748  0.00  0.00    +0.000 C 
BRANCH  19  20
ATOM     20  N   UNL     1       2.288   9.153  22.955  0.00  0.00    +0.000 NA
ATOM     21  H   UNL     1       1.719   9.312  23.787  0.00  0.00    +0.000 HD
ATOM     22  H   UNL     1       2.945   9.931  22.912  0.00  0.00    +0.000 HD
ENDBRANCH  19  20
BRANCH  19  23
ATOM     23  C   UNL     1       0.891   7.812  21.358  0.00  0.00    +0.000 C 
BRANCH  23  24
ATOM     24  C   UNL     1       1.731   7.004  20.384  0.00  0.00    +0.000 A 
ATOM     25  C   UNL     1       1.918   5.634  20.634  0.00  0.00    +0.000 A 
ATOM     26  C   UNL     1       2.668   4.838  19.767  0.00  0.00    +0.000 A 
ATOM     27  C   UNL     1       3.234   5.408  18.633  0.00  0.00    +0.000 A 
ATOM     28  C   UNL     1       3.050   6.756  18.353  0.00  0.00    +0.000 A 
ATOM     29  C   UNL     1       2.294   7.551  19.220  0.00  0.00    +0.000 A 
BRANCH  27  30
ATOM     30  O   UNL     1       3.978   4.669  17.762  0.00  0.00    +0.000 OA
ATOM     31  H   UNL     1       3.469   4.553  16.943  0.00  0.00    +0.000 HD
ENDBRANCH  27  30
ENDBRANCH  23  24
ENDBRANCH  19  23
ENDBRANCH   1  19
TORSDOF 6
ENDMDL
MODEL 6
REMARK VINA RESULT:      -7.4      3.283      8.916
REMARK  Name = 
REMARK  6 active torsions:
REMARK  status: ('A' for Active; 'I' for Inactive)
REMARK    1  A    between atoms: N_1  and  C_2
REMARK    2  A    between atoms: C_2  and  C_3
REMARK    3  A    between atoms: C_2  and  C_11
REMARK    4  A    between atoms: C_3  and  C_4
REMARK    5  A    between atoms: C_7  and  O_8
REMARK    6  A    between atoms: C_16  and  C_17
REMARK                            x       y       z     vdW  Elec       q    Type
REMARK                         _______ _______ _______ _____ _____    ______ ____
ROOT
ATOM      1  C   UNL     1      -2.418  11.309  18.564  0.00  0.00    +0.000 C 
ATOM      2  O   UNL     1      -2.858  11.275  17.413  0.00  0.00    +0.000 OA
ATOM      3  N   UNL     1      -1.261  10.621  18.927  0.00  0.00    +0.000 N 
ATOM      4  C   UNL     1      -0.872  10.358  20.312  0.00  0.00    +0.000 C 
ATOM      5  C   UNL     1       0.592  10.733  20.527  0.00  0.00    +0.000 C 
ATOM      6  C   UNL     1       1.511   9.957  19.562  0.00  0.00    +0.000 C 
ATOM      7  C   UNL     1       1.037  10.228  18.119  0.00  0.00    +0.000 C 
ATOM      8  C   UNL     1      -0.457   9.948  17.912  0.00  0.00    +0.000 C 
ENDROOT
BRANCH   6   9
ATOM      9  C   UNL     1       1.631   8.488  19.909  0.00  0.00    +0.000 A 
ATOM     10  N   UNL     1       1.117   8.028  21.061  0.00  0.00    +0.000 NA
ATOM     11  O   UNL     1       1.380   6.681  21.105  0.00  0.00    +0.000 OA
ATOM     12  C   UNL     1       2.086   6.324  20.007  0.00  0.00    +0.000 A 
ATOM     13  C   UNL     1       2.542   5.043  19.728  0.00  0.00    +0.000 A 
ATOM     14  C   UNL     1       3.263   4.914  18.546  0.00  0.00    +0.000 A 
ATOM     15  F   UNL     1       3.738   3.707  18.209  0.00  0.00    +0.000 F 
ATOM     16  C   UNL     1       3.510   5.998  17.704  0.00  0.00    +0.000 A 
ATOM     17  C   UNL     1       3.030   7.278  18.019  0.00  0.00    +0.000 A 
ATOM     18  C   UNL     1       2.292   7.438  19.206  0.00  0.00    +0.000 A 
ENDBRANCH   6   9
BRANCH   1  19
ATOM     19  C   UNL     1      -3.085  12.197  19.659  0.00  0.00    +0.000 C 
BRANCH  19  20
ATOM     20  N   UNL     1      -2.401  13.518  19.665  0.00  0.00    +0.000 NA
ATOM     21  H   UNL     1      -1.468  13.414  20.065  0.00  0.00    +0.000 HD
ATOM     22  H   UNL     1      -2.908  14.137  20.298  0.00  0.00    +0.000 HD
ENDBRANCH  19  20
BRANCH  19  23
ATOM     23  C   UNL     1      -4.601  12.340  19.402  0.00  0.00    +0.000 C 
BRANCH  23  24
ATOM     24  C   UNL     1      -5.508  12.357  20.621  0.00  0.00    +0.000 A 
ATOM     25  C   UNL     1      -5.015  12.902  21.818  0.00  0.00    +0.000 A 
ATOM     26  C   UNL     1      -5.807  12.957  22.966  0.00  0.00    +0.000 A 
ATOM     27  C   UNL     1      -7.108  12.471  22.923  0.00  0.00    +0.000 A 
ATOM     28  C   UNL     1      -7.627  11.943  21.747  0.00  0.00    +0.000 A 
ATOM     29  C   UNL     1      -6.833  11.894  20.596  0.00  0.00    +0.000 A 
BRANCH  27  30
ATOM     30  O   UNL     1      -7.915  12.500  24.021  0.00  0.00    +0.000 OA
ATOM     31  H   UNL     1      -8.485  13.285  23.965  0.00  0.00    +0.000 HD
ENDBRANCH  27  30
ENDBRANCH  23  24
ENDBRANCH  19  23
ENDBRANCH   1  19
TORSDOF 6
ENDMDL
MODEL 7
REMARK VINA RESULT:      -7.3      2.259      2.903
REMARK  Name = 
REMARK  6 active torsions:
REMARK  status: ('A' for Active; 'I' for Inactive)
REMARK    1  A    between atoms: N_1  and  C_2
REMARK    2  A    between atoms: C_2  and  C_3
REMARK    3  A    between atoms: C_2  and  C_11
REMARK    4  A    between atoms: C_3  and  C_4
REMARK    5  A    between atoms: C_7  and  O_8
REMARK    6  A    between atoms: C_16  and  C_17
REMARK                            x       y       z     vdW  Elec       q    Type
REMARK                         _______ _______ _______ _____ _____    ______ ____
ROOT
ATOM      1  C   UNL     1       0.548   9.840  19.566  0.00  0.00    +0.000 C 
ATOM      2  O   UNL     1       1.100  10.150  20.623  0.00  0.00    +0.000 OA
ATOM      3  N   UNL     1      -0.680  10.384  19.192  0.00  0.00    +0.000 N 
ATOM      4  C   UNL     1      -1.526   9.832  18.136  0.00  0.00    +0.000 C 
ATOM      5  C   UNL     1      -1.980  10.941  17.191  0.00  0.00    +0.000 C 
ATOM      6  C   UNL     1      -2.739  12.045  17.956  0.00  0.00    +0.000 C 
ATOM      7  C   UNL     1      -1.826  12.566  19.085  0.00  0.00    +0.000 C 
ATOM      8  C   UNL     1      -1.284  11.450  19.986  0.00  0.00    +0.000 C 
ENDROOT
BRANCH   6   9
ATOM      9  C   UNL     1      -4.112  11.609  18.420  0.00  0.00    +0.000 A 
ATOM     10  N   UNL     1      -4.820  10.732  17.687  0.00  0.00    +0.000 NA
ATOM     11  O   UNL     1      -6.010  10.534  18.343  0.00  0.00    +0.000 OA
ATOM     12  C   UNL     1      -6.049  11.313  19.450  0.00  0.00    +0.000 A 
ATOM     13  C   UNL     1      -7.110  11.385  20.343  0.00  0.00    +0.000 A 
ATOM     14  C   UNL     1      -6.935  12.269  21.402  0.00  0.00    +0.000 A 
ATOM     15  F   UNL     1      -7.917  12.395  22.306  0.00  0.00    +0.000 F 
ATOM     16  C   UNL     1      -5.776  13.030  21.551  0.00  0.00    +0.000 A 
ATOM     17  C   UNL     1      -4.724  12.927  20.628  0.00  0.00    +0.000 A 
ATOM     18  C   UNL     1      -4.869  12.036  19.549  0.00  0.00    +0.000 A 
ENDBRANCH   6   9
BRANCH   1  19
ATOM     19  C   UNL     1       1.238   8.884  18.544  0.00  0.00    +0.000 C 
BRANCH  19  20
ATOM     20  N   UNL     1       1.935   9.717  17.527  0.00  0.00    +0.000 NA
ATOM     21  H   UNL     1       1.729   9.354  16.596  0.00  0.00    +0.000 HD
ATOM     22  H   UNL     1       2.940   9.602  17.656  0.00  0.00    +0.000 HD
ENDBRANCH  19  20
BRANCH  19  23
ATOM     23  C   UNL     1       2.213   7.924  19.261  0.00  0.00    +0.000 C 
BRANCH  23  24
ATOM     24  C   UNL     1       2.859   6.840  18.415  0.00  0.00    +0.000 A 
ATOM     25  C   UNL     1       3.998   7.166  17.662  0.00  0.00    +0.000 A 
ATOM     26  C   UNL     1       4.643   6.208  16.878  0.00  0.00    +0.000 A 
ATOM     27  C   UNL     1       4.154   4.908  16.847  0.00  0.00    +0.000 A 
ATOM     28  C   UNL     1       3.039   4.555  17.597  0.00  0.00    +0.000 A 
ATOM     29  C   UNL     1       2.398   5.515  18.386  0.00  0.00    +0.000 A 
BRANCH  27  30
ATOM     30  O   UNL     1       4.749   3.942  16.091  0.00  0.00    +0.000 OA
ATOM     31  H   UNL     1       4.416   4.013  15.181  0.00  0.00    +0.000 HD
ENDBRANCH  27  30
ENDBRANCH  23  24
ENDBRANCH  19  23
ENDBRANCH   1  19
TORSDOF 6
ENDMDL
MODEL 8
REMARK VINA RESULT:      -7.3      2.240      2.791
REMARK  Name = 
REMARK  6 active torsions:
REMARK  status: ('A' for Active; 'I' for Inactive)
REMARK    1  A    between atoms: N_1  and  C_2
REMARK    2  A    between atoms: C_2  and  C_3
REMARK    3  A    between atoms: C_2  and  C_11
REMARK    4  A    between atoms: C_3  and  C_4
REMARK    5  A    between atoms: C_7  and  O_8
REMARK    6  A    between atoms: C_16  and  C_17
REMARK                            x       y       z     vdW  Elec       q    Type
REMARK                         _______ _______ _______ _____ _____    ______ ____
ROOT
ATOM      1  C   UNL     1       1.488   8.655  19.521  0.00  0.00    +0.000 C 
ATOM      2  O   UNL     1       1.925   7.994  20.465  0.00  0.00    +0.000 OA
ATOM      3  N   UNL     1       0.663   9.761  19.720  0.00  0.00    +0.000 N 
ATOM      4  C   UNL     1      -0.137  10.380  18.665  0.00  0.00    +0.000 C 
ATOM      5  C   UNL     1       0.060  11.894  18.674  0.00  0.00    +0.000 C 
ATOM      6  C   UNL     1      -0.317  12.493  20.045  0.00  0.00    +0.000 C 
ATOM      7  C   UNL     1       0.517  11.781  21.130  0.00  0.00    +0.000 C 
ATOM      8  C   UNL     1       0.406  10.252  21.070  0.00  0.00    +0.000 C 
ENDROOT
BRANCH   6   9
ATOM      9  C   UNL     1      -1.808  12.487  20.306  0.00  0.00    +0.000 A 
ATOM     10  N   UNL     1      -2.667  12.373  19.278  0.00  0.00    +0.000 NA
ATOM     11  O   UNL     1      -3.932  12.405  19.812  0.00  0.00    +0.000 OA
ATOM     12  C   UNL     1      -3.851  12.577  21.152  0.00  0.00    +0.000 A 
ATOM     13  C   UNL     1      -4.934  12.674  22.015  0.00  0.00    +0.000 A 
ATOM     14  C   UNL     1      -4.612  12.866  23.354  0.00  0.00    +0.000 A 
ATOM     15  F   UNL     1      -5.604  12.971  24.248  0.00  0.00    +0.000 F 
ATOM     16  C   UNL     1      -3.291  12.957  23.794  0.00  0.00    +0.000 A 
ATOM     17  C   UNL     1      -2.222  12.851  22.891  0.00  0.00    +0.000 A 
ATOM     18  C   UNL     1      -2.518  12.650  21.530  0.00  0.00    +0.000 A 
ENDBRANCH   6   9
BRANCH   1  19
ATOM     19  C   UNL     1       1.906   8.341  18.052  0.00  0.00    +0.000 C 
BRANCH  19  20
ATOM     20  N   UNL     1       2.142   9.632  17.350  0.00  0.00    +0.000 NA
ATOM     21  H   UNL     1       1.248  10.018  17.045  0.00  0.00    +0.000 HD
ATOM     22  H   UNL     1       2.668   9.440  16.498  0.00  0.00    +0.000 HD
ENDBRANCH  19  20
BRANCH  19  23
ATOM     23  C   UNL     1       3.157   7.436  18.017  0.00  0.00    +0.000 C 
BRANCH  23  24
ATOM     24  C   UNL     1       2.922   5.939  17.901  0.00  0.00    +0.000 A 
ATOM     25  C   UNL     1       4.026   5.102  17.675  0.00  0.00    +0.000 A 
ATOM     26  C   UNL     1       3.874   3.718  17.573  0.00  0.00    +0.000 A 
ATOM     27  C   UNL     1       2.609   3.158  17.705  0.00  0.00    +0.000 A 
ATOM     28  C   UNL     1       1.503   3.962  17.947  0.00  0.00    +0.000 A 
ATOM     29  C   UNL     1       1.658   5.348  18.053  0.00  0.00    +0.000 A 
BRANCH  27  30
ATOM     30  O   UNL     1       2.414   1.813  17.608  0.00  0.00    +0.000 OA
ATOM     31  H   UNL     1       3.268   1.367  17.735  0.00  0.00    +0.000 HD
ENDBRANCH  27  30
ENDBRANCH  23  24
ENDBRANCH  19  23
ENDBRANCH   1  19
TORSDOF 6
ENDMDL
MODEL 9
REMARK VINA RESULT:      -7.3      4.900      9.765
REMARK  Name = 
REMARK  6 active torsions:
REMARK  status: ('A' for Active; 'I' for Inactive)
REMARK    1  A    between atoms: N_1  and  C_2
REMARK    2  A    between atoms: C_2  and  C_3
REMARK    3  A    between atoms: C_2  and  C_11
REMARK    4  A    between atoms: C_3  and  C_4
REMARK    5  A    between atoms: C_7  and  O_8
REMARK    6  A    between atoms: C_16  and  C_17
REMARK                            x       y       z     vdW  Elec       q    Type
REMARK                         _______ _______ _______ _____ _____    ______ ____
ROOT
ATOM      1  C   UNL     1       1.245   8.727  20.837  0.00  0.00    +0.000 C 
ATOM      2  O   UNL     1       1.030   8.685  22.050  0.00  0.00    +0.000 OA
ATOM      3  N   UNL     1       1.857   7.671  20.164  0.00  0.00    +0.000 N 
ATOM      4  C   UNL     1       2.424   7.782  18.821  0.00  0.00    +0.000 C 
ATOM      5  C   UNL     1       1.942   6.626  17.949  0.00  0.00    +0.000 C 
ATOM      6  C   UNL     1       2.320   5.266  18.573  0.00  0.00    +0.000 C 
ATOM      7  C   UNL     1       1.740   5.212  20.001  0.00  0.00    +0.000 C 
ATOM      8  C   UNL     1       2.136   6.418  20.860  0.00  0.00    +0.000 C 
ENDROOT
BRANCH   6   9
ATOM      9  C   UNL     1       3.802   4.967  18.494  0.00  0.00    +0.000 A 
ATOM     10  N   UNL     1       4.485   4.667  19.611  0.00  0.00    +0.000 NA
ATOM     11  O   UNL     1       5.788   4.455  19.236  0.00  0.00    +0.000 OA
ATOM     12  C   UNL     1       5.913   4.662  17.904  0.00  0.00    +0.000 A 
ATOM     13  C   UNL     1       7.095   4.555  17.183  0.00  0.00    +0.000 A 
ATOM     14  C   UNL     1       6.988   4.831  15.824  0.00  0.00    +0.000 A 
ATOM     15  F   UNL     1       8.086   4.750  15.061  0.00  0.00    +0.000 F 
ATOM     16  C   UNL     1       5.777   5.190  15.232  0.00  0.00    +0.000 A 
ATOM     17  C   UNL     1       4.603   5.285  15.994  0.00  0.00    +0.000 A 
ATOM     18  C   UNL     1       4.679   5.006  17.371  0.00  0.00    +0.000 A 
ENDBRANCH   6   9
BRANCH   1  19
ATOM     19  C   UNL     1       0.765   9.932  19.972  0.00  0.00    +0.000 C 
BRANCH  19  20
ATOM     20  N   UNL     1      -0.661   9.706  19.613  0.00  0.00    +0.000 NA
ATOM     21  H   UNL     1      -0.953   8.790  19.953  0.00  0.00    +0.000 HD
ATOM     22  H   UNL     1      -0.731   9.662  18.597  0.00  0.00    +0.000 HD
ENDBRANCH  19  20
BRANCH  19  23
ATOM     23  C   UNL     1       0.958  11.264  20.730  0.00  0.00    +0.000 C 
BRANCH  23  24
ATOM     24  C   UNL     1       1.722  12.362  20.009  0.00  0.00    +0.000 A 
ATOM     25  C   UNL     1       1.823  12.303  18.609  0.00  0.00    +0.000 A 
ATOM     26  C   UNL     1       2.500  13.290  17.892  0.00  0.00    +0.000 A 
ATOM     27  C   UNL     1       3.077  14.355  18.572  0.00  0.00    +0.000 A 
ATOM     28  C   UNL     1       2.977  14.448  19.955  0.00  0.00    +0.000 A 
ATOM     29  C   UNL     1       2.294  13.460  20.671  0.00  0.00    +0.000 A 
BRANCH  27  30
ATOM     30  O   UNL     1       3.752  15.339  17.912  0.00  0.00    +0.000 OA
ATOM     31  H   UNL     1       4.700  15.127  17.928  0.00  0.00    +0.000 HD
ENDBRANCH  27  30
ENDBRANCH  23  24
ENDBRANCH  19  23
ENDBRANCH   1  19
TORSDOF 6
ENDMDL
