MODEL 1
REMARK VINA RESULT:      -7.8      0.000      0.000
REMARK  Name = 
REMARK  6 active torsions:
REMARK  status: ('A' for Active; 'I' for Inactive)
REMARK    1  A    between atoms: C_1  and  C_8
REMARK    2  A    between atoms: C_2  and  C_3
REMARK    3  A    between atoms: C_8  and  C_9
REMARK    4  A    between atoms: C_9  and  N_10
REMARK    5  A    between atoms: C_13  and  C_14
REMARK    6  A    between atoms: C_14  and  C_15
REMARK                            x       y       z     vdW  Elec       q    Type
REMARK                         _______ _______ _______ _____ _____    ______ ____
ROOT
ATOM      1  N   UNL     1       7.319   5.987  17.767  0.00  0.00    +0.000 NA
ATOM      2  C   UNL     1       6.508   5.317  18.792  0.00  0.00    +0.000 C 
ATOM      3  C   UNL     1       5.770   4.121  18.200  0.00  0.00    +0.000 C 
ATOM      4  C   UNL     1       4.843   4.553  17.056  0.00  0.00    +0.000 C 
ATOM      5  C   UNL     1       5.740   5.191  15.990  0.00  0.00    +0.000 C 
ATOM      6  C   UNL     1       6.542   6.358  16.571  0.00  0.00    +0.000 C 
ENDROOT
BRANCH   1   7
ATOM      7  C   UNL     1       8.017   7.127  18.391  0.00  0.00    +0.000 C 
BRANCH   7   8
ATOM      8  C   UNL     1       7.712   8.438  17.697  0.00  0.00    +0.000 C 
BRANCH   8   9
ATOM      9  C   UNL     1       8.577   9.591  18.182  0.00  0.00    +0.000 C 
ATOM     10  C   UNL     1       9.319  10.579  18.597  0.00  0.00    +0.000 C 
BRANCH  10  11
ATOM     11  C   UNL     1      10.135  11.656  19.030  0.00  0.00    +0.000 A 
ATOM     12  C   UNL     1      10.630  12.743  18.287  0.00  0.00    +0.000 A 
ATOM     13  N   UNL     1      11.369  13.568  19.035  0.00  0.00    +0.000 NA
ATOM     14  N   UNL     1      11.343  13.002  20.253  0.00  0.00    +0.000 N 
ATOM     15  C   UNL     1      10.611  11.848  20.303  0.00  0.00    +0.000 A 
ATOM     16  H   UNL     1      11.846  13.456  21.008  0.00  0.00    +0.000 HD
ENDBRANCH  10  11
ENDBRANCH   8   9
ENDBRANCH   7   8
ENDBRANCH   1   7
BRANCH   4  17
ATOM     17  C   UNL     1       3.721   5.538  17.463  0.00  0.00    +0.000 C 
BRANCH  17  18
ATOM     18  C   UNL     1       2.788   5.033  18.536  0.00  0.00    +0.000 A 
ATOM     19  C   UNL     1       2.723   5.688  19.777  0.00  0.00    +0.000 A 
ATOM     20  C   UNL     1       1.814   5.260  20.749  0.00  0.00    +0.000 A 
ATOM     21  C   UNL     1       0.948   4.207  20.480  0.00  0.00    +0.000 A 
ATOM     22  C   UNL     1       1.013   3.546  19.255  0.00  0.00    +0.000 A 
ATOM     23  C   UNL     1       1.943   3.947  18.298  0.00  0.00    +0.000 A 
ENDBRANCH  17  18
ENDBRANCH   4  17
TORSDOF 6
ENDMDL
MODEL 2
REMARK VINA RESULT:      -7.8      0.764      1.496
REMARK  Name = 
REMARK  6 active torsions:
REMARK  status: ('A' for Active; 'I' for Inactive)
REMARK    1  A    between atoms: C_1  and  C_8
REMARK    2  A    between atoms: C_2  and  C_3
REMARK    3  A    between atoms: C_8  and  C_9
REMARK    4  A    between atoms: C_9  and  N_10
REMARK    5  A    between atoms: C_13  and  C_14
REMARK    6  A    between atoms: C_14  and  C_15
REMARK                            x       y       z     vdW  Elec       q    Type
REMARK                         _______ _______ _______ _____ _____    ______ ____
ROOT
ATOM      1  N   UNL     1       7.157   6.175  17.659  0.00  0.00    +0.000 NA
ATOM      2  C   UNL     1       6.551   5.264  18.640  0.00  0.00    +0.000 C 
ATOM      3  C   UNL     1       5.719   4.195  17.941  0.00  0.00    +0.000 C 
ATOM      4  C   UNL     1       4.593   4.825  17.110  0.00  0.00    +0.000 C 
ATOM      5  C   UNL     1       5.275   5.718  16.067  0.00  0.00    +0.000 C 
ATOM      6  C   UNL     1       6.169   6.764  16.737  0.00  0.00    +0.000 C 
ENDROOT
BRANCH   1   7
ATOM      7  C   UNL     1       7.957   7.181  18.383  0.00  0.00    +0.000 C 
BRANCH   7   8
ATOM      8  C   UNL     1       8.049   8.492  17.632  0.00  0.00    +0.000 C 
BRANCH   8   9
ATOM      9  C   UNL     1       8.652   9.618  18.458  0.00  0.00    +0.000 C 
ATOM     10  C   UNL     1       9.168  10.583  19.166  0.00  0.00    +0.000 C 
BRANCH  10  11
ATOM     11  C   UNL     1       9.713  11.646  19.933  0.00  0.00    +0.000 A 
ATOM     12  C   UNL     1       9.276  12.156  21.169  0.00  0.00    +0.000 A 
ATOM     13  N   UNL     1      10.043  13.167  21.593  0.00  0.00    +0.000 NA
ATOM     14  N   UNL     1      10.965  13.295  20.624  0.00  0.00    +0.000 N 
ATOM     15  C   UNL     1      10.810  12.401  19.602  0.00  0.00    +0.000 A 
ATOM     16  H   UNL     1      11.672  14.015  20.723  0.00  0.00    +0.000 HD
ENDBRANCH  10  11
ENDBRANCH   8   9
ENDBRANCH   7   8
ENDBRANCH   1   7
BRANCH   4  17
ATOM     17  C   UNL     1       3.565   5.650  17.922  0.00  0.00    +0.000 C 
BRANCH  17  18
ATOM     18  C   UNL     1       2.513   4.834  18.632  0.00  0.00    +0.000 A 
ATOM     19  C   UNL     1       1.931   3.727  17.993  0.00  0.00    +0.000 A 
ATOM     20  C   UNL     1       1.002   2.932  18.673  0.00  0.00    +0.000 A 
ATOM     21  C   UNL     1       0.677   3.214  19.995  0.00  0.00    +0.000 A 
ATOM     22  C   UNL     1       1.244   4.317  20.632  0.00  0.00    +0.000 A 
ATOM     23  C   UNL     1       2.142   5.131  19.946  0.00  0.00    +0.000 A 
ENDBRANCH  17  18
ENDBRANCH   4  17
TORSDOF 6
ENDMDL
MODEL 3
REMARK VINA RESULT:      -7.7      0.907      1.011
REMARK  Name = 
REMARK  6 active torsions:
REMARK  status: ('A' for Active; 'I' for Inactive)
REMARK    1  A    between atoms: C_1  and  C_8
REMARK    2  A    between atoms: C_2  and  C_3
REMARK    3  A    between atoms: C_8  and  C_9
REMARK    4  A    between atoms: C_9  and  N_10
REMARK    5  A    between atoms: C_13  and  C_14
REMARK    6  A    between atoms: C_14  and  C_15
REMARK                            x       y       z     vdW  Elec       q    Type
REMARK                         _______ _______ _______ _____ _____    ______ ____
ROOT
ATOM      1  N   UNL     1       6.729   6.037  16.872  0.00  0.00    +0.000 NA
ATOM      2  C   UNL     1       6.247   5.584  18.183  0.00  0.00    +0.000 C 
ATOM      3  C   UNL     1       5.775   4.137  18.114  0.00  0.00    +0.000 C 
ATOM      4  C   UNL     1       4.636   3.973  17.099  0.00  0.00    +0.000 C 
ATOM      5  C   UNL     1       5.203   4.402  15.741  0.00  0.00    +0.000 C 
ATOM      6  C   UNL     1       5.744   5.832  15.795  0.00  0.00    +0.000 C 
ENDROOT
BRANCH   1   7
ATOM      7  C   UNL     1       7.182   7.437  16.994  0.00  0.00    +0.000 C 
BRANCH   7   8
ATOM      8  C   UNL     1       8.035   7.659  18.225  0.00  0.00    +0.000 C 
BRANCH   8   9
ATOM      9  C   UNL     1       8.558   9.082  18.344  0.00  0.00    +0.000 C 
ATOM     10  C   UNL     1       9.007  10.302  18.446  0.00  0.00    +0.000 C 
BRANCH  10  11
ATOM     11  C   UNL     1       9.491  11.633  18.536  0.00  0.00    +0.000 A 
ATOM     12  C   UNL     1       9.266  12.715  17.665  0.00  0.00    +0.000 A 
ATOM     13  N   UNL     1       9.887  13.826  18.075  0.00  0.00    +0.000 NA
ATOM     14  N   UNL     1      10.507  13.446  19.205  0.00  0.00    +0.000 N 
ATOM     15  C   UNL     1      10.298  12.134  19.527  0.00  0.00    +0.000 A 
ATOM     16  H   UNL     1      11.057  14.133  19.709  0.00  0.00    +0.000 HD
ENDBRANCH  10  11
ENDBRANCH   8   9
ENDBRANCH   7   8
ENDBRANCH   1   7
BRANCH   4  17
ATOM     17  C   UNL     1       3.357   4.784  17.418  0.00  0.00    +0.000 C 
BRANCH  17  18
ATOM     18  C   UNL     1       2.536   4.253  18.567  0.00  0.00    +0.000 A 
ATOM     19  C   UNL     1       2.577   4.894  19.816  0.00  0.00    +0.000 A 
ATOM     20  C   UNL     1       1.768   4.441  20.864  0.00  0.00    +0.000 A 
ATOM     21  C   UNL     1       0.897   3.376  20.664  0.00  0.00    +0.000 A 
ATOM     22  C   UNL     1       0.859   2.730  19.429  0.00  0.00    +0.000 A 
ATOM     23  C   UNL     1       1.689   3.156  18.396  0.00  0.00    +0.000 A 
ENDBRANCH  17  18
ENDBRANCH   4  17
TORSDOF 6
ENDMDL
MODEL 4
REMARK VINA RESULT:      -7.7      1.247      1.756
REMARK  Name = 
REMARK  6 active torsions:
REMARK  status: ('A' for Active; 'I' for Inactive)
REMARK    1  A    between atoms: C_1  and  C_8
REMARK    2  A    between atoms: C_2  and  C_3
REMARK    3  A    between atoms: C_8  and  C_9
REMARK    4  A    between atoms: C_9  and  N_10
REMARK    5  A    between atoms: C_13  and  C_14
REMARK    6  A    between atoms: C_14  and  C_15
REMARK                            x       y       z     vdW  Elec       q    Type
REMARK                         _______ _______ _______ _____ _____    ______ ____
ROOT
ATOM      1  N   UNL     1       6.959   6.213  17.342  0.00  0.00    +0.000 NA
ATOM      2  C   UNL     1       6.187   5.986  18.571  0.00  0.00    +0.000 C 
ATOM      3  C   UNL     1       5.847   4.508  18.729  0.00  0.00    +0.000 C 
ATOM      4  C   UNL     1       5.021   3.999  17.541  0.00  0.00    +0.000 C 
ATOM      5  C   UNL     1       5.889   4.203  16.294  0.00  0.00    +0.000 C 
ATOM      6  C   UNL     1       6.300   5.670  16.141  0.00  0.00    +0.000 C 
ENDROOT
BRANCH   1   7
ATOM      7  C   UNL     1       7.270   7.652  17.241  0.00  0.00    +0.000 C 
BRANCH   7   8
ATOM      8  C   UNL     1       8.234   8.109  18.314  0.00  0.00    +0.000 C 
BRANCH   8   9
ATOM      9  C   UNL     1       8.615   9.577  18.195  0.00  0.00    +0.000 C 
ATOM     10  C   UNL     1       8.941  10.835  18.093  0.00  0.00    +0.000 C 
BRANCH  10  11
ATOM     11  C   UNL     1       9.277  12.210  17.991  0.00  0.00    +0.000 A 
ATOM     12  C   UNL     1       8.600  13.325  18.517  0.00  0.00    +0.000 A 
ATOM     13  N   UNL     1       9.217  14.473  18.219  0.00  0.00    +0.000 NA
ATOM     14  N   UNL     1      10.285  14.084  17.503  0.00  0.00    +0.000 N 
ATOM     15  C   UNL     1      10.367  12.729  17.338  0.00  0.00    +0.000 A 
ATOM     16  H   UNL     1      10.919  14.794  17.155  0.00  0.00    +0.000 HD
ENDBRANCH  10  11
ENDBRANCH   8   9
ENDBRANCH   7   8
ENDBRANCH   1   7
BRANCH   4  17
ATOM     17  C   UNL     1       3.651   4.695  17.352  0.00  0.00    +0.000 C 
BRANCH  17  18
ATOM     18  C   UNL     1       2.577   4.257  18.317  0.00  0.00    +0.000 A 
ATOM     19  C   UNL     1       1.899   3.044  18.112  0.00  0.00    +0.000 A 
ATOM     20  C   UNL     1       0.948   2.607  19.040  0.00  0.00    +0.000 A 
ATOM     21  C   UNL     1       0.694   3.353  20.184  0.00  0.00    +0.000 A 
ATOM     22  C   UNL     1       1.356   4.563  20.389  0.00  0.00    +0.000 A 
ATOM     23  C   UNL     1       2.277   5.018  19.449  0.00  0.00    +0.000 A 
ENDBRANCH  17  18
ENDBRANCH   4  17
TORSDOF 6
ENDMDL
MODEL 5
REMARK VINA RESULT:      -7.6      1.571      2.229
REMARK  Name = 
REMARK  6 active torsions:
REMARK  status: ('A' for Active; 'I' for Inactive)
REMARK    1  A    between atoms: C_1  and  C_8
REMARK    2  A    between atoms: C_2  and  C_3
REMARK    3  A    between atoms: C_8  and  C_9
REMARK    4  A    between atoms: C_9  and  N_10
REMARK    5  A    between atoms: C_13  and  C_14
REMARK    6  A    between atoms: C_14  and  C_15
REMARK                            x       y       z     vdW  Elec       q    Type
REMARK                         _______ _______ _______ _____ _____    ______ ____
ROOT
ATOM      1  N   UNL     1       7.513   7.306  17.319  0.00  0.00    +0.000 NA
ATOM      2  C   UNL     1       7.837   6.645  18.591  0.00  0.00    +0.000 C 
ATOM      3  C   UNL     1       7.817   5.129  18.431  0.00  0.00    +0.000 C 
ATOM      4  C   UNL     1       6.437   4.639  17.972  0.00  0.00    +0.000 C 
ATOM      5  C   UNL     1       6.170   5.308  16.619  0.00  0.00    +0.000 C 
ATOM      6  C   UNL     1       6.246   6.832  16.733  0.00  0.00    +0.000 C 
ENDROOT
BRANCH   1   7
ATOM      7  C   UNL     1       7.555   8.767  17.524  0.00  0.00    +0.000 C 
BRANCH   7   8
ATOM      8  C   UNL     1       8.634   9.180  18.502  0.00  0.00    +0.000 C 
BRANCH   8   9
ATOM      9  C   UNL     1       9.255  10.529  18.178  0.00  0.00    +0.000 C 
ATOM     10  C   UNL     1       9.786  11.687  17.900  0.00  0.00    +0.000 C 
BRANCH  10  11
ATOM     11  C   UNL     1      10.346  12.956  17.597  0.00  0.00    +0.000 A 
ATOM     12  C   UNL     1       9.979  14.222  18.087  0.00  0.00    +0.000 A 
ATOM     13  N   UNL     1      10.737  15.197  17.575  0.00  0.00    +0.000 NA
ATOM     14  N   UNL     1      11.584  14.547  16.760  0.00  0.00    +0.000 N 
ATOM     15  C   UNL     1      11.390  13.193  16.739  0.00  0.00    +0.000 A 
ATOM     16  H   UNL     1      12.271  15.087  16.246  0.00  0.00    +0.000 HD
ENDBRANCH  10  11
ENDBRANCH   8   9
ENDBRANCH   7   8
ENDBRANCH   1   7
BRANCH   4  17
ATOM     17  C   UNL     1       5.278   4.942  18.951  0.00  0.00    +0.000 C 
BRANCH  17  18
ATOM     18  C   UNL     1       3.987   4.219  18.653  0.00  0.00    +0.000 A 
ATOM     19  C   UNL     1       3.913   2.824  18.797  0.00  0.00    +0.000 A 
ATOM     20  C   UNL     1       2.701   2.160  18.583  0.00  0.00    +0.000 A 
ATOM     21  C   UNL     1       1.557   2.881  18.260  0.00  0.00    +0.000 A 
ATOM     22  C   UNL     1       1.626   4.265  18.107  0.00  0.00    +0.000 A 
ATOM     23  C   UNL     1       2.840   4.924  18.284  0.00  0.00    +0.000 A 
ENDBRANCH  17  18
ENDBRANCH   4  17
TORSDOF 6
ENDMDL
MODEL 6
REMARK VINA RESULT:      -7.6      1.136      1.637
REMARK  Name = 
REMARK  6 active torsions:
REMARK  status: ('A' for Active; 'I' for Inactive)
REMARK    1  A    between atoms: C_1  and  C_8
REMARK    2  A    between atoms: C_2  and  C_3
REMARK    3  A    between atoms: C_8  and  C_9
REMARK    4  A    between atoms: C_9  and  N_10
REMARK    5  A    between atoms: C_13  and  C_14
REMARK    6  A    between atoms: C_14  and  C_15
REMARK                            x       y       z     vdW  Elec       q    Type
REMARK                         _______ _______ _______ _____ _____    ______ ____
ROOT
ATOM      1  N   UNL     1       6.188   5.818  17.531  0.00  0.00    +0.000 NA
ATOM      2  C   UNL     1       5.494   5.140  18.633  0.00  0.00    +0.000 C 
ATOM      3  C   UNL     1       5.239   3.676  18.290  0.00  0.00    +0.000 C 
ATOM      4  C   UNL     1       4.380   3.544  17.025  0.00  0.00    +0.000 C 
ATOM      5  C   UNL     1       5.170   4.214  15.896  0.00  0.00    +0.000 C 
ATOM      6  C   UNL     1       5.497   5.670  16.237  0.00  0.00    +0.000 C 
ENDROOT
BRANCH   1   7
ATOM      7  C   UNL     1       6.419   7.225  17.915  0.00  0.00    +0.000 C 
BRANCH   7   8
ATOM      8  C   UNL     1       7.624   7.820  17.220  0.00  0.00    +0.000 C 
BRANCH   8   9
ATOM      9  C   UNL     1       8.354   8.855  18.062  0.00  0.00    +0.000 C 
ATOM     10  C   UNL     1       8.979   9.742  18.784  0.00  0.00    +0.000 C 
BRANCH  10  11
ATOM     11  C   UNL     1       9.678  10.697  19.569  0.00  0.00    +0.000 A 
ATOM     12  C   UNL     1      10.860  11.395  19.262  0.00  0.00    +0.000 A 
ATOM     13  N   UNL     1      11.225  12.220  20.249  0.00  0.00    +0.000 NA
ATOM     14  N   UNL     1      10.274  12.042  21.181  0.00  0.00    +0.000 N 
ATOM     15  C   UNL     1       9.317  11.135  20.818  0.00  0.00    +0.000 A 
ATOM     16  H   UNL     1      10.336  12.572  22.043  0.00  0.00    +0.000 HD
ENDBRANCH  10  11
ENDBRANCH   8   9
ENDBRANCH   7   8
ENDBRANCH   1   7
BRANCH   4  17
ATOM     17  C   UNL     1       2.968   4.171  17.127  0.00  0.00    +0.000 C 
BRANCH  17  18
ATOM     18  C   UNL     1       2.194   3.797  18.366  0.00  0.00    +0.000 A 
ATOM     19  C   UNL     1       1.807   2.463  18.579  0.00  0.00    +0.000 A 
ATOM     20  C   UNL     1       1.145   2.104  19.757  0.00  0.00    +0.000 A 
ATOM     21  C   UNL     1       0.896   3.057  20.737  0.00  0.00    +0.000 A 
ATOM     22  C   UNL     1       1.268   4.385  20.529  0.00  0.00    +0.000 A 
ATOM     23  C   UNL     1       1.895   4.752  19.341  0.00  0.00    +0.000 A 
ENDBRANCH  17  18
ENDBRANCH   4  17
TORSDOF 6
ENDMDL
MODEL 7
REMARK VINA RESULT:      -7.6      4.335      6.661
REMARK  Name = 
REMARK  6 active torsions:
REMARK  status: ('A' for Active; 'I' for Inactive)
REMARK    1  A    between atoms: C_1  and  C_8
REMARK    2  A    between atoms: C_2  and  C_3
REMARK    3  A    between atoms: C_8  and  C_9
REMARK    4  A    between atoms: C_9  and  N_10
REMARK    5  A    between atoms: C_13  and  C_14
REMARK    6  A    between atoms: C_14  and  C_15
REMARK                            x       y       z     vdW  Elec       q    Type
REMARK                         _______ _______ _______ _____ _____    ______ ____
ROOT
ATOM      1  N   UNL     1       2.132   2.496  19.655  0.00  0.00    +0.000 NA
ATOM      2  C   UNL     1       3.161   3.000  20.574  0.00  0.00    +0.000 C 
ATOM      3  C   UNL     1       2.547   3.935  21.610  0.00  0.00    +0.000 C 
ATOM      4  C   UNL     1       1.869   5.137  20.940  0.00  0.00    +0.000 C 
ATOM      5  C   UNL     1       0.769   4.564  20.039  0.00  0.00    +0.000 C 
ATOM      6  C   UNL     1       1.346   3.573  19.026  0.00  0.00    +0.000 C 
ENDROOT
BRANCH   1   7
ATOM      7  C   UNL     1       2.773   1.592  18.681  0.00  0.00    +0.000 C 
BRANCH   7   8
ATOM      8  C   UNL     1       2.716   2.134  17.269  0.00  0.00    +0.000 C 
BRANCH   8   9
ATOM      9  C   UNL     1       3.856   3.087  16.944  0.00  0.00    +0.000 C 
ATOM     10  C   UNL     1       4.834   3.902  16.665  0.00  0.00    +0.000 C 
BRANCH  10  11
ATOM     11  C   UNL     1       5.912   4.774  16.357  0.00  0.00    +0.000 A 
ATOM     12  C   UNL     1       6.406   5.862  17.099  0.00  0.00    +0.000 A 
ATOM     13  N   UNL     1       7.440   6.454  16.493  0.00  0.00    +0.000 NA
ATOM     14  N   UNL     1       7.600   5.740  15.366  0.00  0.00    +0.000 N 
ATOM     15  C   UNL     1       6.703   4.715  15.238  0.00  0.00    +0.000 A 
ATOM     16  H   UNL     1       8.340   6.006  14.726  0.00  0.00    +0.000 HD
ENDBRANCH  10  11
ENDBRANCH   8   9
ENDBRANCH   7   8
ENDBRANCH   1   7
BRANCH   4  17
ATOM     17  C   UNL     1       2.814   6.041  20.113  0.00  0.00    +0.000 C 
BRANCH  17  18
ATOM     18  C   UNL     1       2.215   7.354  19.672  0.00  0.00    +0.000 A 
ATOM     19  C   UNL     1       2.321   7.762  18.333  0.00  0.00    +0.000 A 
ATOM     20  C   UNL     1       1.711   8.948  17.910  0.00  0.00    +0.000 A 
ATOM     21  C   UNL     1       0.970   9.710  18.805  0.00  0.00    +0.000 A 
ATOM     22  C   UNL     1       0.868   9.316  20.139  0.00  0.00    +0.000 A 
ATOM     23  C   UNL     1       1.504   8.154  20.570  0.00  0.00    +0.000 A 
ENDBRANCH  17  18
ENDBRANCH   4  17
TORSDOF 6
ENDMDL
MODEL 8
REMARK VINA RESULT:      -7.6      3.919      6.049
REMARK  Name = 
REMARK  6 active torsions:
REMARK  status: ('A' for Active; 'I' for Inactive)
REMARK    1  A    between atoms: C_1  and  C_8
REMARK    2  A    between atoms: C_2  and  C_3
REMARK    3  A    between atoms: C_8  and  C_9
REMARK    4  A    between atoms: C_9  and  N_10
REMARK    5  A    between atoms: C_13  and  C_14
REMARK    6  A    between atoms: C_14  and  C_15
REMARK                            x       y       z     vdW  Elec       q    Type
REMARK                         _______ _______ _______ _____ _____    ______ ____
ROOT
ATOM      1  N   UNL     1       2.376   2.320  19.414  0.00  0.00    +0.000 NA
ATOM      2  C   UNL     1       3.231   2.710  20.542  0.00  0.00    +0.000 C 
ATOM      3  C   UNL     1       2.435   3.500  21.574  0.00  0.00    +0.000 C 
ATOM      4  C   UNL     1       1.839   4.773  20.959  0.00  0.00    +0.000 C 
ATOM      5  C   UNL     1       0.912   4.312  19.828  0.00  0.00    +0.000 C 
ATOM      6  C   UNL     1       1.670   3.462  18.806  0.00  0.00    +0.000 C 
ENDROOT
BRANCH   1   7
ATOM      7  C   UNL     1       3.189   1.552  18.451  0.00  0.00    +0.000 C 
BRANCH   7   8
ATOM      8  C   UNL     1       3.406   2.303  17.154  0.00  0.00    +0.000 C 
BRANCH   8   9
ATOM      9  C   UNL     1       4.357   3.481  17.294  0.00  0.00    +0.000 C 
ATOM     10  C   UNL     1       5.172   4.492  17.414  0.00  0.00    +0.000 C 
BRANCH  10  11
ATOM     11  C   UNL     1       6.056   5.596  17.523  0.00  0.00    +0.000 A 
ATOM     12  C   UNL     1       7.196   5.737  18.335  0.00  0.00    +0.000 A 
ATOM     13  N   UNL     1       7.787   6.925  18.170  0.00  0.00    +0.000 NA
ATOM     14  N   UNL     1       7.020   7.537  17.252  0.00  0.00    +0.000 N 
ATOM     15  C   UNL     1       5.964   6.777  16.830  0.00  0.00    +0.000 A 
ATOM     16  H   UNL     1       7.272   8.474  16.958  0.00  0.00    +0.000 HD
ENDBRANCH  10  11
ENDBRANCH   8   9
ENDBRANCH   7   8
ENDBRANCH   1   7
BRANCH   4  17
ATOM     17  C   UNL     1       2.878   5.783  20.414  0.00  0.00    +0.000 C 
BRANCH  17  18
ATOM     18  C   UNL     1       2.291   7.008  19.757  0.00  0.00    +0.000 A 
ATOM     19  C   UNL     1       1.556   7.931  20.518  0.00  0.00    +0.000 A 
ATOM     20  C   UNL     1       1.067   9.099  19.923  0.00  0.00    +0.000 A 
ATOM     21  C   UNL     1       1.333   9.366  18.586  0.00  0.00    +0.000 A 
ATOM     22  C   UNL     1       2.054   8.449  17.822  0.00  0.00    +0.000 A 
ATOM     23  C   UNL     1       2.512   7.269  18.402  0.00  0.00    +0.000 A 
ENDBRANCH  17  18
ENDBRANCH   4  17
TORSDOF 6
ENDMDL
MODEL 9
REMARK VINA RESULT:      -7.5      1.423      1.890
REMARK  Name = 
REMARK  6 active torsions:
REMARK  status: ('A' for Active; 'I' for Inactive)
REMARK    1  A    between atoms: C_1  and  C_8
REMARK    2  A    between atoms: C_2  and  C_3
REMARK    3  A    between atoms: C_8  and  C_9
REMARK    4  A    between atoms: C_9  and  N_10
REMARK    5  A    between atoms: C_13  and  C_14
REMARK    6  A    between atoms: C_14  and  C_15
REMARK                            x       y       z     vdW  Elec       q    Type
REMARK                         _______ _______ _______ _____ _____    ______ ____
ROOT
ATOM      1  N   UNL     1       7.327   7.247  17.220  0.00  0.00    +0.000 NA
ATOM      2  C   UNL     1       7.746   6.473  18.397  0.00  0.00    +0.000 C 
ATOM      3  C   UNL     1       7.633   4.977  18.127  0.00  0.00    +0.000 C 
ATOM      4  C   UNL     1       6.190   4.584  17.781  0.00  0.00    +0.000 C 
ATOM      5  C   UNL     1       5.820   5.370  16.518  0.00  0.00    +0.000 C 
ATOM      6  C   UNL     1       5.984   6.876  16.737  0.00  0.00    +0.000 C 
ENDROOT
BRANCH   1   7
ATOM      7  C   UNL     1       7.464   8.684  17.528  0.00  0.00    +0.000 C 
BRANCH   7   8
ATOM      8  C   UNL     1       8.564   8.954  18.531  0.00  0.00    +0.000 C 
BRANCH   8   9
ATOM      9  C   UNL     1       9.233  10.307  18.340  0.00  0.00    +0.000 C 
ATOM     10  C   UNL     1       9.805  11.466  18.175  0.00  0.00    +0.000 C 
BRANCH  10  11
ATOM     11  C   UNL     1      10.415  12.734  17.981  0.00  0.00    +0.000 A 
ATOM     12  C   UNL     1      11.130  13.207  16.867  0.00  0.00    +0.000 A 
ATOM     13  N   UNL     1      11.559  14.462  17.042  0.00  0.00    +0.000 NA
ATOM     14  N   UNL     1      11.114  14.781  18.269  0.00  0.00    +0.000 N 
ATOM     15  C   UNL     1      10.418  13.774  18.876  0.00  0.00    +0.000 A 
ATOM     16  H   UNL     1      11.321  15.705  18.633  0.00  0.00    +0.000 HD
ENDBRANCH  10  11
ENDBRANCH   8   9
ENDBRANCH   7   8
ENDBRANCH   1   7
BRANCH   4  17
ATOM     17  C   UNL     1       5.154   4.857  18.897  0.00  0.00    +0.000 C 
BRANCH  17  18
ATOM     18  C   UNL     1       3.861   4.090  18.768  0.00  0.00    +0.000 A 
ATOM     19  C   UNL     1       2.705   4.733  18.298  0.00  0.00    +0.000 A 
ATOM     20  C   UNL     1       1.523   4.007  18.117  0.00  0.00    +0.000 A 
ATOM     21  C   UNL     1       1.496   2.641  18.370  0.00  0.00    +0.000 A 
ATOM     22  C   UNL     1       2.638   1.998  18.846  0.00  0.00    +0.000 A 
ATOM     23  C   UNL     1       3.806   2.725  19.061  0.00  0.00    +0.000 A 
ENDBRANCH  17  18
ENDBRANCH   4  17
TORSDOF 6
ENDMDL
