MODEL 1
REMARK VINA RESULT:      -8.1      0.000      0.000
REMARK  Name = 
REMARK  7 active torsions:
REMARK  status: ('A' for Active; 'I' for Inactive)
REMARK    1  A    between atoms: C_1  and  O_2
REMARK    2  A    between atoms: O_2  and  C_3
REMARK    3  A    between atoms: C_8  and  C_9
REMARK    4  A    between atoms: C_9  and  N_10
REMARK    5  A    between atoms: C_11  and  C_13
REMARK    6  A    between atoms: N_17  and  S_18
REMARK    7  A    between atoms: S_18  and  C_21
REMARK                            x       y       z     vdW  Elec       q    Type
REMARK                         _______ _______ _______ _____ _____    ______ ____
ROOT
ATOM      1  C   UNL     1       1.978   4.701  19.192  0.00  0.00    +0.000 C 
ATOM      2  C   UNL     1       1.674   4.393  20.655  0.00  0.00    +0.000 C 
ATOM      3  C   UNL     1       1.700   2.871  20.696  0.00  0.00    +0.000 C 
ATOM      4  C   UNL     1       2.548   2.432  19.498  0.00  0.00    +0.000 C 
ATOM      5  N   UNL     1       3.032   3.691  18.839  0.00  0.00    +0.000 NA
ENDROOT
BRANCH   1   7
ATOM      6  N   UNL     1       1.776   7.025  19.939  0.00  0.00    +0.000 N 
ATOM      7  C   UNL     1       2.026   6.191  18.874  0.00  0.00    +0.000 C 
ATOM      8  O   UNL     1       2.462   6.602  17.799  0.00  0.00    +0.000 OA
ATOM      9  H   UNL     1       1.099   6.688  20.619  0.00  0.00    +0.000 HD
BRANCH   6  10
ATOM     10  C   UNL     1       1.955   8.470  19.886  0.00  0.00    +0.000 C 
BRANCH  10  16
ATOM     11  C   UNL     1       0.154  10.220  20.416  0.00  0.00    +0.000 A 
ATOM     12  C   UNL     1      -0.745  10.801  21.322  0.00  0.00    +0.000 A 
ATOM     13  C   UNL     1      -0.716  10.450  22.669  0.00  0.00    +0.000 A 
ATOM     14  C   UNL     1       0.179   9.482  23.107  0.00  0.00    +0.000 A 
ATOM     15  C   UNL     1       1.012   8.835  22.191  0.00  0.00    +0.000 A 
ATOM     16  C   UNL     1       0.999   9.176  20.825  0.00  0.00    +0.000 A 
BRANCH  11  18
ATOM     17  C   UNL     1      -0.991  10.566  18.403  0.00  0.00    +0.000 C 
ATOM     18  O   UNL     1       0.244  10.662  19.119  0.00  0.00    +0.000 OA
ENDBRANCH  11  18
ENDBRANCH  10  16
ENDBRANCH   6  10
ENDBRANCH   1   7
BRANCH   5  19
ATOM     19  S   UNL     1       4.655   4.081  19.198  0.00  0.00    +0.000 S 
ATOM     20  O   UNL     1       4.681   5.360  19.880  0.00  0.00    +0.000 OA
ATOM     21  O   UNL     1       5.261   2.911  19.800  0.00  0.00    +0.000 OA
BRANCH  19  22
ATOM     22  C   UNL     1       5.408   4.326  17.616  0.00  0.00    +0.000 A 
ATOM     23  C   UNL     1       4.693   4.087  16.433  0.00  0.00    +0.000 A 
ATOM     24  C   UNL     1       5.335   4.215  15.197  0.00  0.00    +0.000 A 
ATOM     25  C   UNL     1       6.682   4.573  15.141  0.00  0.00    +0.000 A 
ATOM     26  C   UNL     1       7.390   4.803  16.322  0.00  0.00    +0.000 A 
ATOM     27  C   UNL     1       6.751   4.674  17.556  0.00  0.00    +0.000 A 
ATOM     28  F   UNL     1       7.463   4.896  18.669  0.00  0.00    +0.000 F 
ENDBRANCH  19  22
ENDBRANCH   5  19
TORSDOF 6
ENDMDL
MODEL 2
REMARK VINA RESULT:      -7.7      0.793      1.857
REMARK  Name = 
REMARK  7 active torsions:
REMARK  status: ('A' for Active; 'I' for Inactive)
REMARK    1  A    between atoms: C_1  and  O_2
REMARK    2  A    between atoms: O_2  and  C_3
REMARK    3  A    between atoms: C_8  and  C_9
REMARK    4  A    between atoms: C_9  and  N_10
REMARK    5  A    between atoms: C_11  and  C_13
REMARK    6  A    between atoms: N_17  and  S_18
REMARK    7  A    between atoms: S_18  and  C_21
REMARK                            x       y       z     vdW  Elec       q    Type
REMARK                         _______ _______ _______ _____ _____    ______ ____
ROOT
ATOM      1  C   UNL     1       2.079   5.103  19.015  0.00  0.00    +0.000 C 
ATOM      2  C   UNL     1       1.726   4.935  20.491  0.00  0.00    +0.000 C 
ATOM      3  C   UNL     1       1.588   3.426  20.640  0.00  0.00    +0.000 C 
ATOM      4  C   UNL     1       2.398   2.814  19.493  0.00  0.00    +0.000 C 
ATOM      5  N   UNL     1       3.022   3.963  18.755  0.00  0.00    +0.000 NA
ENDROOT
BRANCH   1   7
ATOM      6  N   UNL     1       1.887   7.494  19.512  0.00  0.00    +0.000 N 
ATOM      7  C   UNL     1       2.291   6.552  18.594  0.00  0.00    +0.000 C 
ATOM      8  O   UNL     1       2.962   6.839  17.603  0.00  0.00    +0.000 OA
ATOM      9  H   UNL     1       1.065   7.256  20.062  0.00  0.00    +0.000 HD
BRANCH   6  10
ATOM     10  C   UNL     1       2.170   8.917  19.379  0.00  0.00    +0.000 C 
BRANCH  10  16
ATOM     11  C   UNL     1       0.397  10.426  20.458  0.00  0.00    +0.000 A 
ATOM     12  C   UNL     1      -0.768  11.200  20.349  0.00  0.00    +0.000 A 
ATOM     13  C   UNL     1      -1.525  11.177  19.180  0.00  0.00    +0.000 A 
ATOM     14  C   UNL     1      -1.096  10.417  18.099  0.00  0.00    +0.000 A 
ATOM     15  C   UNL     1       0.111   9.719  18.172  0.00  0.00    +0.000 A 
ATOM     16  C   UNL     1       0.892   9.729  19.344  0.00  0.00    +0.000 A 
BRANCH  11  18
ATOM     17  C   UNL     1       0.450   9.413  22.567  0.00  0.00    +0.000 C 
ATOM     18  O   UNL     1       1.071  10.316  21.648  0.00  0.00    +0.000 OA
ENDBRANCH  11  18
ENDBRANCH  10  16
ENDBRANCH   6  10
ENDBRANCH   1   7
BRANCH   5  19
ATOM     19  S   UNL     1       4.673   4.203  19.118  0.00  0.00    +0.000 S 
ATOM     20  O   UNL     1       4.813   5.471  19.808  0.00  0.00    +0.000 OA
ATOM     21  O   UNL     1       5.171   2.979  19.712  0.00  0.00    +0.000 OA
BRANCH  19  22
ATOM     22  C   UNL     1       5.447   4.389  17.538  0.00  0.00    +0.000 A 
ATOM     23  C   UNL     1       4.737   4.139  16.354  0.00  0.00    +0.000 A 
ATOM     24  C   UNL     1       5.393   4.220  15.122  0.00  0.00    +0.000 A 
ATOM     25  C   UNL     1       6.749   4.542  15.070  0.00  0.00    +0.000 A 
ATOM     26  C   UNL     1       7.452   4.783  16.251  0.00  0.00    +0.000 A 
ATOM     27  C   UNL     1       6.799   4.702  17.482  0.00  0.00    +0.000 A 
ATOM     28  F   UNL     1       7.506   4.933  18.596  0.00  0.00    +0.000 F 
ENDBRANCH  19  22
ENDBRANCH   5  19
TORSDOF 6
ENDMDL
MODEL 3
REMARK VINA RESULT:      -7.6      1.277      2.163
REMARK  Name = 
REMARK  7 active torsions:
REMARK  status: ('A' for Active; 'I' for Inactive)
REMARK    1  A    between atoms: C_1  and  O_2
REMARK    2  A    between atoms: O_2  and  C_3
REMARK    3  A    between atoms: C_8  and  C_9
REMARK    4  A    between atoms: C_9  and  N_10
REMARK    5  A    between atoms: C_11  and  C_13
REMARK    6  A    between atoms: N_17  and  S_18
REMARK    7  A    between atoms: S_18  and  C_21
REMARK                            x       y       z     vdW  Elec       q    Type
REMARK                         _______ _______ _______ _____ _____    ______ ____
ROOT
ATOM      1  C   UNL     1       2.085   4.217  19.377  0.00  0.00    +0.000 C 
ATOM      2  C   UNL     1       2.004   2.779  19.880  0.00  0.00    +0.000 C 
ATOM      3  C   UNL     1       2.042   1.964  18.595  0.00  0.00    +0.000 C 
ATOM      4  C   UNL     1       2.704   2.863  17.546  0.00  0.00    +0.000 C 
ATOM      5  N   UNL     1       3.078   4.134  18.254  0.00  0.00    +0.000 NA
ENDROOT
BRANCH   1   7
ATOM      6  N   UNL     1       2.023   6.568  20.064  0.00  0.00    +0.000 N 
ATOM      7  C   UNL     1       2.078   5.260  20.489  0.00  0.00    +0.000 C 
ATOM      8  O   UNL     1       1.920   4.939  21.666  0.00  0.00    +0.000 OA
ATOM      9  H   UNL     1       2.513   6.776  19.197  0.00  0.00    +0.000 HD
BRANCH   6  10
ATOM     10  C   UNL     1       1.823   7.696  20.965  0.00  0.00    +0.000 C 
BRANCH  10  16
ATOM     11  C   UNL     1      -0.019   9.481  20.886  0.00  0.00    +0.000 A 
ATOM     12  C   UNL     1      -0.656  10.540  20.222  0.00  0.00    +0.000 A 
ATOM     13  C   UNL     1      -0.324  10.850  18.906  0.00  0.00    +0.000 A 
ATOM     14  C   UNL     1       0.679  10.135  18.263  0.00  0.00    +0.000 A 
ATOM     15  C   UNL     1       1.379   9.141  18.952  0.00  0.00    +0.000 A 
ATOM     16  C   UNL     1       1.059   8.812  20.283  0.00  0.00    +0.000 A 
BRANCH  11  18
ATOM     17  C   UNL     1      -0.664  10.141  23.037  0.00  0.00    +0.000 C 
ATOM     18  O   UNL     1      -0.435   9.062  22.125  0.00  0.00    +0.000 OA
ENDBRANCH  11  18
ENDBRANCH  10  16
ENDBRANCH   6  10
ENDBRANCH   1   7
BRANCH   5  19
ATOM     19  S   UNL     1       4.735   4.241  18.654  0.00  0.00    +0.000 S 
ATOM     20  O   UNL     1       4.940   5.436  19.450  0.00  0.00    +0.000 OA
ATOM     21  O   UNL     1       5.150   2.944  19.148  0.00  0.00    +0.000 OA
BRANCH  19  22
ATOM     22  C   UNL     1       5.543   4.512  17.103  0.00  0.00    +0.000 A 
ATOM     23  C   UNL     1       4.812   4.548  15.907  0.00  0.00    +0.000 A 
ATOM     24  C   UNL     1       5.484   4.687  14.688  0.00  0.00    +0.000 A 
ATOM     25  C   UNL     1       6.876   4.782  14.661  0.00  0.00    +0.000 A 
ATOM     26  C   UNL     1       7.598   4.738  15.855  0.00  0.00    +0.000 A 
ATOM     27  C   UNL     1       6.929   4.598  17.071  0.00  0.00    +0.000 A 
ATOM     28  F   UNL     1       7.654   4.553  18.196  0.00  0.00    +0.000 F 
ENDBRANCH  19  22
ENDBRANCH   5  19
TORSDOF 6
ENDMDL
MODEL 4
REMARK VINA RESULT:      -7.4      1.580      1.889
REMARK  Name = 
REMARK  7 active torsions:
REMARK  status: ('A' for Active; 'I' for Inactive)
REMARK    1  A    between atoms: C_1  and  O_2
REMARK    2  A    between atoms: O_2  and  C_3
REMARK    3  A    between atoms: C_8  and  C_9
REMARK    4  A    between atoms: C_9  and  N_10
REMARK    5  A    between atoms: C_11  and  C_13
REMARK    6  A    between atoms: N_17  and  S_18
REMARK    7  A    between atoms: S_18  and  C_21
REMARK                            x       y       z     vdW  Elec       q    Type
REMARK                         _______ _______ _______ _____ _____    ______ ____
ROOT
ATOM      1  C   UNL     1       2.314   5.523  18.789  0.00  0.00    +0.000 C 
ATOM      2  C   UNL     1       1.973   5.659  20.270  0.00  0.00    +0.000 C 
ATOM      3  C   UNL     1       1.651   4.228  20.680  0.00  0.00    +0.000 C 
ATOM      4  C   UNL     1       2.356   3.330  19.658  0.00  0.00    +0.000 C 
ATOM      5  N   UNL     1       3.103   4.247  18.732  0.00  0.00    +0.000 NA
ENDROOT
BRANCH   1   7
ATOM      6  N   UNL     1       1.882   7.907  18.424  0.00  0.00    +0.000 N 
ATOM      7  C   UNL     1       2.696   6.839  18.121  0.00  0.00    +0.000 C 
ATOM      8  O   UNL     1       3.768   6.971  17.532  0.00  0.00    +0.000 OA
ATOM      9  H   UNL     1       0.897   7.691  18.561  0.00  0.00    +0.000 HD
BRANCH   6  10
ATOM     10  C   UNL     1       2.181   9.279  18.038  0.00  0.00    +0.000 C 
BRANCH  10  16
ATOM     11  C   UNL     1       1.474  11.652  18.714  0.00  0.00    +0.000 A 
ATOM     12  C   UNL     1       0.582  12.512  19.373  0.00  0.00    +0.000 A 
ATOM     13  C   UNL     1      -0.413  11.999  20.200  0.00  0.00    +0.000 A 
ATOM     14  C   UNL     1      -0.552  10.623  20.336  0.00  0.00    +0.000 A 
ATOM     15  C   UNL     1       0.275   9.763  19.610  0.00  0.00    +0.000 A 
ATOM     16  C   UNL     1       1.288  10.261  18.767  0.00  0.00    +0.000 A 
BRANCH  11  18
ATOM     17  C   UNL     1       2.913  13.470  18.399  0.00  0.00    +0.000 C 
ATOM     18  O   UNL     1       2.552  12.139  18.019  0.00  0.00    +0.000 OA
ENDBRANCH  11  18
ENDBRANCH  10  16
ENDBRANCH   6  10
ENDBRANCH   1   7
BRANCH   5  19
ATOM     19  S   UNL     1       4.778   4.336  19.051  0.00  0.00    +0.000 S 
ATOM     20  O   UNL     1       5.052   5.591  19.723  0.00  0.00    +0.000 OA
ATOM     21  O   UNL     1       5.177   3.076  19.644  0.00  0.00    +0.000 OA
BRANCH  19  22
ATOM     22  C   UNL     1       5.523   4.438  17.449  0.00  0.00    +0.000 A 
ATOM     23  C   UNL     1       4.782   4.162  16.291  0.00  0.00    +0.000 A 
ATOM     24  C   UNL     1       5.415   4.176  15.043  0.00  0.00    +0.000 A 
ATOM     25  C   UNL     1       6.779   4.456  14.952  0.00  0.00    +0.000 A 
ATOM     26  C   UNL     1       7.513   4.722  16.109  0.00  0.00    +0.000 A 
ATOM     27  C   UNL     1       6.883   4.708  17.354  0.00  0.00    +0.000 A 
ATOM     28  F   UNL     1       7.619   4.961  18.444  0.00  0.00    +0.000 F 
ENDBRANCH  19  22
ENDBRANCH   5  19
TORSDOF 6
ENDMDL
MODEL 5
REMARK VINA RESULT:      -7.4      1.897      4.067
REMARK  Name = 
REMARK  7 active torsions:
REMARK  status: ('A' for Active; 'I' for Inactive)
REMARK    1  A    between atoms: C_1  and  O_2
REMARK    2  A    between atoms: O_2  and  C_3
REMARK    3  A    between atoms: C_8  and  C_9
REMARK    4  A    between atoms: C_9  and  N_10
REMARK    5  A    between atoms: C_11  and  C_13
REMARK    6  A    between atoms: N_17  and  S_18
REMARK    7  A    between atoms: S_18  and  C_21
REMARK                            x       y       z     vdW  Elec       q    Type
REMARK                         _______ _______ _______ _____ _____    ______ ____
ROOT
ATOM      1  C   UNL     1       5.335   6.095  17.544  0.00  0.00    +0.000 C 
ATOM      2  C   UNL     1       6.283   5.666  16.428  0.00  0.00    +0.000 C 
ATOM      3  C   UNL     1       7.255   4.736  17.142  0.00  0.00    +0.000 C 
ATOM      4  C   UNL     1       6.519   4.236  18.389  0.00  0.00    +0.000 C 
ATOM      5  N   UNL     1       5.142   4.833  18.335  0.00  0.00    +0.000 NA
ENDROOT
BRANCH   1   7
ATOM      6  N   UNL     1       3.350   7.431  18.068  0.00  0.00    +0.000 N 
ATOM      7  C   UNL     1       4.231   7.040  17.086  0.00  0.00    +0.000 C 
ATOM      8  O   UNL     1       4.261   7.568  15.975  0.00  0.00    +0.000 OA
ATOM      9  H   UNL     1       3.139   6.736  18.780  0.00  0.00    +0.000 HD
BRANCH   6  10
ATOM     10  C   UNL     1       2.343   8.467  17.877  0.00  0.00    +0.000 C 
BRANCH  10  16
ATOM     11  C   UNL     1       0.777   9.862  19.356  0.00  0.00    +0.000 A 
ATOM     12  C   UNL     1       0.044  10.015  20.542  0.00  0.00    +0.000 A 
ATOM     13  C   UNL     1       0.197   9.111  21.589  0.00  0.00    +0.000 A 
ATOM     14  C   UNL     1       1.048   8.023  21.438  0.00  0.00    +0.000 A 
ATOM     15  C   UNL     1       1.709   7.817  20.225  0.00  0.00    +0.000 A 
ATOM     16  C   UNL     1       1.568   8.719  19.153  0.00  0.00    +0.000 A 
BRANCH  11  18
ATOM     17  C   UNL     1       1.217  12.099  18.827  0.00  0.00    +0.000 C 
ATOM     18  O   UNL     1       0.756  10.822  18.375  0.00  0.00    +0.000 OA
ENDBRANCH  11  18
ENDBRANCH  10  16
ENDBRANCH   6  10
ENDBRANCH   1   7
BRANCH   5  19
ATOM     19  S   UNL     1       3.936   3.745  17.808  0.00  0.00    +0.000 S 
ATOM     20  O   UNL     1       3.105   4.418  16.829  0.00  0.00    +0.000 OA
ATOM     21  O   UNL     1       4.589   2.492  17.487  0.00  0.00    +0.000 OA
BRANCH  19  22
ATOM     22  C   UNL     1       2.931   3.478  19.239  0.00  0.00    +0.000 A 
ATOM     23  C   UNL     1       1.657   4.056  19.343  0.00  0.00    +0.000 A 
ATOM     24  C   UNL     1       0.915   3.891  20.517  0.00  0.00    +0.000 A 
ATOM     25  C   UNL     1       1.441   3.160  21.583  0.00  0.00    +0.000 A 
ATOM     26  C   UNL     1       2.712   2.593  21.476  0.00  0.00    +0.000 A 
ATOM     27  C   UNL     1       3.454   2.758  20.305  0.00  0.00    +0.000 A 
ATOM     28  F   UNL     1       4.672   2.205  20.240  0.00  0.00    +0.000 F 
ENDBRANCH  19  22
ENDBRANCH   5  19
TORSDOF 6
ENDMDL
MODEL 6
REMARK VINA RESULT:      -7.3      2.514      4.124
REMARK  Name = 
REMARK  7 active torsions:
REMARK  status: ('A' for Active; 'I' for Inactive)
REMARK    1  A    between atoms: C_1  and  O_2
REMARK    2  A    between atoms: O_2  and  C_3
REMARK    3  A    between atoms: C_8  and  C_9
REMARK    4  A    between atoms: C_9  and  N_10
REMARK    5  A    between atoms: C_11  and  C_13
REMARK    6  A    between atoms: N_17  and  S_18
REMARK    7  A    between atoms: S_18  and  C_21
REMARK                            x       y       z     vdW  Elec       q    Type
REMARK                         _______ _______ _______ _____ _____    ______ ____
ROOT
ATOM      1  C   UNL     1       5.536   4.852  18.197  0.00  0.00    +0.000 C 
ATOM      2  C   UNL     1       6.249   5.738  19.216  0.00  0.00    +0.000 C 
ATOM      3  C   UNL     1       7.670   5.190  19.211  0.00  0.00    +0.000 C 
ATOM      4  C   UNL     1       7.843   4.483  17.863  0.00  0.00    +0.000 C 
ATOM      5  N   UNL     1       6.559   4.686  17.111  0.00  0.00    +0.000 NA
ENDROOT
BRANCH   1   7
ATOM      6  N   UNL     1       3.750   6.529  18.199  0.00  0.00    +0.000 N 
ATOM      7  C   UNL     1       4.067   5.205  17.996  0.00  0.00    +0.000 C 
ATOM      8  O   UNL     1       3.281   4.406  17.487  0.00  0.00    +0.000 OA
ATOM      9  H   UNL     1       4.276   7.006  18.927  0.00  0.00    +0.000 HD
BRANCH   6  10
ATOM     10  C   UNL     1       2.448   7.100  17.880  0.00  0.00    +0.000 C 
BRANCH  10  16
ATOM     11  C   UNL     1       1.846   7.424  20.354  0.00  0.00    +0.000 A 
ATOM     12  C   UNL     1       1.379   8.243  21.393  0.00  0.00    +0.000 A 
ATOM     13  C   UNL     1       0.842   9.497  21.116  0.00  0.00    +0.000 A 
ATOM     14  C   UNL     1       0.811   9.958  19.806  0.00  0.00    +0.000 A 
ATOM     15  C   UNL     1       1.359   9.183  18.781  0.00  0.00    +0.000 A 
ATOM     16  C   UNL     1       1.908   7.912  19.038  0.00  0.00    +0.000 A 
BRANCH  11  18
ATOM     17  C   UNL     1       1.159   5.192  20.511  0.00  0.00    +0.000 C 
ATOM     18  O   UNL     1       2.237   6.129  20.587  0.00  0.00    +0.000 OA
ENDBRANCH  11  18
ENDBRANCH  10  16
ENDBRANCH   6  10
ENDBRANCH   1   7
BRANCH   5  19
ATOM     19  S   UNL     1       6.644   5.899  15.911  0.00  0.00    +0.000 S 
ATOM     20  O   UNL     1       5.398   6.639  15.916  0.00  0.00    +0.000 OA
ATOM     21  O   UNL     1       7.911   6.583  16.073  0.00  0.00    +0.000 OA
BRANCH  19  22
ATOM     22  C   UNL     1       6.706   5.003  14.387  0.00  0.00    +0.000 A 
ATOM     23  C   UNL     1       7.693   5.277  13.429  0.00  0.00    +0.000 A 
ATOM     24  C   UNL     1       7.673   4.608  12.201  0.00  0.00    +0.000 A 
ATOM     25  C   UNL     1       6.672   3.676  11.927  0.00  0.00    +0.000 A 
ATOM     26  C   UNL     1       5.687   3.413  12.881  0.00  0.00    +0.000 A 
ATOM     27  C   UNL     1       5.706   4.081  14.106  0.00  0.00    +0.000 A 
ATOM     28  F   UNL     1       4.742   3.808  14.995  0.00  0.00    +0.000 F 
ENDBRANCH  19  22
ENDBRANCH   5  19
TORSDOF 6
ENDMDL
MODEL 7
REMARK VINA RESULT:      -7.3      1.359      2.259
REMARK  Name = 
REMARK  7 active torsions:
REMARK  status: ('A' for Active; 'I' for Inactive)
REMARK    1  A    between atoms: C_1  and  O_2
REMARK    2  A    between atoms: O_2  and  C_3
REMARK    3  A    between atoms: C_8  and  C_9
REMARK    4  A    between atoms: C_9  and  N_10
REMARK    5  A    between atoms: C_11  and  C_13
REMARK    6  A    between atoms: N_17  and  S_18
REMARK    7  A    between atoms: S_18  and  C_21
REMARK                            x       y       z     vdW  Elec       q    Type
REMARK                         _______ _______ _______ _____ _____    ______ ____
ROOT
ATOM      1  C   UNL     1       1.713   4.618  18.852  0.00  0.00    +0.000 C 
ATOM      2  C   UNL     1       1.196   4.060  20.175  0.00  0.00    +0.000 C 
ATOM      3  C   UNL     1       0.564   2.736  19.765  0.00  0.00    +0.000 C 
ATOM      4  C   UNL     1       1.229   2.344  18.442  0.00  0.00    +0.000 C 
ATOM      5  N   UNL     1       2.255   3.403  18.154  0.00  0.00    +0.000 NA
ENDROOT
BRANCH   1   7
ATOM      6  N   UNL     1       1.924   6.964  18.183  0.00  0.00    +0.000 N 
ATOM      7  C   UNL     1       2.419   5.962  18.984  0.00  0.00    +0.000 C 
ATOM      8  O   UNL     1       3.225   6.175  19.889  0.00  0.00    +0.000 OA
ATOM      9  H   UNL     1       1.580   6.676  17.270  0.00  0.00    +0.000 HD
BRANCH   6  10
ATOM     10  C   UNL     1       2.336   8.358  18.293  0.00  0.00    +0.000 C 
BRANCH  10  16
ATOM     11  C   UNL     1       0.890   9.430  20.122  0.00  0.00    +0.000 A 
ATOM     12  C   UNL     1      -0.153  10.291  20.497  0.00  0.00    +0.000 A 
ATOM     13  C   UNL     1      -0.989  10.848  19.534  0.00  0.00    +0.000 A 
ATOM     14  C   UNL     1      -0.759  10.586  18.189  0.00  0.00    +0.000 A 
ATOM     15  C   UNL     1       0.334   9.805  17.808  0.00  0.00    +0.000 A 
ATOM     16  C   UNL     1       1.193   9.231  18.765  0.00  0.00    +0.000 A 
BRANCH  11  18
ATOM     17  C   UNL     1       1.239   9.049  22.405  0.00  0.00    +0.000 C 
ATOM     18  O   UNL     1       1.628   8.753  21.061  0.00  0.00    +0.000 OA
ENDBRANCH  11  18
ENDBRANCH  10  16
ENDBRANCH   6  10
ENDBRANCH   1   7
BRANCH   5  19
ATOM     19  S   UNL     1       3.856   2.932  18.515  0.00  0.00    +0.000 S 
ATOM     20  O   UNL     1       4.120   3.227  19.909  0.00  0.00    +0.000 OA
ATOM     21  O   UNL     1       4.044   1.593  17.994  0.00  0.00    +0.000 OA
BRANCH  19  22
ATOM     22  C   UNL     1       4.862   4.029  17.558  0.00  0.00    +0.000 A 
ATOM     23  C   UNL     1       4.717   4.109  16.165  0.00  0.00    +0.000 A 
ATOM     24  C   UNL     1       5.576   4.928  15.425  0.00  0.00    +0.000 A 
ATOM     25  C   UNL     1       6.576   5.657  16.068  0.00  0.00    +0.000 A 
ATOM     26  C   UNL     1       6.720   5.568  17.453  0.00  0.00    +0.000 A 
ATOM     27  C   UNL     1       5.865   4.750  18.193  0.00  0.00    +0.000 A 
ATOM     28  F   UNL     1       6.036   4.683  19.520  0.00  0.00    +0.000 F 
ENDBRANCH  19  22
ENDBRANCH   5  19
TORSDOF 6
ENDMDL
MODEL 8
REMARK VINA RESULT:      -7.3      2.649      7.953
REMARK  Name = 
REMARK  7 active torsions:
REMARK  status: ('A' for Active; 'I' for Inactive)
REMARK    1  A    between atoms: C_1  and  O_2
REMARK    2  A    between atoms: O_2  and  C_3
REMARK    3  A    between atoms: C_8  and  C_9
REMARK    4  A    between atoms: C_9  and  N_10
REMARK    5  A    between atoms: C_11  and  C_13
REMARK    6  A    between atoms: N_17  and  S_18
REMARK    7  A    between atoms: S_18  and  C_21
REMARK                            x       y       z     vdW  Elec       q    Type
REMARK                         _______ _______ _______ _____ _____    ______ ____
ROOT
ATOM      1  C   UNL     1       4.691   4.153  19.165  0.00  0.00    +0.000 C 
ATOM      2  C   UNL     1       3.942   2.945  18.608  0.00  0.00    +0.000 C 
ATOM      3  C   UNL     1       2.757   2.810  19.555  0.00  0.00    +0.000 C 
ATOM      4  C   UNL     1       2.562   4.193  20.185  0.00  0.00    +0.000 C 
ATOM      5  N   UNL     1       3.586   5.093  19.554  0.00  0.00    +0.000 NA
ENDROOT
BRANCH   1   7
ATOM      6  N   UNL     1       5.796   4.498  17.007  0.00  0.00    +0.000 N 
ATOM      7  C   UNL     1       5.941   4.521  18.375  0.00  0.00    +0.000 C 
ATOM      8  O   UNL     1       6.930   5.001  18.929  0.00  0.00    +0.000 OA
ATOM      9  H   UNL     1       5.171   3.786  16.636  0.00  0.00    +0.000 HD
BRANCH   6  10
ATOM     10  C   UNL     1       6.810   4.992  16.085  0.00  0.00    +0.000 C 
BRANCH  10  16
ATOM     11  C   UNL     1       7.378   4.833  13.586  0.00  0.00    +0.000 A 
ATOM     12  C   UNL     1       7.101   4.325  12.309  0.00  0.00    +0.000 A 
ATOM     13  C   UNL     1       5.925   3.621  12.068  0.00  0.00    +0.000 A 
ATOM     14  C   UNL     1       5.041   3.381  13.113  0.00  0.00    +0.000 A 
ATOM     15  C   UNL     1       5.357   3.806  14.405  0.00  0.00    +0.000 A 
ATOM     16  C   UNL     1       6.542   4.520  14.671  0.00  0.00    +0.000 A 
BRANCH  11  18
ATOM     17  C   UNL     1       9.010   6.194  12.606  0.00  0.00    +0.000 C 
ATOM     18  O   UNL     1       8.453   5.657  13.809  0.00  0.00    +0.000 OA
ENDBRANCH  11  18
ENDBRANCH  10  16
ENDBRANCH   6  10
ENDBRANCH   1   7
BRANCH   5  19
ATOM     19  S   UNL     1       2.954   6.116  18.341  0.00  0.00    +0.000 S 
ATOM     20  O   UNL     1       4.061   6.704  17.613  0.00  0.00    +0.000 OA
ATOM     21  O   UNL     1       1.919   5.380  17.645  0.00  0.00    +0.000 OA
BRANCH  19  22
ATOM     22  C   UNL     1       2.174   7.427  19.237  0.00  0.00    +0.000 A 
ATOM     23  C   UNL     1       1.861   7.284  20.597  0.00  0.00    +0.000 A 
ATOM     24  C   UNL     1       1.176   8.306  21.262  0.00  0.00    +0.000 A 
ATOM     25  C   UNL     1       0.799   9.460  20.575  0.00  0.00    +0.000 A 
ATOM     26  C   UNL     1       1.107   9.594  19.220  0.00  0.00    +0.000 A 
ATOM     27  C   UNL     1       1.790   8.574  18.555  0.00  0.00    +0.000 A 
ATOM     28  F   UNL     1       2.062   8.733  17.253  0.00  0.00    +0.000 F 
ENDBRANCH  19  22
ENDBRANCH   5  19
TORSDOF 6
ENDMDL
MODEL 9
REMARK VINA RESULT:      -7.3      0.930      1.308
REMARK  Name = 
REMARK  7 active torsions:
REMARK  status: ('A' for Active; 'I' for Inactive)
REMARK    1  A    between atoms: C_1  and  O_2
REMARK    2  A    between atoms: O_2  and  C_3
REMARK    3  A    between atoms: C_8  and  C_9
REMARK    4  A    between atoms: C_9  and  N_10
REMARK    5  A    between atoms: C_11  and  C_13
REMARK    6  A    between atoms: N_17  and  S_18
REMARK    7  A    between atoms: S_18  and  C_21
REMARK                            x       y       z     vdW  Elec       q    Type
REMARK                         _______ _______ _______ _____ _____    ______ ____
ROOT
ATOM      1  C   UNL     1       2.027   4.853  19.186  0.00  0.00    +0.000 C 
ATOM      2  C   UNL     1       1.703   4.550  20.646  0.00  0.00    +0.000 C 
ATOM      3  C   UNL     1       1.670   3.028  20.681  0.00  0.00    +0.000 C 
ATOM      4  C   UNL     1       2.507   2.561  19.486  0.00  0.00    +0.000 C 
ATOM      5  N   UNL     1       3.043   3.804  18.834  0.00  0.00    +0.000 NA
ENDROOT
BRANCH   1   7
ATOM      6  N   UNL     1       1.682   7.180  19.867  0.00  0.00    +0.000 N 
ATOM      7  C   UNL     1       2.134   6.341  18.875  0.00  0.00    +0.000 C 
ATOM      8  O   UNL     1       2.768   6.747  17.902  0.00  0.00    +0.000 OA
ATOM      9  H   UNL     1       0.887   6.845  20.407  0.00  0.00    +0.000 HD
BRANCH   6  10
ATOM     10  C   UNL     1       1.866   8.625  19.842  0.00  0.00    +0.000 C 
BRANCH  10  16
ATOM     11  C   UNL     1       0.158  10.432  20.478  0.00  0.00    +0.000 A 
ATOM     12  C   UNL     1      -0.721  10.996  21.414  0.00  0.00    +0.000 A 
ATOM     13  C   UNL     1      -0.734  10.546  22.732  0.00  0.00    +0.000 A 
ATOM     14  C   UNL     1       0.099   9.499  23.108  0.00  0.00    +0.000 A 
ATOM     15  C   UNL     1       0.909   8.874  22.156  0.00  0.00    +0.000 A 
ATOM     16  C   UNL     1       0.936   9.314  20.819  0.00  0.00    +0.000 A 
BRANCH  11  18
ATOM     17  C   UNL     1      -0.838  10.717  18.379  0.00  0.00    +0.000 C 
ATOM     18  O   UNL     1       0.295  10.961  19.219  0.00  0.00    +0.000 OA
ENDBRANCH  11  18
ENDBRANCH  10  16
ENDBRANCH   6  10
ENDBRANCH   1   7
BRANCH   5  19
ATOM     19  S   UNL     1       4.678   4.130  19.204  0.00  0.00    +0.000 S 
ATOM     20  O   UNL     1       4.743   5.373  19.947  0.00  0.00    +0.000 OA
ATOM     21  O   UNL     1       5.253   2.915  19.744  0.00  0.00    +0.000 OA
BRANCH  19  22
ATOM     22  C   UNL     1       5.431   4.431  17.631  0.00  0.00    +0.000 A 
ATOM     23  C   UNL     1       6.652   5.114  17.536  0.00  0.00    +0.000 A 
ATOM     24  C   UNL     1       7.187   5.405  16.277  0.00  0.00    +0.000 A 
ATOM     25  C   UNL     1       6.507   5.023  15.121  0.00  0.00    +0.000 A 
ATOM     26  C   UNL     1       5.288   4.350  15.221  0.00  0.00    +0.000 A 
ATOM     27  C   UNL     1       4.753   4.060  16.477  0.00  0.00    +0.000 A 
ATOM     28  F   UNL     1       3.578   3.419  16.536  0.00  0.00    +0.000 F 
ENDBRANCH  19  22
ENDBRANCH   5  19
TORSDOF 6
ENDMDL
