MODEL 1
REMARK VINA RESULT:      -8.9      0.000      0.000
REMARK  Name = 
REMARK  3 active torsions:
REMARK  status: ('A' for Active; 'I' for Inactive)
REMARK    1  A    between atoms: C_2  and  C_3
REMARK    2  A    between atoms: C_6  and  C_7
REMARK    3  A    between atoms: C_19  and  C_21
REMARK                            x       y       z     vdW  Elec       q    Type
REMARK                         _______ _______ _______ _____ _____    ______ ____
ROOT
ATOM      1  O   UNL     1       2.735   5.861  20.231  0.00  0.00    +0.000 OA
ATOM      2  C   UNL     1       2.807   6.614  19.260  0.00  0.00    +0.000 C 
ATOM      3  N   UNL     1       2.203   7.874  19.250  0.00  0.00    +0.000 N 
ATOM      4  C   UNL     1       2.189   8.833  18.130  0.00  0.00    +0.000 C 
ATOM      5  C   UNL     1       0.835   9.512  17.932  0.00  0.00    +0.000 C 
ATOM      6  N   UNL     1       0.325  10.035  19.192  0.00  0.00    +0.000 N 
ATOM      7  C   UNL     1       0.020  11.390  19.250  0.00  0.00    +0.000 C 
ATOM      8  O   UNL     1       0.149  12.130  18.272  0.00  0.00    +0.000 OA
ATOM      9  C   UNL     1       0.209   8.997  20.229  0.00  0.00    +0.000 C 
ATOM     10  C   UNL     1       1.588   8.366  20.495  0.00  0.00    +0.000 C 
ENDROOT
BRANCH   7  11
ATOM     11  C   UNL     1      -0.516  12.012  20.481  0.00  0.00    +0.000 A 
ATOM     12  C   UNL     1       0.300  12.949  21.129  0.00  0.00    +0.000 A 
ATOM     13  C   UNL     1      -0.127  13.588  22.297  0.00  0.00    +0.000 A 
ATOM     14  C   UNL     1      -1.410  13.297  22.802  0.00  0.00    +0.000 A 
ATOM     15  C   UNL     1      -2.164  13.779  23.904  0.00  0.00    +0.000 A 
ATOM     16  C   UNL     1      -3.382  13.138  23.888  0.00  0.00    +0.000 A 
ATOM     17  N   UNL     1      -3.384  12.264  22.837  0.00  0.00    +0.000 N 
ATOM     18  C   UNL     1      -2.189  12.340  22.158  0.00  0.00    +0.000 A 
ATOM     19  C   UNL     1      -1.748  11.639  21.030  0.00  0.00    +0.000 A 
ATOM     20  H   UNL     1      -4.157  11.670  22.571  0.00  0.00    +0.000 HD
ENDBRANCH   7  11
BRANCH   2  21
ATOM     21  C   UNL     1       3.515   6.105  18.052  0.00  0.00    +0.000 A 
ATOM     22  C   UNL     1       4.360   6.979  17.365  0.00  0.00    +0.000 A 
ATOM     23  C   UNL     1       5.082   6.532  16.252  0.00  0.00    +0.000 A 
ATOM     24  C   UNL     1       5.017   5.195  15.818  0.00  0.00    +0.000 A 
ATOM     25  C   UNL     1       4.150   4.340  16.516  0.00  0.00    +0.000 A 
ATOM     26  C   UNL     1       3.357   4.807  17.567  0.00  0.00    +0.000 A 
BRANCH  24  27
ATOM     27  C   UNL     1       5.770   4.730  14.631  0.00  0.00    +0.000 A 
ATOM     28  C   UNL     1       7.045   5.238  14.321  0.00  0.00    +0.000 A 
ATOM     29  C   UNL     1       7.704   4.880  13.141  0.00  0.00    +0.000 A 
ATOM     30  C   UNL     1       7.115   3.984  12.257  0.00  0.00    +0.000 A 
ATOM     31  C   UNL     1       5.877   3.430  12.560  0.00  0.00    +0.000 A 
ATOM     32  C   UNL     1       5.215   3.799  13.732  0.00  0.00    +0.000 A 
ENDBRANCH  24  27
ENDBRANCH   2  21
TORSDOF 3
ENDMDL
MODEL 2
REMARK VINA RESULT:      -8.7      2.715      5.199
REMARK  Name = 
REMARK  3 active torsions:
REMARK  status: ('A' for Active; 'I' for Inactive)
REMARK    1  A    between atoms: C_2  and  C_3
REMARK    2  A    between atoms: C_6  and  C_7
REMARK    3  A    between atoms: C_19  and  C_21
REMARK                            x       y       z     vdW  Elec       q    Type
REMARK                         _______ _______ _______ _____ _____    ______ ____
ROOT
ATOM      1  O   UNL     1       1.518  12.433  19.281  0.00  0.00    +0.000 OA
ATOM      2  C   UNL     1       0.877  11.503  19.770  0.00  0.00    +0.000 C 
ATOM      3  N   UNL     1      -0.155  11.715  20.687  0.00  0.00    +0.000 N 
ATOM      4  C   UNL     1      -0.955  10.678  21.365  0.00  0.00    +0.000 C 
ATOM      5  C   UNL     1      -1.204  10.976  22.842  0.00  0.00    +0.000 C 
ATOM      6  N   UNL     1      -1.688  12.337  23.025  0.00  0.00    +0.000 N 
ATOM      7  C   UNL     1      -2.901  12.507  23.681  0.00  0.00    +0.000 C 
ATOM      8  O   UNL     1      -3.545  11.551  24.117  0.00  0.00    +0.000 OA
ATOM      9  C   UNL     1      -0.768  13.343  22.467  0.00  0.00    +0.000 C 
ATOM     10  C   UNL     1      -0.578  13.100  20.958  0.00  0.00    +0.000 C 
ENDROOT
BRANCH   7  11
ATOM     11  C   UNL     1      -3.469  13.852  23.925  0.00  0.00    +0.000 A 
ATOM     12  C   UNL     1      -2.855  14.633  24.914  0.00  0.00    +0.000 A 
ATOM     13  C   UNL     1      -3.323  15.917  25.209  0.00  0.00    +0.000 A 
ATOM     14  C   UNL     1      -4.409  16.431  24.473  0.00  0.00    +0.000 A 
ATOM     15  C   UNL     1      -5.093  17.675  24.473  0.00  0.00    +0.000 A 
ATOM     16  C   UNL     1      -6.072  17.612  23.507  0.00  0.00    +0.000 A 
ATOM     17  N   UNL     1      -6.027  16.367  22.943  0.00  0.00    +0.000 N 
ATOM     18  C   UNL     1      -5.020  15.625  23.518  0.00  0.00    +0.000 A 
ATOM     19  C   UNL     1      -4.611  14.312  23.261  0.00  0.00    +0.000 A 
ATOM     20  H   UNL     1      -6.620  16.043  22.192  0.00  0.00    +0.000 HD
ENDBRANCH   7  11
BRANCH   2  21
ATOM     21  C   UNL     1       1.287  10.121  19.397  0.00  0.00    +0.000 A 
ATOM     22  C   UNL     1       1.621   9.868  18.064  0.00  0.00    +0.000 A 
ATOM     23  C   UNL     1       2.056   8.596  17.676  0.00  0.00    +0.000 A 
ATOM     24  C   UNL     1       2.211   7.552  18.606  0.00  0.00    +0.000 A 
ATOM     25  C   UNL     1       1.856   7.826  19.936  0.00  0.00    +0.000 A 
ATOM     26  C   UNL     1       1.331   9.066  20.308  0.00  0.00    +0.000 A 
BRANCH  24  27
ATOM     27  C   UNL     1       2.657   6.203  18.188  0.00  0.00    +0.000 A 
ATOM     28  C   UNL     1       3.957   5.974  17.700  0.00  0.00    +0.000 A 
ATOM     29  C   UNL     1       4.337   4.724  17.202  0.00  0.00    +0.000 A 
ATOM     30  C   UNL     1       3.434   3.667  17.206  0.00  0.00    +0.000 A 
ATOM     31  C   UNL     1       2.159   3.852  17.726  0.00  0.00    +0.000 A 
ATOM     32  C   UNL     1       1.777   5.104  18.210  0.00  0.00    +0.000 A 
ENDBRANCH  24  27
ENDBRANCH   2  21
TORSDOF 3
ENDMDL
MODEL 3
REMARK VINA RESULT:      -8.6      0.715      1.143
REMARK  Name = 
REMARK  3 active torsions:
REMARK  status: ('A' for Active; 'I' for Inactive)
REMARK    1  A    between atoms: C_2  and  C_3
REMARK    2  A    between atoms: C_6  and  C_7
REMARK    3  A    between atoms: C_19  and  C_21
REMARK                            x       y       z     vdW  Elec       q    Type
REMARK                         _______ _______ _______ _____ _____    ______ ____
ROOT
ATOM      1  O   UNL     1       2.770   5.754  20.170  0.00  0.00    +0.000 OA
ATOM      2  C   UNL     1       2.860   6.542  19.228  0.00  0.00    +0.000 C 
ATOM      3  N   UNL     1       2.187   7.765  19.217  0.00  0.00    +0.000 N 
ATOM      4  C   UNL     1       2.190   8.759  18.127  0.00  0.00    +0.000 C 
ATOM      5  C   UNL     1       0.815   9.369  17.862  0.00  0.00    +0.000 C 
ATOM      6  N   UNL     1       0.196   9.821  19.101  0.00  0.00    +0.000 N 
ATOM      7  C   UNL     1      -0.189  11.154  19.179  0.00  0.00    +0.000 C 
ATOM      8  O   UNL     1      -0.040  11.932  18.234  0.00  0.00    +0.000 OA
ATOM      9  C   UNL     1       0.074   8.744  20.097  0.00  0.00    +0.000 C 
ATOM     10  C   UNL     1       1.468   8.181  20.434  0.00  0.00    +0.000 C 
ENDROOT
BRANCH   7  11
ATOM     11  C   UNL     1      -0.836  11.704  20.391  0.00  0.00    +0.000 A 
ATOM     12  C   UNL     1      -0.316  11.303  21.629  0.00  0.00    +0.000 A 
ATOM     13  C   UNL     1      -0.864  11.775  22.826  0.00  0.00    +0.000 A 
ATOM     14  C   UNL     1      -1.934  12.689  22.770  0.00  0.00    +0.000 A 
ATOM     15  C   UNL     1      -2.680  13.389  23.755  0.00  0.00    +0.000 A 
ATOM     16  C   UNL     1      -3.601  14.174  23.100  0.00  0.00    +0.000 A 
ATOM     17  N   UNL     1      -3.464  13.954  21.757  0.00  0.00    +0.000 N 
ATOM     18  C   UNL     1      -2.452  13.049  21.529  0.00  0.00    +0.000 A 
ATOM     19  C   UNL     1      -1.964  12.529  20.325  0.00  0.00    +0.000 A 
ATOM     20  H   UNL     1      -3.999  14.410  21.031  0.00  0.00    +0.000 HD
ENDBRANCH   7  11
BRANCH   2  21
ATOM     21  C   UNL     1       3.672   6.112  18.055  0.00  0.00    +0.000 A 
ATOM     22  C   UNL     1       3.501   4.812  17.576  0.00  0.00    +0.000 A 
ATOM     23  C   UNL     1       4.207   4.378  16.448  0.00  0.00    +0.000 A 
ATOM     24  C   UNL     1       5.070   5.237  15.741  0.00  0.00    +0.000 A 
ATOM     25  C   UNL     1       5.235   6.534  16.251  0.00  0.00    +0.000 A 
ATOM     26  C   UNL     1       4.605   6.938  17.430  0.00  0.00    +0.000 A 
BRANCH  24  27
ATOM     27  C   UNL     1       5.827   4.770  14.558  0.00  0.00    +0.000 A 
ATOM     28  C   UNL     1       7.094   5.293  14.238  0.00  0.00    +0.000 A 
ATOM     29  C   UNL     1       7.755   4.930  13.061  0.00  0.00    +0.000 A 
ATOM     30  C   UNL     1       7.177   4.015  12.189  0.00  0.00    +0.000 A 
ATOM     31  C   UNL     1       5.948   3.446  12.503  0.00  0.00    +0.000 A 
ATOM     32  C   UNL     1       5.283   3.820  13.672  0.00  0.00    +0.000 A 
ENDBRANCH  24  27
ENDBRANCH   2  21
TORSDOF 3
ENDMDL
MODEL 4
REMARK VINA RESULT:      -8.5      3.084      5.190
REMARK  Name = 
REMARK  3 active torsions:
REMARK  status: ('A' for Active; 'I' for Inactive)
REMARK    1  A    between atoms: C_2  and  C_3
REMARK    2  A    between atoms: C_6  and  C_7
REMARK    3  A    between atoms: C_19  and  C_21
REMARK                            x       y       z     vdW  Elec       q    Type
REMARK                         _______ _______ _______ _____ _____    ______ ____
ROOT
ATOM      1  O   UNL     1       1.212  12.036  18.798  0.00  0.00    +0.000 OA
ATOM      2  C   UNL     1       0.696  11.145  19.473  0.00  0.00    +0.000 C 
ATOM      3  N   UNL     1      -0.295  11.411  20.420  0.00  0.00    +0.000 N 
ATOM      4  C   UNL     1      -0.946  10.430  21.308  0.00  0.00    +0.000 C 
ATOM      5  C   UNL     1      -1.135  10.941  22.735  0.00  0.00    +0.000 C 
ATOM      6  N   UNL     1      -1.740  12.266  22.740  0.00  0.00    +0.000 N 
ATOM      7  C   UNL     1      -2.923  12.432  23.450  0.00  0.00    +0.000 C 
ATOM      8  O   UNL     1      -3.442  11.506  24.077  0.00  0.00    +0.000 OA
ATOM      9  C   UNL     1      -0.959  13.245  21.966  0.00  0.00    +0.000 C 
ATOM     10  C   UNL     1      -0.836  12.779  20.503  0.00  0.00    +0.000 C 
ENDROOT
BRANCH   7  11
ATOM     11  C   UNL     1      -3.605  13.743  23.524  0.00  0.00    +0.000 A 
ATOM     12  C   UNL     1      -4.608  13.994  22.576  0.00  0.00    +0.000 A 
ATOM     13  C   UNL     1      -5.306  15.205  22.574  0.00  0.00    +0.000 A 
ATOM     14  C   UNL     1      -5.008  16.165  23.562  0.00  0.00    +0.000 A 
ATOM     15  C   UNL     1      -5.537  17.444  23.878  0.00  0.00    +0.000 A 
ATOM     16  C   UNL     1      -4.859  17.914  24.980  0.00  0.00    +0.000 A 
ATOM     17  N   UNL     1      -3.918  16.982  25.325  0.00  0.00    +0.000 N 
ATOM     18  C   UNL     1      -3.989  15.904  24.472  0.00  0.00    +0.000 A 
ATOM     19  C   UNL     1      -3.230  14.729  24.443  0.00  0.00    +0.000 A 
ATOM     20  H   UNL     1      -3.285  17.052  26.109  0.00  0.00    +0.000 HD
ENDBRANCH   7  11
BRANCH   2  21
ATOM     21  C   UNL     1       1.218   9.762  19.289  0.00  0.00    +0.000 A 
ATOM     22  C   UNL     1       1.709   9.404  18.032  0.00  0.00    +0.000 A 
ATOM     23  C   UNL     1       2.252   8.130  17.825  0.00  0.00    +0.000 A 
ATOM     24  C   UNL     1       2.360   7.194  18.870  0.00  0.00    +0.000 A 
ATOM     25  C   UNL     1       1.846   7.573  20.120  0.00  0.00    +0.000 A 
ATOM     26  C   UNL     1       1.219   8.807  20.305  0.00  0.00    +0.000 A 
BRANCH  24  27
ATOM     27  C   UNL     1       2.921   5.842  18.642  0.00  0.00    +0.000 A 
ATOM     28  C   UNL     1       4.160   5.456  19.184  0.00  0.00    +0.000 A 
ATOM     29  C   UNL     1       4.736   4.221  18.875  0.00  0.00    +0.000 A 
ATOM     30  C   UNL     1       4.073   3.331  18.038  0.00  0.00    +0.000 A 
ATOM     31  C   UNL     1       2.826   3.666  17.526  0.00  0.00    +0.000 A 
ATOM     32  C   UNL     1       2.258   4.906  17.825  0.00  0.00    +0.000 A 
ENDBRANCH  24  27
ENDBRANCH   2  21
TORSDOF 3
ENDMDL
MODEL 5
REMARK VINA RESULT:      -8.5      3.248      5.105
REMARK  Name = 
REMARK  3 active torsions:
REMARK  status: ('A' for Active; 'I' for Inactive)
REMARK    1  A    between atoms: C_2  and  C_3
REMARK    2  A    between atoms: C_6  and  C_7
REMARK    3  A    between atoms: C_19  and  C_21
REMARK                            x       y       z     vdW  Elec       q    Type
REMARK                         _______ _______ _______ _____ _____    ______ ____
ROOT
ATOM      1  O   UNL     1       1.649  11.900  18.898  0.00  0.00    +0.000 OA
ATOM      2  C   UNL     1       1.024  11.036  19.514  0.00  0.00    +0.000 C 
ATOM      3  N   UNL     1       0.017  11.357  20.427  0.00  0.00    +0.000 N 
ATOM      4  C   UNL     1      -0.761  10.408  21.246  0.00  0.00    +0.000 C 
ATOM      5  C   UNL     1      -0.969  10.882  22.683  0.00  0.00    +0.000 C 
ATOM      6  N   UNL     1      -1.452  12.256  22.715  0.00  0.00    +0.000 N 
ATOM      7  C   UNL     1      -2.648  12.504  23.379  0.00  0.00    +0.000 C 
ATOM      8  O   UNL     1      -3.276  11.607  23.946  0.00  0.00    +0.000 OA
ATOM      9  C   UNL     1      -0.551  13.187  22.015  0.00  0.00    +0.000 C 
ATOM     10  C   UNL     1      -0.403  12.764  20.542  0.00  0.00    +0.000 C 
ENDROOT
BRANCH   7  11
ATOM     11  C   UNL     1      -3.212  13.868  23.476  0.00  0.00    +0.000 A 
ATOM     12  C   UNL     1      -2.922  14.597  24.638  0.00  0.00    +0.000 A 
ATOM     13  C   UNL     1      -3.411  15.895  24.812  0.00  0.00    +0.000 A 
ATOM     14  C   UNL     1      -4.181  16.476  23.785  0.00  0.00    +0.000 A 
ATOM     15  C   UNL     1      -4.780  17.751  23.609  0.00  0.00    +0.000 A 
ATOM     16  C   UNL     1      -5.396  17.756  22.378  0.00  0.00    +0.000 A 
ATOM     17  N   UNL     1      -5.219  16.522  21.814  0.00  0.00    +0.000 N 
ATOM     18  C   UNL     1      -4.480  15.721  22.655  0.00  0.00    +0.000 A 
ATOM     19  C   UNL     1      -4.060  14.396  22.497  0.00  0.00    +0.000 A 
ATOM     20  H   UNL     1      -5.549  16.243  20.901  0.00  0.00    +0.000 HD
ENDBRANCH   7  11
BRANCH   2  21
ATOM     21  C   UNL     1       1.427   9.619  19.298  0.00  0.00    +0.000 A 
ATOM     22  C   UNL     1       1.778   9.222  18.006  0.00  0.00    +0.000 A 
ATOM     23  C   UNL     1       2.208   7.912  17.763  0.00  0.00    +0.000 A 
ATOM     24  C   UNL     1       2.341   6.974  18.803  0.00  0.00    +0.000 A 
ATOM     25  C   UNL     1       1.969   7.392  20.090  0.00  0.00    +0.000 A 
ATOM     26  C   UNL     1       1.450   8.668  20.318  0.00  0.00    +0.000 A 
BRANCH  24  27
ATOM     27  C   UNL     1       2.782   5.585  18.539  0.00  0.00    +0.000 A 
ATOM     28  C   UNL     1       1.993   4.690  17.792  0.00  0.00    +0.000 A 
ATOM     29  C   UNL     1       2.360   3.350  17.641  0.00  0.00    +0.000 A 
ATOM     30  C   UNL     1       3.538   2.879  18.209  0.00  0.00    +0.000 A 
ATOM     31  C   UNL     1       4.360   3.752  18.911  0.00  0.00    +0.000 A 
ATOM     32  C   UNL     1       3.986   5.086  19.074  0.00  0.00    +0.000 A 
ENDBRANCH  24  27
ENDBRANCH   2  21
TORSDOF 3
ENDMDL
MODEL 6
REMARK VINA RESULT:      -8.4      0.890      1.292
REMARK  Name = 
REMARK  3 active torsions:
REMARK  status: ('A' for Active; 'I' for Inactive)
REMARK    1  A    between atoms: C_2  and  C_3
REMARK    2  A    between atoms: C_6  and  C_7
REMARK    3  A    between atoms: C_19  and  C_21
REMARK                            x       y       z     vdW  Elec       q    Type
REMARK                         _______ _______ _______ _____ _____    ______ ____
ROOT
ATOM      1  O   UNL     1       2.531   5.838  20.178  0.00  0.00    +0.000 OA
ATOM      2  C   UNL     1       2.709   6.622  19.245  0.00  0.00    +0.000 C 
ATOM      3  N   UNL     1       2.203   7.924  19.264  0.00  0.00    +0.000 N 
ATOM      4  C   UNL     1       2.318   8.926  18.188  0.00  0.00    +0.000 C 
ATOM      5  C   UNL     1       1.031   9.716  17.957  0.00  0.00    +0.000 C 
ATOM      6  N   UNL     1       0.500  10.226  19.213  0.00  0.00    +0.000 N 
ATOM      7  C   UNL     1       0.295  11.597  19.317  0.00  0.00    +0.000 C 
ATOM      8  O   UNL     1       0.529  12.363  18.380  0.00  0.00    +0.000 OA
ATOM      9  C   UNL     1       0.253   9.158  20.197  0.00  0.00    +0.000 C 
ATOM     10  C   UNL     1       1.566   8.411  20.499  0.00  0.00    +0.000 C 
ENDROOT
BRANCH   7  11
ATOM     11  C   UNL     1      -0.253  12.208  20.549  0.00  0.00    +0.000 A 
ATOM     12  C   UNL     1      -1.186  11.454  21.274  0.00  0.00    +0.000 A 
ATOM     13  C   UNL     1      -1.753  11.952  22.451  0.00  0.00    +0.000 A 
ATOM     14  C   UNL     1      -1.348  13.218  22.918  0.00  0.00    +0.000 A 
ATOM     15  C   UNL     1      -1.671  13.989  24.066  0.00  0.00    +0.000 A 
ATOM     16  C   UNL     1      -0.940  15.153  24.004  0.00  0.00    +0.000 A 
ATOM     17  N   UNL     1      -0.210  15.131  22.847  0.00  0.00    +0.000 N 
ATOM     18  C   UNL     1      -0.443  13.959  22.165  0.00  0.00    +0.000 A 
ATOM     19  C   UNL     1       0.078  13.507  20.948  0.00  0.00    +0.000 A 
ATOM     20  H   UNL     1       0.434  15.850  22.548  0.00  0.00    +0.000 HD
ENDBRANCH   7  11
BRANCH   2  21
ATOM     21  C   UNL     1       3.435   6.108  18.051  0.00  0.00    +0.000 A 
ATOM     22  C   UNL     1       4.242   6.997  17.337  0.00  0.00    +0.000 A 
ATOM     23  C   UNL     1       4.981   6.549  16.236  0.00  0.00    +0.000 A 
ATOM     24  C   UNL     1       4.970   5.198  15.839  0.00  0.00    +0.000 A 
ATOM     25  C   UNL     1       4.140   4.329  16.564  0.00  0.00    +0.000 A 
ATOM     26  C   UNL     1       3.331   4.792  17.603  0.00  0.00    +0.000 A 
BRANCH  24  27
ATOM     27  C   UNL     1       5.740   4.732  14.664  0.00  0.00    +0.000 A 
ATOM     28  C   UNL     1       7.035   5.211  14.392  0.00  0.00    +0.000 A 
ATOM     29  C   UNL     1       7.713   4.854  13.223  0.00  0.00    +0.000 A 
ATOM     30  C   UNL     1       7.123   3.986  12.311  0.00  0.00    +0.000 A 
ATOM     31  C   UNL     1       5.864   3.459  12.577  0.00  0.00    +0.000 A 
ATOM     32  C   UNL     1       5.183   3.829  13.738  0.00  0.00    +0.000 A 
ENDBRANCH  24  27
ENDBRANCH   2  21
TORSDOF 3
ENDMDL
MODEL 7
REMARK VINA RESULT:      -8.4      2.747     11.492
REMARK  Name = 
REMARK  3 active torsions:
REMARK  status: ('A' for Active; 'I' for Inactive)
REMARK    1  A    between atoms: C_2  and  C_3
REMARK    2  A    between atoms: C_6  and  C_7
REMARK    3  A    between atoms: C_19  and  C_21
REMARK                            x       y       z     vdW  Elec       q    Type
REMARK                         _______ _______ _______ _____ _____    ______ ____
ROOT
ATOM      1  O   UNL     1      -0.329   9.637  23.855  0.00  0.00    +0.000 OA
ATOM      2  C   UNL     1      -0.488  10.264  22.808  0.00  0.00    +0.000 C 
ATOM      3  N   UNL     1       0.012   9.808  21.586  0.00  0.00    +0.000 N 
ATOM      4  C   UNL     1      -0.083  10.497  20.286  0.00  0.00    +0.000 C 
ATOM      5  C   UNL     1       1.206  10.425  19.469  0.00  0.00    +0.000 C 
ATOM      6  N   UNL     1       1.706   9.059  19.402  0.00  0.00    +0.000 N 
ATOM      7  C   UNL     1       1.902   8.506  18.142  0.00  0.00    +0.000 C 
ATOM      8  O   UNL     1       1.687   9.145  17.109  0.00  0.00    +0.000 OA
ATOM      9  C   UNL     1       1.933   8.475  20.734  0.00  0.00    +0.000 C 
ATOM     10  C   UNL     1       0.617   8.465  21.534  0.00  0.00    +0.000 C 
ENDROOT
BRANCH   7  11
ATOM     11  C   UNL     1       2.417   7.130  17.971  0.00  0.00    +0.000 A 
ATOM     12  C   UNL     1       3.774   6.993  17.645  0.00  0.00    +0.000 A 
ATOM     13  C   UNL     1       4.347   5.730  17.468  0.00  0.00    +0.000 A 
ATOM     14  C   UNL     1       3.544   4.587  17.652  0.00  0.00    +0.000 A 
ATOM     15  C   UNL     1       3.798   3.191  17.601  0.00  0.00    +0.000 A 
ATOM     16  C   UNL     1       2.619   2.543  17.893  0.00  0.00    +0.000 A 
ATOM     17  N   UNL     1       1.653   3.492  18.088  0.00  0.00    +0.000 N 
ATOM     18  C   UNL     1       2.193   4.750  17.944  0.00  0.00    +0.000 A 
ATOM     19  C   UNL     1       1.588   6.006  18.053  0.00  0.00    +0.000 A 
ATOM     20  H   UNL     1       0.692   3.306  18.335  0.00  0.00    +0.000 HD
ENDBRANCH   7  11
BRANCH   2  21
ATOM     21  C   UNL     1      -1.184  11.578  22.899  0.00  0.00    +0.000 A 
ATOM     22  C   UNL     1      -2.506  11.594  23.348  0.00  0.00    +0.000 A 
ATOM     23  C   UNL     1      -3.186  12.808  23.494  0.00  0.00    +0.000 A 
ATOM     24  C   UNL     1      -2.559  14.042  23.238  0.00  0.00    +0.000 A 
ATOM     25  C   UNL     1      -1.235  13.998  22.774  0.00  0.00    +0.000 A 
ATOM     26  C   UNL     1      -0.586  12.784  22.537  0.00  0.00    +0.000 A 
BRANCH  24  27
ATOM     27  C   UNL     1      -3.287  15.324  23.378  0.00  0.00    +0.000 A 
ATOM     28  C   UNL     1      -3.217  16.324  22.391  0.00  0.00    +0.000 A 
ATOM     29  C   UNL     1      -3.814  17.574  22.578  0.00  0.00    +0.000 A 
ATOM     30  C   UNL     1      -4.519  17.843  23.745  0.00  0.00    +0.000 A 
ATOM     31  C   UNL     1      -4.645  16.857  24.717  0.00  0.00    +0.000 A 
ATOM     32  C   UNL     1      -4.036  15.614  24.534  0.00  0.00    +0.000 A 
ENDBRANCH  24  27
ENDBRANCH   2  21
TORSDOF 3
ENDMDL
MODEL 8
REMARK VINA RESULT:      -8.3      3.236      5.128
REMARK  Name = 
REMARK  3 active torsions:
REMARK  status: ('A' for Active; 'I' for Inactive)
REMARK    1  A    between atoms: C_2  and  C_3
REMARK    2  A    between atoms: C_6  and  C_7
REMARK    3  A    between atoms: C_19  and  C_21
REMARK                            x       y       z     vdW  Elec       q    Type
REMARK                         _______ _______ _______ _____ _____    ______ ____
ROOT
ATOM      1  O   UNL     1       1.453  12.125  18.711  0.00  0.00    +0.000 OA
ATOM      2  C   UNL     1       0.923  11.224  19.360  0.00  0.00    +0.000 C 
ATOM      3  N   UNL     1      -0.077  11.476  20.301  0.00  0.00    +0.000 N 
ATOM      4  C   UNL     1      -0.745  10.481  21.161  0.00  0.00    +0.000 C 
ATOM      5  C   UNL     1      -0.947  10.962  22.597  0.00  0.00    +0.000 C 
ATOM      6  N   UNL     1      -1.542  12.290  22.624  0.00  0.00    +0.000 N 
ATOM      7  C   UNL     1      -2.732  12.449  23.324  0.00  0.00    +0.000 C 
ATOM      8  O   UNL     1      -3.265  11.514  23.925  0.00  0.00    +0.000 OA
ATOM      9  C   UNL     1      -0.746  13.281  21.880  0.00  0.00    +0.000 C 
ATOM     10  C   UNL     1      -0.610  12.845  20.408  0.00  0.00    +0.000 C 
ENDROOT
BRANCH   7  11
ATOM     11  C   UNL     1      -3.406  13.763  23.418  0.00  0.00    +0.000 A 
ATOM     12  C   UNL     1      -3.151  14.530  24.564  0.00  0.00    +0.000 A 
ATOM     13  C   UNL     1      -3.743  15.785  24.735  0.00  0.00    +0.000 A 
ATOM     14  C   UNL     1      -4.582  16.286  23.720  0.00  0.00    +0.000 A 
ATOM     15  C   UNL     1      -5.289  17.504  23.544  0.00  0.00    +0.000 A 
ATOM     16  C   UNL     1      -5.932  17.440  22.328  0.00  0.00    +0.000 A 
ATOM     17  N   UNL     1      -5.666  16.218  21.774  0.00  0.00    +0.000 N 
ATOM     18  C   UNL     1      -4.843  15.493  22.607  0.00  0.00    +0.000 A 
ATOM     19  C   UNL     1      -4.318  14.205  22.454  0.00  0.00    +0.000 A 
ATOM     20  H   UNL     1      -5.993  15.901  20.873  0.00  0.00    +0.000 HD
ENDBRANCH   7  11
BRANCH   2  21
ATOM     21  C   UNL     1       1.438   9.841  19.153  0.00  0.00    +0.000 A 
ATOM     22  C   UNL     1       1.473   8.979  20.251  0.00  0.00    +0.000 A 
ATOM     23  C   UNL     1       1.904   7.657  20.095  0.00  0.00    +0.000 A 
ATOM     24  C   UNL     1       2.273   7.144  18.837  0.00  0.00    +0.000 A 
ATOM     25  C   UNL     1       2.243   8.034  17.752  0.00  0.00    +0.000 A 
ATOM     26  C   UNL     1       1.904   9.377  17.923  0.00  0.00    +0.000 A 
BRANCH  24  27
ATOM     27  C   UNL     1       2.745   5.749  18.680  0.00  0.00    +0.000 A 
ATOM     28  C   UNL     1       3.944   5.304  19.265  0.00  0.00    +0.000 A 
ATOM     29  C   UNL     1       4.441   4.021  19.022  0.00  0.00    +0.000 A 
ATOM     30  C   UNL     1       3.736   3.141  18.209  0.00  0.00    +0.000 A 
ATOM     31  C   UNL     1       2.524   3.536  17.656  0.00  0.00    +0.000 A 
ATOM     32  C   UNL     1       2.036   4.824  17.888  0.00  0.00    +0.000 A 
ENDBRANCH  24  27
ENDBRANCH   2  21
TORSDOF 3
ENDMDL
MODEL 9
REMARK VINA RESULT:      -8.1      3.307      4.597
REMARK  Name = 
REMARK  3 active torsions:
REMARK  status: ('A' for Active; 'I' for Inactive)
REMARK    1  A    between atoms: C_2  and  C_3
REMARK    2  A    between atoms: C_6  and  C_7
REMARK    3  A    between atoms: C_19  and  C_21
REMARK                            x       y       z     vdW  Elec       q    Type
REMARK                         _______ _______ _______ _____ _____    ______ ____
ROOT
ATOM      1  O   UNL     1       2.191  10.685  18.177  0.00  0.00    +0.000 OA
ATOM      2  C   UNL     1       1.529   9.988  18.946  0.00  0.00    +0.000 C 
ATOM      3  N   UNL     1       0.592  10.537  19.824  0.00  0.00    +0.000 N 
ATOM      4  C   UNL     1      -0.220   9.802  20.813  0.00  0.00    +0.000 C 
ATOM      5  C   UNL     1      -0.327  10.519  22.157  0.00  0.00    +0.000 C 
ATOM      6  N   UNL     1      -0.701  11.915  21.976  0.00  0.00    +0.000 N 
ATOM      7  C   UNL     1      -1.843  12.367  22.627  0.00  0.00    +0.000 C 
ATOM      8  O   UNL     1      -2.513  11.630  23.353  0.00  0.00    +0.000 OA
ATOM      9  C   UNL     1       0.238  12.642  21.104  0.00  0.00    +0.000 C 
ATOM     10  C   UNL     1       0.288  11.974  19.717  0.00  0.00    +0.000 C 
ENDROOT
BRANCH   7  11
ATOM     11  C   UNL     1      -2.295  13.771  22.514  0.00  0.00    +0.000 A 
ATOM     12  C   UNL     1      -2.090  14.598  23.626  0.00  0.00    +0.000 A 
ATOM     13  C   UNL     1      -2.484  15.940  23.607  0.00  0.00    +0.000 A 
ATOM     14  C   UNL     1      -3.066  16.461  22.434  0.00  0.00    +0.000 A 
ATOM     15  C   UNL     1      -3.527  17.749  22.056  0.00  0.00    +0.000 A 
ATOM     16  C   UNL     1      -3.981  17.666  20.760  0.00  0.00    +0.000 A 
ATOM     17  N   UNL     1      -3.842  16.369  20.348  0.00  0.00    +0.000 N 
ATOM     18  C   UNL     1      -3.286  15.612  21.354  0.00  0.00    +0.000 A 
ATOM     19  C   UNL     1      -2.966  14.250  21.383  0.00  0.00    +0.000 A 
ATOM     20  H   UNL     1      -4.079  16.018  19.430  0.00  0.00    +0.000 HD
ENDBRANCH   7  11
BRANCH   2  21
ATOM     21  C   UNL     1       1.812   8.526  18.955  0.00  0.00    +0.000 A 
ATOM     22  C   UNL     1       2.062   7.894  17.735  0.00  0.00    +0.000 A 
ATOM     23  C   UNL     1       2.379   6.532  17.699  0.00  0.00    +0.000 A 
ATOM     24  C   UNL     1       2.495   5.769  18.876  0.00  0.00    +0.000 A 
ATOM     25  C   UNL     1       2.224   6.422  20.088  0.00  0.00    +0.000 A 
ATOM     26  C   UNL     1       1.816   7.758  20.119  0.00  0.00    +0.000 A 
BRANCH  24  27
ATOM     27  C   UNL     1       2.814   4.323  18.832  0.00  0.00    +0.000 A 
ATOM     28  C   UNL     1       3.776   3.753  19.685  0.00  0.00    +0.000 A 
ATOM     29  C   UNL     1       4.154   2.413  19.564  0.00  0.00    +0.000 A 
ATOM     30  C   UNL     1       3.557   1.603  18.604  0.00  0.00    +0.000 A 
ATOM     31  C   UNL     1       2.569   2.127  17.779  0.00  0.00    +0.000 A 
ATOM     32  C   UNL     1       2.203   3.470  17.892  0.00  0.00    +0.000 A 
ENDBRANCH  24  27
ENDBRANCH   2  21
TORSDOF 3
ENDMDL
