MODEL 1
REMARK VINA RESULT:      -9.5      0.000      0.000
REMARK  Name = 
REMARK  6 active torsions:
REMARK  status: ('A' for Active; 'I' for Inactive)
REMARK    1  A    between atoms: C_2  and  C_3
REMARK    2  A    between atoms: C_6  and  N_7
REMARK    3  A    between atoms: N_7  and  S_8
REMARK    4  A    between atoms: S_8  and  C_11
REMARK    5  A    between atoms: C_25  and  O_26
REMARK    6  A    between atoms: C_25  and  C_27
REMARK                            x       y       z     vdW  Elec       q    Type
REMARK                         _______ _______ _______ _____ _____    ______ ____
ROOT
ATOM      1  C   UNL     1       2.600   6.438  18.549  0.00  0.00    +0.000 A 
ATOM      2  C   UNL     1       2.354   6.736  19.898  0.00  0.00    +0.000 A 
ATOM      3  C   UNL     1       1.867   7.999  20.267  0.00  0.00    +0.000 A 
ATOM      4  C   UNL     1       1.643   8.966  19.288  0.00  0.00    +0.000 A 
ATOM      5  C   UNL     1       1.868   8.676  17.949  0.00  0.00    +0.000 A 
ATOM      6  C   UNL     1       2.320   7.411  17.582  0.00  0.00    +0.000 A 
ENDROOT
BRANCH   1   8
ATOM      7  O   UNL     1       2.618   4.096  18.777  0.00  0.00    +0.000 OA
ATOM      8  C   UNL     1       3.079   5.070  18.183  0.00  0.00    +0.000 C 
ATOM      9  N   UNL     1       4.009   4.940  17.183  0.00  0.00    +0.000 N 
ATOM     10  C   UNL     1       4.646   3.736  16.677  0.00  0.00    +0.000 C 
ATOM     11  C   UNL     1       5.833   4.641  16.191  0.00  0.00    +0.000 C 
ATOM     12  C   UNL     1       4.885   5.848  16.468  0.00  0.00    +0.000 C 
BRANCH  11  13
ATOM     13  C   UNL     1       6.294   4.484  14.656  0.00  0.00    +0.000 A 
ATOM     14  C   UNL     1       7.397   5.203  14.142  0.00  0.00    +0.000 A 
ATOM     15  C   UNL     1       7.804   5.089  12.812  0.00  0.00    +0.000 A 
ATOM     16  C   UNL     1       7.132   4.227  11.952  0.00  0.00    +0.000 A 
ATOM     17  C   UNL     1       6.055   3.488  12.423  0.00  0.00    +0.000 A 
ATOM     18  C   UNL     1       5.648   3.615  13.756  0.00  0.00    +0.000 A 
ENDBRANCH  11  13
BRANCH  11  19
ATOM     19  O   UNL     1       7.003   4.621  17.062  0.00  0.00    +0.000 OA
ATOM     20  H   UNL     1       7.671   4.124  16.561  0.00  0.00    +0.000 HD
ENDBRANCH  11  19
ENDBRANCH   1   8
BRANCH   4  21
ATOM     21  N   UNL     1       1.079  10.223  19.584  0.00  0.00    +0.000 N 
ATOM     22  H   UNL     1       0.989  10.919  18.846  0.00  0.00    +0.000 HD
BRANCH  21  23
ATOM     23  S   UNL     1      -0.041  10.389  20.812  0.00  0.00    +0.000 S 
ATOM     24  O   UNL     1      -0.593   9.072  21.061  0.00  0.00    +0.000 OA
ATOM     25  O   UNL     1       0.599  11.102  21.897  0.00  0.00    +0.000 OA
BRANCH  23  26
ATOM     26  C   UNL     1      -1.341  11.427  20.182  0.00  0.00    +0.000 A 
ATOM     27  C   UNL     1      -1.915  12.344  21.086  0.00  0.00    +0.000 A 
ATOM     28  C   UNL     1      -3.111  12.975  20.774  0.00  0.00    +0.000 A 
ATOM     29  C   UNL     1      -3.769  12.630  19.602  0.00  0.00    +0.000 A 
ATOM     30  C   UNL     1      -3.210  11.690  18.723  0.00  0.00    +0.000 A 
ATOM     31  C   UNL     1      -3.962  11.230  17.637  0.00  0.00    +0.000 A 
ATOM     32  C   UNL     1      -3.415  10.309  16.758  0.00  0.00    +0.000 A 
ATOM     33  C   UNL     1      -2.094   9.961  16.941  0.00  0.00    +0.000 A 
ATOM     34  N   UNL     1      -1.354  10.348  18.005  0.00  0.00    +0.000 NA
ATOM     35  C   UNL     1      -1.924  11.137  18.947  0.00  0.00    +0.000 A 
ENDBRANCH  23  26
ENDBRANCH  21  23
ENDBRANCH   4  21
TORSDOF 6
ENDMDL
MODEL 2
REMARK VINA RESULT:      -9.4      1.077      1.240
REMARK  Name = 
REMARK  6 active torsions:
REMARK  status: ('A' for Active; 'I' for Inactive)
REMARK    1  A    between atoms: C_2  and  C_3
REMARK    2  A    between atoms: C_6  and  N_7
REMARK    3  A    between atoms: N_7  and  S_8
REMARK    4  A    between atoms: S_8  and  C_11
REMARK    5  A    between atoms: C_25  and  O_26
REMARK    6  A    between atoms: C_25  and  C_27
REMARK                            x       y       z     vdW  Elec       q    Type
REMARK                         _______ _______ _______ _____ _____    ______ ____
ROOT
ATOM      1  C   UNL     1       3.238   6.791  18.859  0.00  0.00    +0.000 A 
ATOM      2  C   UNL     1       2.432   6.864  20.005  0.00  0.00    +0.000 A 
ATOM      3  C   UNL     1       1.489   7.893  20.144  0.00  0.00    +0.000 A 
ATOM      4  C   UNL     1       1.364   8.856  19.143  0.00  0.00    +0.000 A 
ATOM      5  C   UNL     1       2.145   8.783  17.998  0.00  0.00    +0.000 A 
ATOM      6  C   UNL     1       3.058   7.743  17.847  0.00  0.00    +0.000 A 
ENDROOT
BRANCH   1   8
ATOM      7  O   UNL     1       4.388   4.910  19.680  0.00  0.00    +0.000 OA
ATOM      8  C   UNL     1       4.205   5.660  18.721  0.00  0.00    +0.000 C 
ATOM      9  N   UNL     1       4.848   5.481  17.524  0.00  0.00    +0.000 N 
ATOM     10  C   UNL     1       5.845   4.488  17.160  0.00  0.00    +0.000 C 
ATOM     11  C   UNL     1       6.341   5.480  16.049  0.00  0.00    +0.000 C 
ATOM     12  C   UNL     1       5.026   6.274  16.323  0.00  0.00    +0.000 C 
BRANCH  11  13
ATOM     13  C   UNL     1       6.479   4.899  14.554  0.00  0.00    +0.000 A 
ATOM     14  C   UNL     1       7.533   5.298  13.704  0.00  0.00    +0.000 A 
ATOM     15  C   UNL     1       7.663   4.813  12.400  0.00  0.00    +0.000 A 
ATOM     16  C   UNL     1       6.747   3.887  11.911  0.00  0.00    +0.000 A 
ATOM     17  C   UNL     1       5.707   3.455  12.722  0.00  0.00    +0.000 A 
ATOM     18  C   UNL     1       5.580   3.953  14.024  0.00  0.00    +0.000 A 
ENDBRANCH  11  13
BRANCH  11  19
ATOM     19  O   UNL     1       7.543   6.228  16.400  0.00  0.00    +0.000 OA
ATOM     20  H   UNL     1       8.263   5.756  15.948  0.00  0.00    +0.000 HD
ENDBRANCH  11  19
ENDBRANCH   1   8
BRANCH   4  21
ATOM     21  N   UNL     1       0.382   9.865  19.185  0.00  0.00    +0.000 N 
ATOM     22  H   UNL     1      -0.603   9.609  19.157  0.00  0.00    +0.000 HD
BRANCH  21  23
ATOM     23  S   UNL     1       0.682  11.318  19.953  0.00  0.00    +0.000 S 
ATOM     24  O   UNL     1       1.192  11.000  21.272  0.00  0.00    +0.000 OA
ATOM     25  O   UNL     1       1.485  12.129  19.063  0.00  0.00    +0.000 OA
BRANCH  23  26
ATOM     26  C   UNL     1      -0.889  12.130  20.145  0.00  0.00    +0.000 A 
ATOM     27  C   UNL     1      -1.182  12.653  21.421  0.00  0.00    +0.000 A 
ATOM     28  C   UNL     1      -2.478  13.033  21.738  0.00  0.00    +0.000 A 
ATOM     29  C   UNL     1      -3.489  12.815  20.814  0.00  0.00    +0.000 A 
ATOM     30  C   UNL     1      -3.198  12.261  19.558  0.00  0.00    +0.000 A 
ATOM     31  C   UNL     1      -4.245  11.892  18.708  0.00  0.00    +0.000 A 
ATOM     32  C   UNL     1      -3.968  11.352  17.463  0.00  0.00    +0.000 A 
ATOM     33  C   UNL     1      -2.647  11.299  17.072  0.00  0.00    +0.000 A 
ATOM     34  N   UNL     1      -1.608  11.601  17.885  0.00  0.00    +0.000 NA
ATOM     35  C   UNL     1      -1.866  11.996  19.155  0.00  0.00    +0.000 A 
ENDBRANCH  23  26
ENDBRANCH  21  23
ENDBRANCH   4  21
TORSDOF 6
ENDMDL
MODEL 3
REMARK VINA RESULT:      -9.1      2.210      2.557
REMARK  Name = 
REMARK  6 active torsions:
REMARK  status: ('A' for Active; 'I' for Inactive)
REMARK    1  A    between atoms: C_2  and  C_3
REMARK    2  A    between atoms: C_6  and  N_7
REMARK    3  A    between atoms: N_7  and  S_8
REMARK    4  A    between atoms: S_8  and  C_11
REMARK    5  A    between atoms: C_25  and  O_26
REMARK    6  A    between atoms: C_25  and  C_27
REMARK                            x       y       z     vdW  Elec       q    Type
REMARK                         _______ _______ _______ _____ _____    ______ ____
ROOT
ATOM      1  C   UNL     1       2.586   5.771  18.942  0.00  0.00    +0.000 A 
ATOM      2  C   UNL     1       2.060   5.812  20.242  0.00  0.00    +0.000 A 
ATOM      3  C   UNL     1       1.561   7.013  20.768  0.00  0.00    +0.000 A 
ATOM      4  C   UNL     1       1.604   8.174  19.997  0.00  0.00    +0.000 A 
ATOM      5  C   UNL     1       2.106   8.142  18.704  0.00  0.00    +0.000 A 
ATOM      6  C   UNL     1       2.571   6.941  18.173  0.00  0.00    +0.000 A 
ENDROOT
BRANCH   1   8
ATOM      7  O   UNL     1       2.608   3.420  18.845  0.00  0.00    +0.000 OA
ATOM      8  C   UNL     1       3.072   4.468  18.395  0.00  0.00    +0.000 C 
ATOM      9  N   UNL     1       4.011   4.478  17.396  0.00  0.00    +0.000 N 
ATOM     10  C   UNL     1       4.655   3.356  16.734  0.00  0.00    +0.000 C 
ATOM     11  C   UNL     1       5.845   4.321  16.389  0.00  0.00    +0.000 C 
ATOM     12  C   UNL     1       4.891   5.477  16.821  0.00  0.00    +0.000 C 
BRANCH  11  13
ATOM     13  C   UNL     1       6.319   4.378  14.851  0.00  0.00    +0.000 A 
ATOM     14  C   UNL     1       5.659   3.633  13.849  0.00  0.00    +0.000 A 
ATOM     15  C   UNL     1       6.064   3.661  12.513  0.00  0.00    +0.000 A 
ATOM     16  C   UNL     1       7.134   4.462  12.129  0.00  0.00    +0.000 A 
ATOM     17  C   UNL     1       7.797   5.225  13.081  0.00  0.00    +0.000 A 
ATOM     18  C   UNL     1       7.391   5.184  14.419  0.00  0.00    +0.000 A 
ENDBRANCH  11  13
BRANCH  11  19
ATOM     19  O   UNL     1       7.006   4.183  17.259  0.00  0.00    +0.000 OA
ATOM     20  H   UNL     1       6.787   4.717  18.042  0.00  0.00    +0.000 HD
ENDBRANCH  11  19
ENDBRANCH   1   8
BRANCH   4  21
ATOM     21  N   UNL     1       1.046   9.392  20.436  0.00  0.00    +0.000 N 
ATOM     22  H   UNL     1       0.564   9.992  19.769  0.00  0.00    +0.000 HD
BRANCH  21  23
ATOM     23  S   UNL     1       0.524   9.573  22.013  0.00  0.00    +0.000 S 
ATOM     24  O   UNL     1      -0.514   8.585  22.230  0.00  0.00    +0.000 OA
ATOM     25  O   UNL     1       1.693   9.569  22.866  0.00  0.00    +0.000 OA
BRANCH  23  26
ATOM     26  C   UNL     1      -0.214  11.188  22.124  0.00  0.00    +0.000 A 
ATOM     27  C   UNL     1      -1.450  11.277  22.795  0.00  0.00    +0.000 A 
ATOM     28  C   UNL     1      -2.228  12.419  22.676  0.00  0.00    +0.000 A 
ATOM     29  C   UNL     1      -1.810  13.434  21.828  0.00  0.00    +0.000 A 
ATOM     30  C   UNL     1      -0.595  13.325  21.134  0.00  0.00    +0.000 A 
ATOM     31  C   UNL     1      -0.272  14.274  20.159  0.00  0.00    +0.000 A 
ATOM     32  C   UNL     1       0.930  14.180  19.475  0.00  0.00    +0.000 A 
ATOM     33  C   UNL     1       1.813  13.198  19.870  0.00  0.00    +0.000 A 
ATOM     34  N   UNL     1       1.514  12.236  20.774  0.00  0.00    +0.000 NA
ATOM     35  C   UNL     1       0.286  12.236  21.346  0.00  0.00    +0.000 A 
ENDBRANCH  23  26
ENDBRANCH  21  23
ENDBRANCH   4  21
TORSDOF 6
ENDMDL
MODEL 4
REMARK VINA RESULT:      -8.9      2.188     10.146
REMARK  Name = 
REMARK  6 active torsions:
REMARK  status: ('A' for Active; 'I' for Inactive)
REMARK    1  A    between atoms: C_2  and  C_3
REMARK    2  A    between atoms: C_6  and  N_7
REMARK    3  A    between atoms: N_7  and  S_8
REMARK    4  A    between atoms: S_8  and  C_11
REMARK    5  A    between atoms: C_25  and  O_26
REMARK    6  A    between atoms: C_25  and  C_27
REMARK                            x       y       z     vdW  Elec       q    Type
REMARK                         _______ _______ _______ _____ _____    ______ ____
ROOT
ATOM      1  C   UNL     1       1.780   9.142  18.874  0.00  0.00    +0.000 A 
ATOM      2  C   UNL     1       2.414   8.365  17.892  0.00  0.00    +0.000 A 
ATOM      3  C   UNL     1       2.784   7.040  18.167  0.00  0.00    +0.000 A 
ATOM      4  C   UNL     1       2.534   6.500  19.427  0.00  0.00    +0.000 A 
ATOM      5  C   UNL     1       1.893   7.254  20.400  0.00  0.00    +0.000 A 
ATOM      6  C   UNL     1       1.497   8.558  20.115  0.00  0.00    +0.000 A 
ENDROOT
BRANCH   1   8
ATOM      7  O   UNL     1       2.216  11.353  18.198  0.00  0.00    +0.000 OA
ATOM      8  C   UNL     1       1.360  10.537  18.539  0.00  0.00    +0.000 C 
ATOM      9  N   UNL     1       0.030  10.862  18.606  0.00  0.00    +0.000 N 
ATOM     10  C   UNL     1      -0.612  12.142  18.364  0.00  0.00    +0.000 C 
ATOM     11  C   UNL     1      -1.791  11.657  19.280  0.00  0.00    +0.000 C 
ATOM     12  C   UNL     1      -1.155  10.237  19.161  0.00  0.00    +0.000 C 
BRANCH  11  13
ATOM     13  C   UNL     1      -3.282  11.779  18.683  0.00  0.00    +0.000 A 
ATOM     14  C   UNL     1      -3.580  11.379  17.362  0.00  0.00    +0.000 A 
ATOM     15  C   UNL     1      -4.865  11.488  16.824  0.00  0.00    +0.000 A 
ATOM     16  C   UNL     1      -5.904  11.982  17.605  0.00  0.00    +0.000 A 
ATOM     17  C   UNL     1      -5.656  12.368  18.915  0.00  0.00    +0.000 A 
ATOM     18  C   UNL     1      -4.364  12.263  19.443  0.00  0.00    +0.000 A 
ENDBRANCH  11  13
BRANCH  11  19
ATOM     19  O   UNL     1      -1.758  12.185  20.638  0.00  0.00    +0.000 OA
ATOM     20  H   UNL     1      -2.566  12.722  20.710  0.00  0.00    +0.000 HD
ENDBRANCH  11  19
ENDBRANCH   1   8
BRANCH   4  21
ATOM     21  N   UNL     1       2.807   5.153  19.738  0.00  0.00    +0.000 N 
ATOM     22  H   UNL     1       2.294   4.698  20.490  0.00  0.00    +0.000 HD
BRANCH  21  23
ATOM     23  S   UNL     1       3.367   4.102  18.566  0.00  0.00    +0.000 S 
ATOM     24  O   UNL     1       3.249   2.764  19.109  0.00  0.00    +0.000 OA
ATOM     25  O   UNL     1       2.691   4.424  17.328  0.00  0.00    +0.000 OA
BRANCH  23  26
ATOM     26  C   UNL     1       5.095   4.461  18.340  0.00  0.00    +0.000 A 
ATOM     27  C   UNL     1       5.761   5.078  19.418  0.00  0.00    +0.000 A 
ATOM     28  C   UNL     1       7.009   5.654  19.229  0.00  0.00    +0.000 A 
ATOM     29  C   UNL     1       7.552   5.682  17.952  0.00  0.00    +0.000 A 
ATOM     30  C   UNL     1       6.868   5.096  16.876  0.00  0.00    +0.000 A 
ATOM     31  C   UNL     1       7.345   5.280  15.574  0.00  0.00    +0.000 A 
ATOM     32  C   UNL     1       6.682   4.698  14.506  0.00  0.00    +0.000 A 
ATOM     33  C   UNL     1       5.623   3.863  14.792  0.00  0.00    +0.000 A 
ATOM     34  N   UNL     1       5.106   3.701  16.032  0.00  0.00    +0.000 NA
ATOM     35  C   UNL     1       5.661   4.378  17.066  0.00  0.00    +0.000 A 
ENDBRANCH  23  26
ENDBRANCH  21  23
ENDBRANCH   4  21
TORSDOF 6
ENDMDL
MODEL 5
REMARK VINA RESULT:      -8.9      2.746     10.132
REMARK  Name = 
REMARK  6 active torsions:
REMARK  status: ('A' for Active; 'I' for Inactive)
REMARK    1  A    between atoms: C_2  and  C_3
REMARK    2  A    between atoms: C_6  and  N_7
REMARK    3  A    between atoms: N_7  and  S_8
REMARK    4  A    between atoms: S_8  and  C_11
REMARK    5  A    between atoms: C_25  and  O_26
REMARK    6  A    between atoms: C_25  and  C_27
REMARK                            x       y       z     vdW  Elec       q    Type
REMARK                         _______ _______ _______ _____ _____    ______ ____
ROOT
ATOM      1  C   UNL     1       1.936   7.391  18.709  0.00  0.00    +0.000 A 
ATOM      2  C   UNL     1       2.340   7.033  20.005  0.00  0.00    +0.000 A 
ATOM      3  C   UNL     1       2.573   5.688  20.327  0.00  0.00    +0.000 A 
ATOM      4  C   UNL     1       2.387   4.702  19.359  0.00  0.00    +0.000 A 
ATOM      5  C   UNL     1       2.003   5.047  18.071  0.00  0.00    +0.000 A 
ATOM      6  C   UNL     1       1.803   6.386  17.743  0.00  0.00    +0.000 A 
ENDROOT
BRANCH   1   8
ATOM      7  O   UNL     1       2.254   9.299  17.369  0.00  0.00    +0.000 OA
ATOM      8  C   UNL     1       1.734   8.836  18.384  0.00  0.00    +0.000 C 
ATOM      9  N   UNL     1       0.961   9.600  19.220  0.00  0.00    +0.000 N 
ATOM     10  C   UNL     1       0.650  11.017  19.137  0.00  0.00    +0.000 C 
ATOM     11  C   UNL     1       0.393  10.991  20.685  0.00  0.00    +0.000 C 
ATOM     12  C   UNL     1       0.414   9.437  20.553  0.00  0.00    +0.000 C 
BRANCH  11  13
ATOM     13  C   UNL     1      -1.001  11.604  21.208  0.00  0.00    +0.000 A 
ATOM     14  C   UNL     1      -1.351  11.572  22.576  0.00  0.00    +0.000 A 
ATOM     15  C   UNL     1      -2.561  12.089  23.046  0.00  0.00    +0.000 A 
ATOM     16  C   UNL     1      -3.454  12.680  22.159  0.00  0.00    +0.000 A 
ATOM     17  C   UNL     1      -3.138  12.747  20.809  0.00  0.00    +0.000 A 
ATOM     18  C   UNL     1      -1.928  12.220  20.345  0.00  0.00    +0.000 A 
ENDBRANCH  11  13
BRANCH  11  19
ATOM     19  O   UNL     1       1.493  11.510  21.489  0.00  0.00    +0.000 OA
ATOM     20  H   UNL     1       1.529  10.920  22.261  0.00  0.00    +0.000 HD
ENDBRANCH  11  19
ENDBRANCH   1   8
BRANCH   4  21
ATOM     21  N   UNL     1       2.682   3.345  19.597  0.00  0.00    +0.000 N 
ATOM     22  H   UNL     1       1.925   2.692  19.786  0.00  0.00    +0.000 HD
BRANCH  21  23
ATOM     23  S   UNL     1       4.037   2.635  18.924  0.00  0.00    +0.000 S 
ATOM     24  O   UNL     1       4.985   2.430  20.001  0.00  0.00    +0.000 OA
ATOM     25  O   UNL     1       3.596   1.498  18.145  0.00  0.00    +0.000 OA
BRANCH  23  26
ATOM     26  C   UNL     1       4.728   3.822  17.793  0.00  0.00    +0.000 A 
ATOM     27  C   UNL     1       4.418   3.653  16.428  0.00  0.00    +0.000 A 
ATOM     28  C   UNL     1       5.138   4.338  15.459  0.00  0.00    +0.000 A 
ATOM     29  C   UNL     1       6.211   5.126  15.849  0.00  0.00    +0.000 A 
ATOM     30  C   UNL     1       6.536   5.264  17.207  0.00  0.00    +0.000 A 
ATOM     31  C   UNL     1       7.717   5.920  17.570  0.00  0.00    +0.000 A 
ATOM     32  C   UNL     1       8.042   6.068  18.908  0.00  0.00    +0.000 A 
ATOM     33  C   UNL     1       7.118   5.645  19.839  0.00  0.00    +0.000 A 
ATOM     34  N   UNL     1       5.991   4.964  19.526  0.00  0.00    +0.000 NA
ATOM     35  C   UNL     1       5.734   4.690  18.225  0.00  0.00    +0.000 A 
ENDBRANCH  23  26
ENDBRANCH  21  23
ENDBRANCH   4  21
TORSDOF 6
ENDMDL
MODEL 6
REMARK VINA RESULT:      -8.9      2.181     10.142
REMARK  Name = 
REMARK  6 active torsions:
REMARK  status: ('A' for Active; 'I' for Inactive)
REMARK    1  A    between atoms: C_2  and  C_3
REMARK    2  A    between atoms: C_6  and  N_7
REMARK    3  A    between atoms: N_7  and  S_8
REMARK    4  A    between atoms: S_8  and  C_11
REMARK    5  A    between atoms: C_25  and  O_26
REMARK    6  A    between atoms: C_25  and  C_27
REMARK                            x       y       z     vdW  Elec       q    Type
REMARK                         _______ _______ _______ _____ _____    ______ ____
ROOT
ATOM      1  C   UNL     1       1.657   9.098  18.913  0.00  0.00    +0.000 A 
ATOM      2  C   UNL     1       1.393   8.586  20.192  0.00  0.00    +0.000 A 
ATOM      3  C   UNL     1       1.789   7.283  20.529  0.00  0.00    +0.000 A 
ATOM      4  C   UNL     1       2.435   6.491  19.581  0.00  0.00    +0.000 A 
ATOM      5  C   UNL     1       2.716   6.994  18.319  0.00  0.00    +0.000 A 
ATOM      6  C   UNL     1       2.351   8.298  17.997  0.00  0.00    +0.000 A 
ENDROOT
BRANCH   1   8
ATOM      7  O   UNL     1       2.130  11.317  18.285  0.00  0.00    +0.000 OA
ATOM      8  C   UNL     1       1.259  10.505  18.597  0.00  0.00    +0.000 C 
ATOM      9  N   UNL     1      -0.068  10.844  18.649  0.00  0.00    +0.000 N 
ATOM     10  C   UNL     1      -0.692  12.136  18.421  0.00  0.00    +0.000 C 
ATOM     11  C   UNL     1      -1.891  11.647  19.308  0.00  0.00    +0.000 C 
ATOM     12  C   UNL     1      -1.270  10.223  19.173  0.00  0.00    +0.000 C 
BRANCH  11  13
ATOM     13  C   UNL     1      -3.371  11.798  18.690  0.00  0.00    +0.000 A 
ATOM     14  C   UNL     1      -4.440  12.308  19.459  0.00  0.00    +0.000 A 
ATOM     15  C   UNL     1      -5.732  12.436  18.944  0.00  0.00    +0.000 A 
ATOM     16  C   UNL     1      -5.991  12.078  17.625  0.00  0.00    +0.000 A 
ATOM     17  C   UNL     1      -4.962  11.591  16.831  0.00  0.00    +0.000 A 
ATOM     18  C   UNL     1      -3.672  11.458  17.357  0.00  0.00    +0.000 A 
ENDBRANCH  11  13
BRANCH  11  19
ATOM     19  O   UNL     1      -1.874  12.150  20.677  0.00  0.00    +0.000 OA
ATOM     20  H   UNL     1      -2.612  11.692  21.113  0.00  0.00    +0.000 HD
ENDBRANCH  11  19
ENDBRANCH   1   8
BRANCH   4  21
ATOM     21  N   UNL     1       2.930   5.206  19.882  0.00  0.00    +0.000 N 
ATOM     22  H   UNL     1       2.611   4.730  20.724  0.00  0.00    +0.000 HD
BRANCH  21  23
ATOM     23  S   UNL     1       3.422   4.173  18.665  0.00  0.00    +0.000 S 
ATOM     24  O   UNL     1       3.307   2.825  19.183  0.00  0.00    +0.000 OA
ATOM     25  O   UNL     1       2.698   4.532  17.464  0.00  0.00    +0.000 OA
BRANCH  23  26
ATOM     26  C   UNL     1       5.144   4.512  18.372  0.00  0.00    +0.000 A 
ATOM     27  C   UNL     1       5.852   5.148  19.411  0.00  0.00    +0.000 A 
ATOM     28  C   UNL     1       7.097   5.709  19.166  0.00  0.00    +0.000 A 
ATOM     29  C   UNL     1       7.596   5.703  17.872  0.00  0.00    +0.000 A 
ATOM     30  C   UNL     1       6.871   5.098  16.833  0.00  0.00    +0.000 A 
ATOM     31  C   UNL     1       7.304   5.249  15.512  0.00  0.00    +0.000 A 
ATOM     32  C   UNL     1       6.600   4.648  14.481  0.00  0.00    +0.000 A 
ATOM     33  C   UNL     1       5.546   3.829  14.822  0.00  0.00    +0.000 A 
ATOM     34  N   UNL     1       5.070   3.700  16.083  0.00  0.00    +0.000 NA
ATOM     35  C   UNL     1       5.665   4.396  17.081  0.00  0.00    +0.000 A 
ENDBRANCH  23  26
ENDBRANCH  21  23
ENDBRANCH   4  21
TORSDOF 6
ENDMDL
MODEL 7
REMARK VINA RESULT:      -8.9      1.160      1.827
REMARK  Name = 
REMARK  6 active torsions:
REMARK  status: ('A' for Active; 'I' for Inactive)
REMARK    1  A    between atoms: C_2  and  C_3
REMARK    2  A    between atoms: C_6  and  N_7
REMARK    3  A    between atoms: N_7  and  S_8
REMARK    4  A    between atoms: S_8  and  C_11
REMARK    5  A    between atoms: C_25  and  O_26
REMARK    6  A    between atoms: C_25  and  C_27
REMARK                            x       y       z     vdW  Elec       q    Type
REMARK                         _______ _______ _______ _____ _____    ______ ____
ROOT
ATOM      1  C   UNL     1       3.098   6.870  18.766  0.00  0.00    +0.000 A 
ATOM      2  C   UNL     1       2.989   7.778  17.702  0.00  0.00    +0.000 A 
ATOM      3  C   UNL     1       2.080   8.844  17.772  0.00  0.00    +0.000 A 
ATOM      4  C   UNL     1       1.272   8.990  18.898  0.00  0.00    +0.000 A 
ATOM      5  C   UNL     1       1.384   8.107  19.962  0.00  0.00    +0.000 A 
ATOM      6  C   UNL     1       2.309   7.068  19.905  0.00  0.00    +0.000 A 
ENDROOT
BRANCH   1   8
ATOM      7  O   UNL     1       4.295   5.053  19.663  0.00  0.00    +0.000 OA
ATOM      8  C   UNL     1       4.105   5.768  18.679  0.00  0.00    +0.000 C 
ATOM      9  N   UNL     1       4.776   5.576  17.499  0.00  0.00    +0.000 N 
ATOM     10  C   UNL     1       5.812   4.607  17.183  0.00  0.00    +0.000 C 
ATOM     11  C   UNL     1       6.296   5.582  16.052  0.00  0.00    +0.000 C 
ATOM     12  C   UNL     1       4.950   6.338  16.278  0.00  0.00    +0.000 C 
BRANCH  11  13
ATOM     13  C   UNL     1       6.480   4.961  14.577  0.00  0.00    +0.000 A 
ATOM     14  C   UNL     1       5.558   4.029  14.051  0.00  0.00    +0.000 A 
ATOM     15  C   UNL     1       5.708   3.472  12.779  0.00  0.00    +0.000 A 
ATOM     16  C   UNL     1       6.779   3.852  11.978  0.00  0.00    +0.000 A 
ATOM     17  C   UNL     1       7.697   4.780  12.451  0.00  0.00    +0.000 A 
ATOM     18  C   UNL     1       7.544   5.327  13.730  0.00  0.00    +0.000 A 
ENDBRANCH  11  13
BRANCH  11  19
ATOM     19  O   UNL     1       7.465   6.380  16.402  0.00  0.00    +0.000 OA
ATOM     20  H   UNL     1       7.896   6.564  15.550  0.00  0.00    +0.000 HD
ENDBRANCH  11  19
ENDBRANCH   1   8
BRANCH   4  21
ATOM     21  N   UNL     1       0.399  10.084  19.064  0.00  0.00    +0.000 N 
ATOM     22  H   UNL     1      -0.607   9.935  19.020  0.00  0.00    +0.000 HD
BRANCH  21  23
ATOM     23  S   UNL     1       0.849  11.404  19.984  0.00  0.00    +0.000 S 
ATOM     24  O   UNL     1       1.380  10.888  21.230  0.00  0.00    +0.000 OA
ATOM     25  O   UNL     1       1.682  12.252  19.159  0.00  0.00    +0.000 OA
BRANCH  23  26
ATOM     26  C   UNL     1      -0.641  12.307  20.346  0.00  0.00    +0.000 A 
ATOM     27  C   UNL     1      -0.739  12.883  21.628  0.00  0.00    +0.000 A 
ATOM     28  C   UNL     1      -1.962  13.343  22.095  0.00  0.00    +0.000 A 
ATOM     29  C   UNL     1      -3.094  13.155  21.315  0.00  0.00    +0.000 A 
ATOM     30  C   UNL     1      -2.996  12.550  20.053  0.00  0.00    +0.000 A 
ATOM     31  C   UNL     1      -4.162  12.216  19.357  0.00  0.00    +0.000 A 
ATOM     32  C   UNL     1      -4.076  11.626  18.106  0.00  0.00    +0.000 A 
ATOM     33  C   UNL     1      -2.821  11.488  17.552  0.00  0.00    +0.000 A 
ATOM     34  N   UNL     1      -1.672  11.754  18.216  0.00  0.00    +0.000 NA
ATOM     35  C   UNL     1      -1.743  12.199  19.493  0.00  0.00    +0.000 A 
ENDBRANCH  23  26
ENDBRANCH  21  23
ENDBRANCH   4  21
TORSDOF 6
ENDMDL
MODEL 8
REMARK VINA RESULT:      -8.9      2.106      2.470
REMARK  Name = 
REMARK  6 active torsions:
REMARK  status: ('A' for Active; 'I' for Inactive)
REMARK    1  A    between atoms: C_2  and  C_3
REMARK    2  A    between atoms: C_6  and  N_7
REMARK    3  A    between atoms: N_7  and  S_8
REMARK    4  A    between atoms: S_8  and  C_11
REMARK    5  A    between atoms: C_25  and  O_26
REMARK    6  A    between atoms: C_25  and  C_27
REMARK                            x       y       z     vdW  Elec       q    Type
REMARK                         _______ _______ _______ _____ _____    ______ ____
ROOT
ATOM      1  C   UNL     1       2.612   6.121  18.637  0.00  0.00    +0.000 A 
ATOM      2  C   UNL     1       2.230   6.266  19.980  0.00  0.00    +0.000 A 
ATOM      3  C   UNL     1       1.792   7.509  20.461  0.00  0.00    +0.000 A 
ATOM      4  C   UNL     1       1.751   8.607  19.602  0.00  0.00    +0.000 A 
ATOM      5  C   UNL     1       2.110   8.469  18.269  0.00  0.00    +0.000 A 
ATOM      6  C   UNL     1       2.514   7.227  17.786  0.00  0.00    +0.000 A 
ENDROOT
BRANCH   1   8
ATOM      7  O   UNL     1       2.508   3.770  18.622  0.00  0.00    +0.000 OA
ATOM      8  C   UNL     1       3.035   4.774  18.144  0.00  0.00    +0.000 C 
ATOM      9  N   UNL     1       3.989   4.699  17.162  0.00  0.00    +0.000 N 
ATOM     10  C   UNL     1       4.582   3.522  16.551  0.00  0.00    +0.000 C 
ATOM     11  C   UNL     1       5.827   4.408  16.193  0.00  0.00    +0.000 C 
ATOM     12  C   UNL     1       4.930   5.628  16.568  0.00  0.00    +0.000 C 
BRANCH  11  13
ATOM     13  C   UNL     1       6.328   4.386  14.663  0.00  0.00    +0.000 A 
ATOM     14  C   UNL     1       5.695   3.577  13.693  0.00  0.00    +0.000 A 
ATOM     15  C   UNL     1       6.122   3.537  12.364  0.00  0.00    +0.000 A 
ATOM     16  C   UNL     1       7.190   4.328  11.955  0.00  0.00    +0.000 A 
ATOM     17  C   UNL     1       7.827   5.151  12.873  0.00  0.00    +0.000 A 
ATOM     18  C   UNL     1       7.398   5.180  14.205  0.00  0.00    +0.000 A 
ENDBRANCH  11  13
BRANCH  11  19
ATOM     19  O   UNL     1       6.966   4.240  17.088  0.00  0.00    +0.000 OA
ATOM     20  H   UNL     1       6.574   3.937  17.925  0.00  0.00    +0.000 HD
ENDBRANCH  11  19
ENDBRANCH   1   8
BRANCH   4  21
ATOM     21  N   UNL     1       1.245   9.859  20.003  0.00  0.00    +0.000 N 
ATOM     22  H   UNL     1       1.611  10.708  19.576  0.00  0.00    +0.000 HD
BRANCH  21  23
ATOM     23  S   UNL     1      -0.320  10.006  20.569  0.00  0.00    +0.000 S 
ATOM     24  O   UNL     1      -1.189  10.028  19.409  0.00  0.00    +0.000 OA
ATOM     25  O   UNL     1      -0.519   8.990  21.581  0.00  0.00    +0.000 OA
BRANCH  23  26
ATOM     26  C   UNL     1      -0.426  11.589  21.374  0.00  0.00    +0.000 A 
ATOM     27  C   UNL     1      -1.020  11.614  22.652  0.00  0.00    +0.000 A 
ATOM     28  C   UNL     1      -1.407  12.820  23.218  0.00  0.00    +0.000 A 
ATOM     29  C   UNL     1      -1.274  13.985  22.477  0.00  0.00    +0.000 A 
ATOM     30  C   UNL     1      -0.714  13.951  21.191  0.00  0.00    +0.000 A 
ATOM     31  C   UNL     1      -0.743  15.101  20.396  0.00  0.00    +0.000 A 
ATOM     32  C   UNL     1      -0.185  15.079  19.128  0.00  0.00    +0.000 A 
ATOM     33  C   UNL     1       0.478  13.933  18.744  0.00  0.00    +0.000 A 
ATOM     34  N   UNL     1       0.484  12.789  19.466  0.00  0.00    +0.000 NA
ATOM     35  C   UNL     1      -0.181  12.757  20.646  0.00  0.00    +0.000 A 
ENDBRANCH  23  26
ENDBRANCH  21  23
ENDBRANCH   4  21
TORSDOF 6
ENDMDL
MODEL 9
REMARK VINA RESULT:      -8.8      2.303     10.243
REMARK  Name = 
REMARK  6 active torsions:
REMARK  status: ('A' for Active; 'I' for Inactive)
REMARK    1  A    between atoms: C_2  and  C_3
REMARK    2  A    between atoms: C_6  and  N_7
REMARK    3  A    between atoms: N_7  and  S_8
REMARK    4  A    between atoms: S_8  and  C_11
REMARK    5  A    between atoms: C_25  and  O_26
REMARK    6  A    between atoms: C_25  and  C_27
REMARK                            x       y       z     vdW  Elec       q    Type
REMARK                         _______ _______ _______ _____ _____    ______ ____
ROOT
ATOM      1  C   UNL     1       1.734   9.176  18.794  0.00  0.00    +0.000 A 
ATOM      2  C   UNL     1       2.236   8.389  17.746  0.00  0.00    +0.000 A 
ATOM      3  C   UNL     1       2.612   7.058  17.978  0.00  0.00    +0.000 A 
ATOM      4  C   UNL     1       2.500   6.521  19.259  0.00  0.00    +0.000 A 
ATOM      5  C   UNL     1       1.989   7.285  20.299  0.00  0.00    +0.000 A 
ATOM      6  C   UNL     1       1.586   8.596  20.060  0.00  0.00    +0.000 A 
ENDROOT
BRANCH   1   8
ATOM      7  O   UNL     1       2.153  11.415  18.203  0.00  0.00    +0.000 OA
ATOM      8  C   UNL     1       1.303  10.578  18.508  0.00  0.00    +0.000 C 
ATOM      9  N   UNL     1      -0.031  10.888  18.578  0.00  0.00    +0.000 N 
ATOM     10  C   UNL     1      -0.685  12.171  18.379  0.00  0.00    +0.000 C 
ATOM     11  C   UNL     1      -1.864  11.640  19.268  0.00  0.00    +0.000 C 
ATOM     12  C   UNL     1      -1.214  10.232  19.101  0.00  0.00    +0.000 C 
BRANCH  11  13
ATOM     13  C   UNL     1      -3.353  11.770  18.666  0.00  0.00    +0.000 A 
ATOM     14  C   UNL     1      -4.417  12.283  19.440  0.00  0.00    +0.000 A 
ATOM     15  C   UNL     1      -5.715  12.394  18.939  0.00  0.00    +0.000 A 
ATOM     16  C   UNL     1      -5.988  12.014  17.629  0.00  0.00    +0.000 A 
ATOM     17  C   UNL     1      -4.965  11.522  16.830  0.00  0.00    +0.000 A 
ATOM     18  C   UNL     1      -3.668  11.407  17.342  0.00  0.00    +0.000 A 
ENDBRANCH  11  13
BRANCH  11  19
ATOM     19  O   UNL     1      -1.845  12.118  20.645  0.00  0.00    +0.000 OA
ATOM     20  H   UNL     1      -2.106  11.345  21.174  0.00  0.00    +0.000 HD
ENDBRANCH  11  19
ENDBRANCH   1   8
BRANCH   4  21
ATOM     21  N   UNL     1       2.784   5.169  19.539  0.00  0.00    +0.000 N 
ATOM     22  H   UNL     1       2.507   4.773  20.435  0.00  0.00    +0.000 HD
BRANCH  21  23
ATOM     23  S   UNL     1       2.893   4.047  18.306  0.00  0.00    +0.000 S 
ATOM     24  O   UNL     1       3.200   2.772  18.923  0.00  0.00    +0.000 OA
ATOM     25  O   UNL     1       1.702   4.169  17.494  0.00  0.00    +0.000 OA
BRANCH  23  26
ATOM     26  C   UNL     1       4.279   4.526  17.299  0.00  0.00    +0.000 A 
ATOM     27  C   UNL     1       4.183   4.258  15.918  0.00  0.00    +0.000 A 
ATOM     28  C   UNL     1       5.313   4.324  15.115  0.00  0.00    +0.000 A 
ATOM     29  C   UNL     1       6.543   4.578  15.702  0.00  0.00    +0.000 A 
ATOM     30  C   UNL     1       6.638   4.810  17.083  0.00  0.00    +0.000 A 
ATOM     31  C   UNL     1       7.898   4.895  17.683  0.00  0.00    +0.000 A 
ATOM     32  C   UNL     1       8.002   5.133  19.044  0.00  0.00    +0.000 A 
ATOM     33  C   UNL     1       6.837   5.382  19.737  0.00  0.00    +0.000 A 
ATOM     34  N   UNL     1       5.601   5.260  19.201  0.00  0.00    +0.000 NA
ATOM     35  C   UNL     1       5.485   4.888  17.903  0.00  0.00    +0.000 A 
ENDBRANCH  23  26
ENDBRANCH  21  23
ENDBRANCH   4  21
TORSDOF 6
ENDMDL
