MODEL 1
REMARK VINA RESULT:      -7.8      0.000      0.000
REMARK  Name = 
REMARK  3 active torsions:
REMARK  status: ('A' for Active; 'I' for Inactive)
REMARK    1  A    between atoms: C_3  and  C_4
REMARK    2  A    between atoms: C_4  and  N_5
REMARK    3  A    between atoms: N_12  and  C_13
REMARK                            x       y       z     vdW  Elec       q    Type
REMARK                         _______ _______ _______ _____ _____    ______ ____
ROOT
ATOM      1  C   UNL     1       1.829   4.006  20.919  0.00  0.00    +0.000 A 
ATOM      2  N   UNL     1       2.982   3.652  20.307  0.00  0.00    +0.000 NA
ATOM      3  C   UNL     1       3.349   4.718  19.594  0.00  0.00    +0.000 A 
ATOM      4  N   UNL     1       2.456   5.773  19.940  0.00  0.00    +0.000 N 
ATOM      5  N   UNL     1       1.514   5.271  20.806  0.00  0.00    +0.000 NA
ENDROOT
BRANCH   4   6
ATOM      6  C   UNL     1       2.209   7.136  19.525  0.00  0.00    +0.000 A 
ATOM      7  C   UNL     1       2.433   7.637  18.239  0.00  0.00    +0.000 A 
ATOM      8  C   UNL     1       1.929   8.907  17.859  0.00  0.00    +0.000 A 
ATOM      9  C   UNL     1       1.239   9.659  18.781  0.00  0.00    +0.000 A 
ATOM     10  C   UNL     1       1.099   9.233  20.074  0.00  0.00    +0.000 A 
ATOM     11  C   UNL     1       1.581   8.007  20.476  0.00  0.00    +0.000 A 
ATOM     12  O   UNL     1       0.398  10.119  20.834  0.00  0.00    +0.000 OA
ATOM     13  C   UNL     1      -0.032  11.060  19.827  0.00  0.00    +0.000 C 
ATOM     14  O   UNL     1       0.643  10.859  18.564  0.00  0.00    +0.000 OA
ENDBRANCH   4   6
BRANCH   3  15
ATOM     15  C   UNL     1       4.602   4.627  18.714  0.00  0.00    +0.000 C 
BRANCH  15  16
ATOM     16  N   UNL     1       4.644   4.874  17.237  0.00  0.00    +0.000 NA
ATOM     17  C   UNL     1       4.965   3.713  16.412  0.00  0.00    +0.000 C 
ATOM     18  C   UNL     1       6.266   4.152  15.742  0.00  0.00    +0.000 C 
ATOM     19  C   UNL     1       7.314   4.618  16.794  0.00  0.00    +0.000 C 
ATOM     20  C   UNL     1       6.835   6.043  17.142  0.00  0.00    +0.000 C 
ATOM     21  C   UNL     1       5.411   6.000  16.615  0.00  0.00    +0.000 C 
ATOM     22  C   UNL     1       5.769   5.480  15.195  0.00  0.00    +0.000 C 
ENDBRANCH  15  16
ENDBRANCH   3  15
TORSDOF 3
ENDMDL
MODEL 2
REMARK VINA RESULT:      -7.8      0.606      1.266
REMARK  Name = 
REMARK  3 active torsions:
REMARK  status: ('A' for Active; 'I' for Inactive)
REMARK    1  A    between atoms: C_3  and  C_4
REMARK    2  A    between atoms: C_4  and  N_5
REMARK    3  A    between atoms: N_12  and  C_13
REMARK                            x       y       z     vdW  Elec       q    Type
REMARK                         _______ _______ _______ _____ _____    ______ ____
ROOT
ATOM      1  C   UNL     1       2.170   4.011  21.007  0.00  0.00    +0.000 A 
ATOM      2  N   UNL     1       2.842   3.495  19.953  0.00  0.00    +0.000 NA
ATOM      3  C   UNL     1       2.967   4.498  19.084  0.00  0.00    +0.000 A 
ATOM      4  N   UNL     1       2.488   5.671  19.736  0.00  0.00    +0.000 N 
ATOM      5  N   UNL     1       2.008   5.309  20.972  0.00  0.00    +0.000 NA
ENDROOT
BRANCH   4   6
ATOM      6  C   UNL     1       2.257   7.057  19.395  0.00  0.00    +0.000 A 
ATOM      7  C   UNL     1       2.484   7.624  18.137  0.00  0.00    +0.000 A 
ATOM      8  C   UNL     1       1.994   8.917  17.826  0.00  0.00    +0.000 A 
ATOM      9  C   UNL     1       1.315   9.627  18.789  0.00  0.00    +0.000 A 
ATOM     10  C   UNL     1       1.172   9.135  20.058  0.00  0.00    +0.000 A 
ATOM     11  C   UNL     1       1.640   7.883  20.392  0.00  0.00    +0.000 A 
ATOM     12  O   UNL     1       0.483   9.986  20.865  0.00  0.00    +0.000 OA
ATOM     13  C   UNL     1       0.062  10.985  19.911  0.00  0.00    +0.000 C 
ATOM     14  O   UNL     1       0.732  10.843  18.637  0.00  0.00    +0.000 OA
ENDBRANCH   4   6
BRANCH   3  15
ATOM     15  C   UNL     1       3.635   4.227  17.730  0.00  0.00    +0.000 C 
BRANCH  15  16
ATOM     16  N   UNL     1       5.107   4.052  17.508  0.00  0.00    +0.000 NA
ATOM     17  C   UNL     1       5.974   4.681  18.500  0.00  0.00    +0.000 C 
ATOM     18  C   UNL     1       6.748   5.686  17.650  0.00  0.00    +0.000 C 
ATOM     19  C   UNL     1       5.786   6.597  16.834  0.00  0.00    +0.000 C 
ATOM     20  C   UNL     1       5.377   5.687  15.656  0.00  0.00    +0.000 C 
ATOM     21  C   UNL     1       5.777   4.326  16.197  0.00  0.00    +0.000 C 
ATOM     22  C   UNL     1       7.230   4.716  16.585  0.00  0.00    +0.000 C 
ENDBRANCH  15  16
ENDBRANCH   3  15
TORSDOF 3
ENDMDL
MODEL 3
REMARK VINA RESULT:      -7.7      3.325      6.160
REMARK  Name = 
REMARK  3 active torsions:
REMARK  status: ('A' for Active; 'I' for Inactive)
REMARK    1  A    between atoms: C_3  and  C_4
REMARK    2  A    between atoms: C_4  and  N_5
REMARK    3  A    between atoms: N_12  and  C_13
REMARK                            x       y       z     vdW  Elec       q    Type
REMARK                         _______ _______ _______ _____ _____    ______ ____
ROOT
ATOM      1  C   UNL     1       2.052   8.694  17.970  0.00  0.00    +0.000 A 
ATOM      2  N   UNL     1       1.596   7.900  18.965  0.00  0.00    +0.000 NA
ATOM      3  C   UNL     1       2.458   6.884  19.033  0.00  0.00    +0.000 A 
ATOM      4  N   UNL     1       3.532   7.195  18.151  0.00  0.00    +0.000 N 
ATOM      5  N   UNL     1       3.234   8.373  17.510  0.00  0.00    +0.000 NA
ENDROOT
BRANCH   4   6
ATOM      6  C   UNL     1       4.735   6.549  17.672  0.00  0.00    +0.000 A 
ATOM      7  C   UNL     1       5.617   5.805  18.462  0.00  0.00    +0.000 A 
ATOM      8  C   UNL     1       6.623   5.004  17.865  0.00  0.00    +0.000 A 
ATOM      9  C   UNL     1       6.744   4.988  16.495  0.00  0.00    +0.000 A 
ATOM     10  C   UNL     1       5.960   5.788  15.709  0.00  0.00    +0.000 A 
ATOM     11  C   UNL     1       4.976   6.581  16.258  0.00  0.00    +0.000 A 
ATOM     12  O   UNL     1       6.238   5.639  14.385  0.00  0.00    +0.000 OA
ATOM     13  C   UNL     1       7.161   4.529  14.425  0.00  0.00    +0.000 C 
ATOM     14  O   UNL     1       7.607   4.234  15.768  0.00  0.00    +0.000 OA
ENDBRANCH   4   6
BRANCH   3  15
ATOM     15  C   UNL     1       2.191   5.750  20.031  0.00  0.00    +0.000 C 
BRANCH  15  16
ATOM     16  N   UNL     1       1.318   4.559  19.778  0.00  0.00    +0.000 NA
ATOM     17  C   UNL     1       1.355   3.520  20.802  0.00  0.00    +0.000 C 
ATOM     18  C   UNL     1       1.894   2.324  20.020  0.00  0.00    +0.000 C 
ATOM     19  C   UNL     1       3.220   2.680  19.287  0.00  0.00    +0.000 C 
ATOM     20  C   UNL     1       2.725   3.458  18.050  0.00  0.00    +0.000 C 
ATOM     21  C   UNL     1       1.312   3.808  18.482  0.00  0.00    +0.000 C 
ATOM     22  C   UNL     1       0.892   2.365  18.878  0.00  0.00    +0.000 C 
ENDBRANCH  15  16
ENDBRANCH   3  15
TORSDOF 3
ENDMDL
MODEL 4
REMARK VINA RESULT:      -7.7      4.570      7.114
REMARK  Name = 
REMARK  3 active torsions:
REMARK  status: ('A' for Active; 'I' for Inactive)
REMARK    1  A    between atoms: C_3  and  C_4
REMARK    2  A    between atoms: C_4  and  N_5
REMARK    3  A    between atoms: N_12  and  C_13
REMARK                            x       y       z     vdW  Elec       q    Type
REMARK                         _______ _______ _______ _____ _____    ______ ____
ROOT
ATOM      1  C   UNL     1       7.533   5.395  19.580  0.00  0.00    +0.000 A 
ATOM      2  N   UNL     1       6.230   5.368  19.941  0.00  0.00    +0.000 NA
ATOM      3  C   UNL     1       5.559   5.050  18.833  0.00  0.00    +0.000 A 
ATOM      4  N   UNL     1       6.531   4.728  17.842  0.00  0.00    +0.000 N 
ATOM      5  N   UNL     1       7.778   4.946  18.376  0.00  0.00    +0.000 NA
ENDROOT
BRANCH   4   6
ATOM      6  C   UNL     1       6.541   4.384  16.437  0.00  0.00    +0.000 A 
ATOM      7  C   UNL     1       5.587   3.586  15.798  0.00  0.00    +0.000 A 
ATOM      8  C   UNL     1       5.537   3.511  14.383  0.00  0.00    +0.000 A 
ATOM      9  C   UNL     1       6.459   4.211  13.640  0.00  0.00    +0.000 A 
ATOM     10  C   UNL     1       7.465   4.914  14.246  0.00  0.00    +0.000 A 
ATOM     11  C   UNL     1       7.544   5.003  15.618  0.00  0.00    +0.000 A 
ATOM     12  O   UNL     1       8.280   5.526  13.344  0.00  0.00    +0.000 OA
ATOM     13  C   UNL     1       7.567   5.269  12.115  0.00  0.00    +0.000 C 
ATOM     14  O   UNL     1       6.511   4.296  12.286  0.00  0.00    +0.000 OA
ENDBRANCH   4   6
BRANCH   3  15
ATOM     15  C   UNL     1       4.027   4.998  18.882  0.00  0.00    +0.000 C 
BRANCH  15  16
ATOM     16  N   UNL     1       3.187   3.808  18.528  0.00  0.00    +0.000 NA
ATOM     17  C   UNL     1       1.823   4.104  18.102  0.00  0.00    +0.000 C 
ATOM     18  C   UNL     1       0.997   3.398  19.176  0.00  0.00    +0.000 C 
ATOM     19  C   UNL     1       1.432   3.838  20.604  0.00  0.00    +0.000 C 
ATOM     20  C   UNL     1       2.717   3.015  20.836  0.00  0.00    +0.000 C 
ATOM     21  C   UNL     1       3.053   2.607  19.412  0.00  0.00    +0.000 C 
ATOM     22  C   UNL     1       1.652   2.031  19.064  0.00  0.00    +0.000 C 
ENDBRANCH  15  16
ENDBRANCH   3  15
TORSDOF 3
ENDMDL
MODEL 5
REMARK VINA RESULT:      -7.6      1.714      4.129
REMARK  Name = 
REMARK  3 active torsions:
REMARK  status: ('A' for Active; 'I' for Inactive)
REMARK    1  A    between atoms: C_3  and  C_4
REMARK    2  A    between atoms: C_4  and  N_5
REMARK    3  A    between atoms: N_12  and  C_13
REMARK                            x       y       z     vdW  Elec       q    Type
REMARK                         _______ _______ _______ _____ _____    ______ ____
ROOT
ATOM      1  C   UNL     1       4.670   5.957  17.261  0.00  0.00    +0.000 A 
ATOM      2  N   UNL     1       3.786   4.937  17.350  0.00  0.00    +0.000 NA
ATOM      3  C   UNL     1       2.702   5.455  17.930  0.00  0.00    +0.000 A 
ATOM      4  N   UNL     1       2.919   6.859  18.028  0.00  0.00    +0.000 N 
ATOM      5  N   UNL     1       4.185   7.132  17.568  0.00  0.00    +0.000 NA
ENDROOT
BRANCH   4   6
ATOM      6  C   UNL     1       2.236   8.003  18.593  0.00  0.00    +0.000 A 
ATOM      7  C   UNL     1       1.740   9.085  17.860  0.00  0.00    +0.000 A 
ATOM      8  C   UNL     1       0.870  10.029  18.462  0.00  0.00    +0.000 A 
ATOM      9  C   UNL     1       0.540   9.887  19.789  0.00  0.00    +0.000 A 
ATOM     10  C   UNL     1       1.096   8.895  20.552  0.00  0.00    +0.000 A 
ATOM     11  C   UNL     1       1.948   7.966  19.998  0.00  0.00    +0.000 A 
ATOM     12  O   UNL     1       0.655   8.928  21.838  0.00  0.00    +0.000 OA
ATOM     13  C   UNL     1      -0.370   9.941  21.749  0.00  0.00    +0.000 C 
ATOM     14  O   UNL     1      -0.322  10.661  20.496  0.00  0.00    +0.000 OA
ENDBRANCH   4   6
BRANCH   3  15
ATOM     15  C   UNL     1       1.517   4.533  18.244  0.00  0.00    +0.000 C 
BRANCH  15  16
ATOM     16  N   UNL     1       1.136   4.044  19.609  0.00  0.00    +0.000 NA
ATOM     17  C   UNL     1       1.855   4.657  20.722  0.00  0.00    +0.000 C 
ATOM     18  C   UNL     1       2.570   3.455  21.335  0.00  0.00    +0.000 C 
ATOM     19  C   UNL     1       3.395   2.681  20.266  0.00  0.00    +0.000 C 
ATOM     20  C   UNL     1       2.314   1.857  19.535  0.00  0.00    +0.000 C 
ATOM     21  C   UNL     1       1.057   2.592  19.966  0.00  0.00    +0.000 C 
ATOM     22  C   UNL     1       1.353   2.558  21.492  0.00  0.00    +0.000 C 
ENDBRANCH  15  16
ENDBRANCH   3  15
TORSDOF 3
ENDMDL
MODEL 6
REMARK VINA RESULT:      -7.6      1.063      1.565
REMARK  Name = 
REMARK  3 active torsions:
REMARK  status: ('A' for Active; 'I' for Inactive)
REMARK    1  A    between atoms: C_3  and  C_4
REMARK    2  A    between atoms: C_4  and  N_5
REMARK    3  A    between atoms: N_12  and  C_13
REMARK                            x       y       z     vdW  Elec       q    Type
REMARK                         _______ _______ _______ _____ _____    ______ ____
ROOT
ATOM      1  C   UNL     1       2.093   3.249  19.285  0.00  0.00    +0.000 A 
ATOM      2  N   UNL     1       3.439   3.193  19.394  0.00  0.00    +0.000 NA
ATOM      3  C   UNL     1       3.852   4.461  19.368  0.00  0.00    +0.000 A 
ATOM      4  N   UNL     1       2.684   5.276  19.407  0.00  0.00    +0.000 N 
ATOM      5  N   UNL     1       1.585   4.452  19.373  0.00  0.00    +0.000 NA
ENDROOT
BRANCH   4   6
ATOM      6  C   UNL     1       2.369   6.685  19.333  0.00  0.00    +0.000 A 
ATOM      7  C   UNL     1       2.443   7.466  18.175  0.00  0.00    +0.000 A 
ATOM      8  C   UNL     1       1.876   8.765  18.141  0.00  0.00    +0.000 A 
ATOM      9  C   UNL     1       1.275   9.266  19.272  0.00  0.00    +0.000 A 
ATOM     10  C   UNL     1       1.283   8.562  20.445  0.00  0.00    +0.000 A 
ATOM     11  C   UNL     1       1.829   7.299  20.513  0.00  0.00    +0.000 A 
ATOM     12  O   UNL     1       0.652   9.228  21.449  0.00  0.00    +0.000 OA
ATOM     13  C   UNL     1       0.098  10.348  20.726  0.00  0.00    +0.000 C 
ATOM     14  O   UNL     1       0.636  10.458  19.388  0.00  0.00    +0.000 OA
ENDBRANCH   4   6
BRANCH   3  15
ATOM     15  C   UNL     1       5.358   4.752  19.406  0.00  0.00    +0.000 C 
BRANCH  15  16
ATOM     16  N   UNL     1       6.320   4.491  18.287  0.00  0.00    +0.000 NA
ATOM     17  C   UNL     1       7.467   5.392  18.218  0.00  0.00    +0.000 C 
ATOM     18  C   UNL     1       7.264   6.058  16.859  0.00  0.00    +0.000 C 
ATOM     19  C   UNL     1       5.840   6.673  16.737  0.00  0.00    +0.000 C 
ATOM     20  C   UNL     1       4.963   5.440  16.433  0.00  0.00    +0.000 C 
ATOM     21  C   UNL     1       5.893   4.318  16.862  0.00  0.00    +0.000 C 
ATOM     22  C   UNL     1       7.122   4.789  16.035  0.00  0.00    +0.000 C 
ENDBRANCH  15  16
ENDBRANCH   3  15
TORSDOF 3
ENDMDL
MODEL 7
REMARK VINA RESULT:      -7.6      4.321      7.141
REMARK  Name = 
REMARK  3 active torsions:
REMARK  status: ('A' for Active; 'I' for Inactive)
REMARK    1  A    between atoms: C_3  and  C_4
REMARK    2  A    between atoms: C_4  and  N_5
REMARK    3  A    between atoms: N_12  and  C_13
REMARK                            x       y       z     vdW  Elec       q    Type
REMARK                         _______ _______ _______ _____ _____    ______ ____
ROOT
ATOM      1  C   UNL     1       7.276   5.859  19.315  0.00  0.00    +0.000 A 
ATOM      2  N   UNL     1       6.295   5.091  19.841  0.00  0.00    +0.000 NA
ATOM      3  C   UNL     1       5.786   4.410  18.813  0.00  0.00    +0.000 A 
ATOM      4  N   UNL     1       6.616   4.682  17.687  0.00  0.00    +0.000 N 
ATOM      5  N   UNL     1       7.567   5.599  18.066  0.00  0.00    +0.000 NA
ENDROOT
BRANCH   4   6
ATOM      6  C   UNL     1       6.629   4.366  16.276  0.00  0.00    +0.000 A 
ATOM      7  C   UNL     1       5.692   3.558  15.625  0.00  0.00    +0.000 A 
ATOM      8  C   UNL     1       5.638   3.510  14.209  0.00  0.00    +0.000 A 
ATOM      9  C   UNL     1       6.540   4.247  13.477  0.00  0.00    +0.000 A 
ATOM     10  C   UNL     1       7.531   4.962  14.093  0.00  0.00    +0.000 A 
ATOM     11  C   UNL     1       7.613   5.025  15.466  0.00  0.00    +0.000 A 
ATOM     12  O   UNL     1       8.327   5.611  13.200  0.00  0.00    +0.000 OA
ATOM     13  C   UNL     1       7.615   5.361  11.969  0.00  0.00    +0.000 C 
ATOM     14  O   UNL     1       6.584   4.359  12.125  0.00  0.00    +0.000 OA
ENDBRANCH   4   6
BRANCH   3  15
ATOM     15  C   UNL     1       4.591   3.481  19.058  0.00  0.00    +0.000 C 
BRANCH  15  16
ATOM     16  N   UNL     1       3.434   3.776  19.964  0.00  0.00    +0.000 NA
ATOM     17  C   UNL     1       2.517   2.665  20.199  0.00  0.00    +0.000 C 
ATOM     18  C   UNL     1       1.210   3.208  19.624  0.00  0.00    +0.000 C 
ATOM     19  C   UNL     1       1.399   3.708  18.163  0.00  0.00    +0.000 C 
ATOM     20  C   UNL     1       2.062   5.087  18.359  0.00  0.00    +0.000 C 
ATOM     21  C   UNL     1       2.544   4.968  19.795  0.00  0.00    +0.000 C 
ATOM     22  C   UNL     1       1.183   4.517  20.395  0.00  0.00    +0.000 C 
ENDBRANCH  15  16
ENDBRANCH   3  15
TORSDOF 3
ENDMDL
MODEL 8
REMARK VINA RESULT:      -7.6      0.952      1.366
REMARK  Name = 
REMARK  3 active torsions:
REMARK  status: ('A' for Active; 'I' for Inactive)
REMARK    1  A    between atoms: C_3  and  C_4
REMARK    2  A    between atoms: C_4  and  N_5
REMARK    3  A    between atoms: N_12  and  C_13
REMARK                            x       y       z     vdW  Elec       q    Type
REMARK                         _______ _______ _______ _____ _____    ______ ____
ROOT
ATOM      1  C   UNL     1       1.854   3.361  20.608  0.00  0.00    +0.000 A 
ATOM      2  N   UNL     1       3.095   3.125  20.124  0.00  0.00    +0.000 NA
ATOM      3  C   UNL     1       3.502   4.285  19.605  0.00  0.00    +0.000 A 
ATOM      4  N   UNL     1       2.519   5.258  19.949  0.00  0.00    +0.000 N 
ATOM      5  N   UNL     1       1.495   4.619  20.608  0.00  0.00    +0.000 NA
ENDROOT
BRANCH   4   6
ATOM      6  C   UNL     1       2.264   6.654  19.674  0.00  0.00    +0.000 A 
ATOM      7  C   UNL     1       2.415   7.268  18.427  0.00  0.00    +0.000 A 
ATOM      8  C   UNL     1       1.903   8.569  18.193  0.00  0.00    +0.000 A 
ATOM      9  C   UNL     1       1.279   9.239  19.220  0.00  0.00    +0.000 A 
ATOM     10  C   UNL     1       1.212   8.700  20.476  0.00  0.00    +0.000 A 
ATOM     11  C   UNL     1       1.703   7.439  20.736  0.00  0.00    +0.000 A 
ATOM     12  O   UNL     1       0.568   9.518  21.352  0.00  0.00    +0.000 OA
ATOM     13  C   UNL     1       0.089  10.548  20.462  0.00  0.00    +0.000 C 
ATOM     14  O   UNL     1       0.684  10.457  19.147  0.00  0.00    +0.000 OA
ENDBRANCH   4   6
BRANCH   3  15
ATOM     15  C   UNL     1       4.864   4.347  18.904  0.00  0.00    +0.000 C 
BRANCH  15  16
ATOM     16  N   UNL     1       5.599   5.603  18.545  0.00  0.00    +0.000 NA
ATOM     17  C   UNL     1       5.238   6.199  17.262  0.00  0.00    +0.000 C 
ATOM     18  C   UNL     1       6.559   6.126  16.498  0.00  0.00    +0.000 C 
ATOM     19  C   UNL     1       7.134   4.680  16.500  0.00  0.00    +0.000 C 
ATOM     20  C   UNL     1       7.765   4.568  17.904  0.00  0.00    +0.000 C 
ATOM     21  C   UNL     1       7.089   5.729  18.612  0.00  0.00    +0.000 C 
ATOM     22  C   UNL     1       7.430   6.804  17.543  0.00  0.00    +0.000 C 
ENDBRANCH  15  16
ENDBRANCH   3  15
TORSDOF 3
ENDMDL
MODEL 9
REMARK VINA RESULT:      -7.6      4.494      7.291
REMARK  Name = 
REMARK  3 active torsions:
REMARK  status: ('A' for Active; 'I' for Inactive)
REMARK    1  A    between atoms: C_3  and  C_4
REMARK    2  A    between atoms: C_4  and  N_5
REMARK    3  A    between atoms: N_12  and  C_13
REMARK                            x       y       z     vdW  Elec       q    Type
REMARK                         _______ _______ _______ _____ _____    ______ ____
ROOT
ATOM      1  C   UNL     1       7.039   5.580  19.414  0.00  0.00    +0.000 A 
ATOM      2  N   UNL     1       5.827   5.091  19.762  0.00  0.00    +0.000 NA
ATOM      3  C   UNL     1       5.315   4.577  18.643  0.00  0.00    +0.000 A 
ATOM      4  N   UNL     1       6.341   4.633  17.656  0.00  0.00    +0.000 N 
ATOM      5  N   UNL     1       7.431   5.265  18.206  0.00  0.00    +0.000 NA
ENDROOT
BRANCH   4   6
ATOM      6  C   UNL     1       6.478   4.338  16.247  0.00  0.00    +0.000 A 
ATOM      7  C   UNL     1       5.623   3.510  15.513  0.00  0.00    +0.000 A 
ATOM      8  C   UNL     1       5.684   3.481  14.097  0.00  0.00    +0.000 A 
ATOM      9  C   UNL     1       6.617   4.256  13.448  0.00  0.00    +0.000 A 
ATOM     10  C   UNL     1       7.532   4.993  14.151  0.00  0.00    +0.000 A 
ATOM     11  C   UNL     1       7.502   5.039  15.527  0.00  0.00    +0.000 A 
ATOM     12  O   UNL     1       8.375   5.680  13.333  0.00  0.00    +0.000 OA
ATOM     13  C   UNL     1       7.773   5.426  12.046  0.00  0.00    +0.000 C 
ATOM     14  O   UNL     1       6.766   4.389  12.106  0.00  0.00    +0.000 OA
ENDBRANCH   4   6
BRANCH   3  15
ATOM     15  C   UNL     1       3.898   3.992  18.676  0.00  0.00    +0.000 C 
BRANCH  15  16
ATOM     16  N   UNL     1       3.348   3.111  19.758  0.00  0.00    +0.000 NA
ATOM     17  C   UNL     1       2.269   2.215  19.354  0.00  0.00    +0.000 C 
ATOM     18  C   UNL     1       1.113   2.699  20.226  0.00  0.00    +0.000 C 
ATOM     19  C   UNL     1       0.891   4.232  20.070  0.00  0.00    +0.000 C 
ATOM     20  C   UNL     1       2.006   4.827  20.955  0.00  0.00    +0.000 C 
ATOM     21  C   UNL     1       2.925   3.627  21.098  0.00  0.00    +0.000 C 
ATOM     22  C   UNL     1       1.829   2.628  21.564  0.00  0.00    +0.000 C 
ENDBRANCH  15  16
ENDBRANCH   3  15
TORSDOF 3
ENDMDL
