MODEL 1
REMARK VINA RESULT:      -7.1      0.000      0.000
REMARK  Name = 
REMARK  8 active torsions:
REMARK  status: ('A' for Active; 'I' for Inactive)
REMARK    1  A    between atoms: C_1  and  S_2
REMARK    2  A    between atoms: S_2  and  C_3
REMARK    3  A    between atoms: C_3  and  C_4
REMARK    4  A    between atoms: C_4  and  C_5
REMARK    5  A    between atoms: C_5  and  C_6
REMARK    6  A    between atoms: C_5  and  N_14
REMARK    7  A    between atoms: N_8  and  C_9
REMARK    8  A    between atoms: C_15  and  C_16
REMARK                            x       y       z     vdW  Elec       q    Type
REMARK                         _______ _______ _______ _____ _____    ______ ____
ROOT
ATOM      1  N   UNL     1       3.569   5.354  18.382  0.00  0.00    +0.000 N 
ATOM      2  C   UNL     1       2.401   6.015  18.782  0.00  0.00    +0.000 A 
ATOM      3  N   UNL     1       1.463   5.106  19.020  0.00  0.00    +0.000 NA
ATOM      4  C   UNL     1       2.017   3.868  18.808  0.00  0.00    +0.000 A 
ATOM      5  C   UNL     1       1.440   2.589  18.907  0.00  0.00    +0.000 A 
ATOM      6  C   UNL     1       2.226   1.463  18.635  0.00  0.00    +0.000 A 
ATOM      7  C   UNL     1       3.566   1.601  18.275  0.00  0.00    +0.000 A 
ATOM      8  C   UNL     1       4.152   2.867  18.166  0.00  0.00    +0.000 A 
ATOM      9  C   UNL     1       3.346   3.985  18.427  0.00  0.00    +0.000 A 
ENDROOT
BRANCH   2  10
ATOM     10  C   UNL     1       2.144   7.469  18.843  0.00  0.00    +0.000 A 
ATOM     11  C   UNL     1       1.664   8.037  20.026  0.00  0.00    +0.000 A 
ATOM     12  C   UNL     1       1.332   9.387  20.055  0.00  0.00    +0.000 A 
ATOM     13  N   UNL     1       1.431  10.214  18.995  0.00  0.00    +0.000 NA
ATOM     14  C   UNL     1       1.934   9.680  17.874  0.00  0.00    +0.000 A 
ATOM     15  C   UNL     1       2.325   8.356  17.779  0.00  0.00    +0.000 A 
ENDBRANCH   2  10
BRANCH   1  16
ATOM     16  C   UNL     1       4.845   5.935  17.917  0.00  0.00    +0.000 C 
BRANCH  16  17
ATOM     17  C   UNL     1       4.898   6.049  16.384  0.00  0.00    +0.000 C 
ATOM     18  O   UNL     1       4.693   7.111  15.799  0.00  0.00    +0.000 OA
ATOM     19  N   UNL     1       5.217   4.891  15.682  0.00  0.00    +0.000 N 
ATOM     20  H   UNL     1       5.486   4.062  16.202  0.00  0.00    +0.000 HD
BRANCH  19  21
ATOM     21  C   UNL     1       5.649   4.932  14.291  0.00  0.00    +0.000 C 
ATOM     22  C   UNL     1       7.169   4.935  14.165  0.00  0.00    +0.000 C 
ATOM     23  C   UNL     1       7.426   4.459  12.746  0.00  0.00    +0.000 C 
ATOM     24  C   UNL     1       6.285   3.501  12.422  0.00  0.00    +0.000 C 
ATOM     25  C   UNL     1       5.200   3.729  13.471  0.00  0.00    +0.000 C 
ENDBRANCH  19  21
ENDBRANCH  16  17
BRANCH  16  26
ATOM     26  C   UNL     1       6.012   5.208  18.622  0.00  0.00    +0.000 C 
BRANCH  26  27
ATOM     27  C   UNL     1       7.424   5.462  18.112  0.00  0.00    +0.000 C 
BRANCH  27  29
ATOM     28  C   UNL     1       7.743   8.107  17.514  0.00  0.00    +0.000 C 
ATOM     29  S   UNL     1       8.170   6.948  18.836  0.00  0.00    +0.000 S 
ENDBRANCH  27  29
ENDBRANCH  26  27
ENDBRANCH  16  26
ENDBRANCH   1  16
TORSDOF 7
ENDMDL
MODEL 2
REMARK VINA RESULT:      -6.6      6.993     10.426
REMARK  Name = 
REMARK  8 active torsions:
REMARK  status: ('A' for Active; 'I' for Inactive)
REMARK    1  A    between atoms: C_1  and  S_2
REMARK    2  A    between atoms: S_2  and  C_3
REMARK    3  A    between atoms: C_3  and  C_4
REMARK    4  A    between atoms: C_4  and  C_5
REMARK    5  A    between atoms: C_5  and  C_6
REMARK    6  A    between atoms: C_5  and  N_14
REMARK    7  A    between atoms: N_8  and  C_9
REMARK    8  A    between atoms: C_15  and  C_16
REMARK                            x       y       z     vdW  Elec       q    Type
REMARK                         _______ _______ _______ _____ _____    ______ ____
ROOT
ATOM      1  N   UNL     1      -0.873  11.876  21.140  0.00  0.00    +0.000 N 
ATOM      2  C   UNL     1      -1.155  11.952  22.509  0.00  0.00    +0.000 A 
ATOM      3  N   UNL     1      -0.619  10.896  23.109  0.00  0.00    +0.000 NA
ATOM      4  C   UNL     1       0.028  10.154  22.151  0.00  0.00    +0.000 A 
ATOM      5  C   UNL     1       0.732   8.943  22.267  0.00  0.00    +0.000 A 
ATOM      6  C   UNL     1       1.311   8.377  21.125  0.00  0.00    +0.000 A 
ATOM      7  C   UNL     1       1.197   9.005  19.885  0.00  0.00    +0.000 A 
ATOM      8  C   UNL     1       0.494  10.208  19.753  0.00  0.00    +0.000 A 
ATOM      9  C   UNL     1      -0.093  10.753  20.905  0.00  0.00    +0.000 A 
ENDROOT
BRANCH   2  10
ATOM     10  C   UNL     1      -1.990  12.942  23.221  0.00  0.00    +0.000 A 
ATOM     11  C   UNL     1      -3.352  12.692  23.404  0.00  0.00    +0.000 A 
ATOM     12  C   UNL     1      -4.156  13.664  23.989  0.00  0.00    +0.000 A 
ATOM     13  N   UNL     1      -3.712  14.870  24.396  0.00  0.00    +0.000 NA
ATOM     14  C   UNL     1      -2.397  15.092  24.261  0.00  0.00    +0.000 A 
ATOM     15  C   UNL     1      -1.526  14.159  23.727  0.00  0.00    +0.000 A 
ENDBRANCH   2  10
BRANCH   1  16
ATOM     16  C   UNL     1      -1.337  12.761  20.051  0.00  0.00    +0.000 C 
BRANCH  16  17
ATOM     17  C   UNL     1      -2.533  12.159  19.294  0.00  0.00    +0.000 C 
ATOM     18  O   UNL     1      -2.392  11.301  18.424  0.00  0.00    +0.000 OA
ATOM     19  N   UNL     1      -3.795  12.614  19.658  0.00  0.00    +0.000 N 
ATOM     20  H   UNL     1      -3.881  13.240  20.452  0.00  0.00    +0.000 HD
BRANCH  19  21
ATOM     21  C   UNL     1      -5.006  11.889  19.293  0.00  0.00    +0.000 C 
ATOM     22  C   UNL     1      -6.102  12.044  20.342  0.00  0.00    +0.000 C 
ATOM     23  C   UNL     1      -7.382  11.706  19.597  0.00  0.00    +0.000 C 
ATOM     24  C   UNL     1      -7.148  12.153  18.158  0.00  0.00    +0.000 C 
ATOM     25  C   UNL     1      -5.646  12.373  17.997  0.00  0.00    +0.000 C 
ENDBRANCH  19  21
ENDBRANCH  16  17
BRANCH  16  26
ATOM     26  C   UNL     1      -0.116  13.212  19.219  0.00  0.00    +0.000 C 
BRANCH  26  27
ATOM     27  C   UNL     1       0.857  14.198  19.853  0.00  0.00    +0.000 C 
BRANCH  27  29
ATOM     28  C   UNL     1       2.611  12.913  18.201  0.00  0.00    +0.000 C 
ATOM     29  S   UNL     1       2.255  14.593  18.767  0.00  0.00    +0.000 S 
ENDBRANCH  27  29
ENDBRANCH  26  27
ENDBRANCH  16  26
ENDBRANCH   1  16
TORSDOF 7
ENDMDL
MODEL 3
REMARK VINA RESULT:      -6.6      6.987     10.634
REMARK  Name = 
REMARK  8 active torsions:
REMARK  status: ('A' for Active; 'I' for Inactive)
REMARK    1  A    between atoms: C_1  and  S_2
REMARK    2  A    between atoms: S_2  and  C_3
REMARK    3  A    between atoms: C_3  and  C_4
REMARK    4  A    between atoms: C_4  and  C_5
REMARK    5  A    between atoms: C_5  and  C_6
REMARK    6  A    between atoms: C_5  and  N_14
REMARK    7  A    between atoms: N_8  and  C_9
REMARK    8  A    between atoms: C_15  and  C_16
REMARK                            x       y       z     vdW  Elec       q    Type
REMARK                         _______ _______ _______ _____ _____    ______ ____
ROOT
ATOM      1  N   UNL     1      -0.828  11.806  21.028  0.00  0.00    +0.000 N 
ATOM      2  C   UNL     1      -1.045  11.859  22.410  0.00  0.00    +0.000 A 
ATOM      3  N   UNL     1      -0.457  10.809  22.971  0.00  0.00    +0.000 NA
ATOM      4  C   UNL     1       0.161  10.094  21.973  0.00  0.00    +0.000 A 
ATOM      5  C   UNL     1       0.898   8.899  22.041  0.00  0.00    +0.000 A 
ATOM      6  C   UNL     1       1.435   8.361  20.865  0.00  0.00    +0.000 A 
ATOM      7  C   UNL     1       1.247   9.000  19.640  0.00  0.00    +0.000 A 
ATOM      8  C   UNL     1       0.510  10.187  19.557  0.00  0.00    +0.000 A 
ATOM      9  C   UNL     1      -0.033  10.704  20.742  0.00  0.00    +0.000 A 
ENDROOT
BRANCH   2  10
ATOM     10  C   UNL     1      -1.868  12.821  23.174  0.00  0.00    +0.000 A 
ATOM     11  C   UNL     1      -1.289  13.999  23.651  0.00  0.00    +0.000 A 
ATOM     12  C   UNL     1      -2.038  14.858  24.449  0.00  0.00    +0.000 A 
ATOM     13  N   UNL     1      -3.314  14.629  24.817  0.00  0.00    +0.000 NA
ATOM     14  C   UNL     1      -3.882  13.521  24.323  0.00  0.00    +0.000 A 
ATOM     15  C   UNL     1      -3.217  12.640  23.489  0.00  0.00    +0.000 A 
ENDBRANCH   2  10
BRANCH   1  16
ATOM     16  C   UNL     1      -1.364  12.691  19.974  0.00  0.00    +0.000 C 
BRANCH  16  17
ATOM     17  C   UNL     1      -2.615  12.096  19.307  0.00  0.00    +0.000 C 
ATOM     18  O   UNL     1      -2.553  11.139  18.537  0.00  0.00    +0.000 OA
ATOM     19  N   UNL     1      -3.835  12.677  19.635  0.00  0.00    +0.000 N 
ATOM     20  H   UNL     1      -3.859  13.392  20.355  0.00  0.00    +0.000 HD
BRANCH  19  21
ATOM     21  C   UNL     1      -5.101  12.004  19.372  0.00  0.00    +0.000 C 
ATOM     22  C   UNL     1      -6.052  12.094  20.560  0.00  0.00    +0.000 C 
ATOM     23  C   UNL     1      -7.423  11.838  19.959  0.00  0.00    +0.000 C 
ATOM     24  C   UNL     1      -7.359  12.394  18.541  0.00  0.00    +0.000 C 
ATOM     25  C   UNL     1      -5.884  12.601  18.209  0.00  0.00    +0.000 C 
ENDBRANCH  19  21
ENDBRANCH  16  17
BRANCH  16  26
ATOM     26  C   UNL     1      -0.203  13.134  19.054  0.00  0.00    +0.000 C 
BRANCH  26  27
ATOM     27  C   UNL     1       0.720  14.239  19.549  0.00  0.00    +0.000 C 
BRANCH  27  29
ATOM     28  C   UNL     1       1.949  16.528  18.712  0.00  0.00    +0.000 C 
ATOM     29  S   UNL     1       0.274  15.868  18.888  0.00  0.00    +0.000 S 
ENDBRANCH  27  29
ENDBRANCH  26  27
ENDBRANCH  16  26
ENDBRANCH   1  16
TORSDOF 7
ENDMDL
MODEL 4
REMARK VINA RESULT:      -6.6      5.559      8.755
REMARK  Name = 
REMARK  8 active torsions:
REMARK  status: ('A' for Active; 'I' for Inactive)
REMARK    1  A    between atoms: C_1  and  S_2
REMARK    2  A    between atoms: S_2  and  C_3
REMARK    3  A    between atoms: C_3  and  C_4
REMARK    4  A    between atoms: C_4  and  C_5
REMARK    5  A    between atoms: C_5  and  C_6
REMARK    6  A    between atoms: C_5  and  N_14
REMARK    7  A    between atoms: N_8  and  C_9
REMARK    8  A    between atoms: C_15  and  C_16
REMARK                            x       y       z     vdW  Elec       q    Type
REMARK                         _______ _______ _______ _____ _____    ______ ____
ROOT
ATOM      1  N   UNL     1       0.350  10.869  19.577  0.00  0.00    +0.000 N 
ATOM      2  C   UNL     1       0.206  10.861  20.970  0.00  0.00    +0.000 A 
ATOM      3  N   UNL     1       0.737   9.740  21.442  0.00  0.00    +0.000 NA
ATOM      4  C   UNL     1       1.247   9.038  20.377  0.00  0.00    +0.000 A 
ATOM      5  C   UNL     1       1.891   7.788  20.343  0.00  0.00    +0.000 A 
ATOM      6  C   UNL     1       2.325   7.278  19.114  0.00  0.00    +0.000 A 
ATOM      7  C   UNL     1       2.127   7.997  17.935  0.00  0.00    +0.000 A 
ATOM      8  C   UNL     1       1.482   9.239  17.953  0.00  0.00    +0.000 A 
ATOM      9  C   UNL     1       1.040   9.728  19.192  0.00  0.00    +0.000 A 
ENDROOT
BRANCH   2  10
ATOM     10  C   UNL     1      -0.501  11.838  21.825  0.00  0.00    +0.000 A 
ATOM     11  C   UNL     1      -1.693  11.470  22.453  0.00  0.00    +0.000 A 
ATOM     12  C   UNL     1      -2.407  12.416  23.180  0.00  0.00    +0.000 A 
ATOM     13  N   UNL     1      -2.031  13.703  23.321  0.00  0.00    +0.000 NA
ATOM     14  C   UNL     1      -0.865  14.044  22.757  0.00  0.00    +0.000 A 
ATOM     15  C   UNL     1      -0.078  13.150  22.053  0.00  0.00    +0.000 A 
ENDBRANCH   2  10
BRANCH   1  16
ATOM     16  C   UNL     1      -0.167  11.850  18.600  0.00  0.00    +0.000 C 
BRANCH  16  17
ATOM     17  C   UNL     1       0.568  13.197  18.698  0.00  0.00    +0.000 C 
ATOM     18  O   UNL     1      -0.034  14.268  18.764  0.00  0.00    +0.000 OA
ATOM     19  N   UNL     1       1.957  13.150  18.736  0.00  0.00    +0.000 N 
ATOM     20  H   UNL     1       2.415  12.246  18.790  0.00  0.00    +0.000 HD
BRANCH  19  21
ATOM     21  C   UNL     1       2.752  14.287  19.183  0.00  0.00    +0.000 C 
ATOM     22  C   UNL     1       3.252  14.108  20.612  0.00  0.00    +0.000 C 
ATOM     23  C   UNL     1       4.430  15.060  20.716  0.00  0.00    +0.000 C 
ATOM     24  C   UNL     1       5.043  15.108  19.321  0.00  0.00    +0.000 C 
ATOM     25  C   UNL     1       4.014  14.516  18.361  0.00  0.00    +0.000 C 
ENDBRANCH  19  21
ENDBRANCH  16  17
BRANCH  16  26
ATOM     26  C   UNL     1      -1.710  11.869  18.678  0.00  0.00    +0.000 C 
BRANCH  26  27
ATOM     27  C   UNL     1      -2.458  10.580  18.364  0.00  0.00    +0.000 C 
BRANCH  27  29
ATOM     28  C   UNL     1      -3.961  11.142  16.155  0.00  0.00    +0.000 C 
ATOM     29  S   UNL     1      -2.479  10.202  16.590  0.00  0.00    +0.000 S 
ENDBRANCH  27  29
ENDBRANCH  26  27
ENDBRANCH  16  26
ENDBRANCH   1  16
TORSDOF 7
ENDMDL
MODEL 5
REMARK VINA RESULT:      -6.5      6.061      9.121
REMARK  Name = 
REMARK  8 active torsions:
REMARK  status: ('A' for Active; 'I' for Inactive)
REMARK    1  A    between atoms: C_1  and  S_2
REMARK    2  A    between atoms: S_2  and  C_3
REMARK    3  A    between atoms: C_3  and  C_4
REMARK    4  A    between atoms: C_4  and  C_5
REMARK    5  A    between atoms: C_5  and  C_6
REMARK    6  A    between atoms: C_5  and  N_14
REMARK    7  A    between atoms: N_8  and  C_9
REMARK    8  A    between atoms: C_15  and  C_16
REMARK                            x       y       z     vdW  Elec       q    Type
REMARK                         _______ _______ _______ _____ _____    ______ ____
ROOT
ATOM      1  N   UNL     1      -0.111  11.145  20.075  0.00  0.00    +0.000 N 
ATOM      2  C   UNL     1      -0.268  11.255  21.462  0.00  0.00    +0.000 A 
ATOM      3  N   UNL     1       0.318  10.210  22.037  0.00  0.00    +0.000 NA
ATOM      4  C   UNL     1       0.876   9.444  21.042  0.00  0.00    +0.000 A 
ATOM      5  C   UNL     1       1.586   8.234  21.124  0.00  0.00    +0.000 A 
ATOM      6  C   UNL     1       2.059   7.639  19.948  0.00  0.00    +0.000 A 
ATOM      7  C   UNL     1       1.834   8.238  18.709  0.00  0.00    +0.000 A 
ATOM      8  C   UNL     1       1.123   9.439  18.611  0.00  0.00    +0.000 A 
ATOM      9  C   UNL     1       0.643  10.013  19.798  0.00  0.00    +0.000 A 
ENDROOT
BRANCH   2  10
ATOM     10  C   UNL     1      -1.034  12.264  22.223  0.00  0.00    +0.000 A 
ATOM     11  C   UNL     1      -0.445  13.495  22.524  0.00  0.00    +0.000 A 
ATOM     12  C   UNL     1      -1.130  14.407  23.319  0.00  0.00    +0.000 A 
ATOM     13  N   UNL     1      -2.350  14.185  23.847  0.00  0.00    +0.000 NA
ATOM     14  C   UNL     1      -2.933  13.024  23.521  0.00  0.00    +0.000 A 
ATOM     15  C   UNL     1      -2.333  12.083  22.702  0.00  0.00    +0.000 A 
ENDBRANCH   2  10
BRANCH   1  16
ATOM     16  C   UNL     1      -0.670  12.005  19.012  0.00  0.00    +0.000 C 
BRANCH  16  17
ATOM     17  C   UNL     1       0.004  13.387  18.979  0.00  0.00    +0.000 C 
ATOM     18  O   UNL     1      -0.608  14.420  19.242  0.00  0.00    +0.000 OA
ATOM     19  N   UNL     1       1.358  13.414  18.660  0.00  0.00    +0.000 N 
ATOM     20  H   UNL     1       1.855  12.535  18.556  0.00  0.00    +0.000 HD
BRANCH  19  21
ATOM     21  C   UNL     1       2.188  14.579  18.940  0.00  0.00    +0.000 C 
ATOM     22  C   UNL     1       3.021  14.396  20.204  0.00  0.00    +0.000 C 
ATOM     23  C   UNL     1       4.150  15.401  20.055  0.00  0.00    +0.000 C 
ATOM     24  C   UNL     1       4.411  15.504  18.556  0.00  0.00    +0.000 C 
ATOM     25  C   UNL     1       3.209  14.883  17.850  0.00  0.00    +0.000 C 
ENDBRANCH  19  21
ENDBRANCH  16  17
BRANCH  16  26
ATOM     26  C   UNL     1      -2.212  11.962  19.093  0.00  0.00    +0.000 C 
BRANCH  26  27
ATOM     27  C   UNL     1      -2.984  11.576  17.838  0.00  0.00    +0.000 C 
BRANCH  27  29
ATOM     28  C   UNL     1      -2.902  10.524  15.320  0.00  0.00    +0.000 C 
ATOM     29  S   UNL     1      -2.237  10.172  16.965  0.00  0.00    +0.000 S 
ENDBRANCH  27  29
ENDBRANCH  26  27
ENDBRANCH  16  26
ENDBRANCH   1  16
TORSDOF 7
ENDMDL
MODEL 6
REMARK VINA RESULT:      -6.5      4.868      9.016
REMARK  Name = 
REMARK  8 active torsions:
REMARK  status: ('A' for Active; 'I' for Inactive)
REMARK    1  A    between atoms: C_1  and  S_2
REMARK    2  A    between atoms: S_2  and  C_3
REMARK    3  A    between atoms: C_3  and  C_4
REMARK    4  A    between atoms: C_4  and  C_5
REMARK    5  A    between atoms: C_5  and  C_6
REMARK    6  A    between atoms: C_5  and  N_14
REMARK    7  A    between atoms: N_8  and  C_9
REMARK    8  A    between atoms: C_15  and  C_16
REMARK                            x       y       z     vdW  Elec       q    Type
REMARK                         _______ _______ _______ _____ _____    ______ ____
ROOT
ATOM      1  N   UNL     1      -0.191  12.010  19.777  0.00  0.00    +0.000 N 
ATOM      2  C   UNL     1      -0.933  12.934  20.523  0.00  0.00    +0.000 A 
ATOM      3  N   UNL     1      -0.306  14.104  20.489  0.00  0.00    +0.000 NA
ATOM      4  C   UNL     1       0.814  13.955  19.708  0.00  0.00    +0.000 A 
ATOM      5  C   UNL     1       1.815  14.885  19.375  0.00  0.00    +0.000 A 
ATOM      6  C   UNL     1       2.872  14.485  18.549  0.00  0.00    +0.000 A 
ATOM      7  C   UNL     1       2.935  13.182  18.057  0.00  0.00    +0.000 A 
ATOM      8  C   UNL     1       1.950  12.243  18.385  0.00  0.00    +0.000 A 
ATOM      9  C   UNL     1       0.906  12.658  19.226  0.00  0.00    +0.000 A 
ENDROOT
BRANCH   2  10
ATOM     10  C   UNL     1      -2.149  12.698  21.330  0.00  0.00    +0.000 A 
ATOM     11  C   UNL     1      -3.407  12.855  20.743  0.00  0.00    +0.000 A 
ATOM     12  C   UNL     1      -4.550  12.725  21.525  0.00  0.00    +0.000 A 
ATOM     13  N   UNL     1      -4.537  12.464  22.847  0.00  0.00    +0.000 NA
ATOM     14  C   UNL     1      -3.332  12.269  23.399  0.00  0.00    +0.000 A 
ATOM     15  C   UNL     1      -2.153  12.340  22.680  0.00  0.00    +0.000 A 
ENDBRANCH   2  10
BRANCH   1  16
ATOM     16  C   UNL     1      -0.428  10.563  19.601  0.00  0.00    +0.000 C 
BRANCH  16  17
ATOM     17  C   UNL     1       0.742   9.722  20.140  0.00  0.00    +0.000 C 
ATOM     18  O   UNL     1       1.153   9.835  21.294  0.00  0.00    +0.000 OA
ATOM     19  N   UNL     1       1.302   8.798  19.265  0.00  0.00    +0.000 N 
ATOM     20  H   UNL     1       0.868   8.655  18.359  0.00  0.00    +0.000 HD
BRANCH  19  21
ATOM     21  C   UNL     1       2.149   7.710  19.737  0.00  0.00    +0.000 C 
ATOM     22  C   UNL     1       1.366   6.692  20.560  0.00  0.00    +0.000 C 
ATOM     23  C   UNL     1       2.220   5.438  20.512  0.00  0.00    +0.000 C 
ATOM     24  C   UNL     1       2.920   5.471  19.158  0.00  0.00    +0.000 C 
ATOM     25  C   UNL     1       2.780   6.891  18.618  0.00  0.00    +0.000 C 
ENDBRANCH  19  21
ENDBRANCH  16  17
BRANCH  16  26
ATOM     26  C   UNL     1      -0.887  10.303  18.149  0.00  0.00    +0.000 C 
BRANCH  26  27
ATOM     27  C   UNL     1      -2.369  10.053  17.902  0.00  0.00    +0.000 C 
BRANCH  27  29
ATOM     28  C   UNL     1      -4.403  11.540  16.850  0.00  0.00    +0.000 C 
ATOM     29  S   UNL     1      -2.920  10.671  16.288  0.00  0.00    +0.000 S 
ENDBRANCH  27  29
ENDBRANCH  26  27
ENDBRANCH  16  26
ENDBRANCH   1  16
TORSDOF 7
ENDMDL
MODEL 7
REMARK VINA RESULT:      -6.5      7.458      9.956
REMARK  Name = 
REMARK  8 active torsions:
REMARK  status: ('A' for Active; 'I' for Inactive)
REMARK    1  A    between atoms: C_1  and  S_2
REMARK    2  A    between atoms: S_2  and  C_3
REMARK    3  A    between atoms: C_3  and  C_4
REMARK    4  A    between atoms: C_4  and  C_5
REMARK    5  A    between atoms: C_5  and  C_6
REMARK    6  A    between atoms: C_5  and  N_14
REMARK    7  A    between atoms: N_8  and  C_9
REMARK    8  A    between atoms: C_15  and  C_16
REMARK                            x       y       z     vdW  Elec       q    Type
REMARK                         _______ _______ _______ _____ _____    ______ ____
ROOT
ATOM      1  N   UNL     1      -0.459  12.366  21.591  0.00  0.00    +0.000 N 
ATOM      2  C   UNL     1      -1.126  12.348  22.822  0.00  0.00    +0.000 A 
ATOM      3  N   UNL     1      -1.098  11.108  23.298  0.00  0.00    +0.000 NA
ATOM      4  C   UNL     1      -0.398  10.334  22.405  0.00  0.00    +0.000 A 
ATOM      5  C   UNL     1      -0.104   8.959  22.437  0.00  0.00    +0.000 A 
ATOM      6  C   UNL     1       0.637   8.395  21.392  0.00  0.00    +0.000 A 
ATOM      7  C   UNL     1       1.084   9.183  20.332  0.00  0.00    +0.000 A 
ATOM      8  C   UNL     1       0.794  10.551  20.283  0.00  0.00    +0.000 A 
ATOM      9  C   UNL     1       0.037  11.097  21.331  0.00  0.00    +0.000 A 
ENDROOT
BRANCH   2  10
ATOM     10  C   UNL     1      -1.857  13.447  23.487  0.00  0.00    +0.000 A 
ATOM     11  C   UNL     1      -3.247  13.379  23.607  0.00  0.00    +0.000 A 
ATOM     12  C   UNL     1      -3.944  14.455  24.147  0.00  0.00    +0.000 A 
ATOM     13  N   UNL     1      -3.364  15.597  24.566  0.00  0.00    +0.000 NA
ATOM     14  C   UNL     1      -2.028  15.644  24.493  0.00  0.00    +0.000 A 
ATOM     15  C   UNL     1      -1.262  14.599  24.007  0.00  0.00    +0.000 A 
ENDBRANCH   2  10
BRANCH   1  16
ATOM     16  C   UNL     1      -0.313  13.485  20.637  0.00  0.00    +0.000 C 
BRANCH  16  17
ATOM     17  C   UNL     1      -0.873  13.131  19.249  0.00  0.00    +0.000 C 
ATOM     18  O   UNL     1      -0.246  13.353  18.214  0.00  0.00    +0.000 OA
ATOM     19  N   UNL     1      -2.121  12.519  19.216  0.00  0.00    +0.000 N 
ATOM     20  H   UNL     1      -2.559  12.252  20.092  0.00  0.00    +0.000 HD
BRANCH  19  21
ATOM     21  C   UNL     1      -2.600  11.817  18.032  0.00  0.00    +0.000 C 
ATOM     22  C   UNL     1      -2.071  10.388  17.963  0.00  0.00    +0.000 C 
ATOM     23  C   UNL     1      -3.036   9.679  17.029  0.00  0.00    +0.000 C 
ATOM     24  C   UNL     1      -4.385  10.356  17.242  0.00  0.00    +0.000 C 
ATOM     25  C   UNL     1      -4.115  11.667  17.977  0.00  0.00    +0.000 C 
ENDBRANCH  19  21
ENDBRANCH  16  17
BRANCH  16  26
ATOM     26  C   UNL     1       1.135  14.019  20.710  0.00  0.00    +0.000 C 
BRANCH  26  27
ATOM     27  C   UNL     1       1.347  15.525  20.629  0.00  0.00    +0.000 C 
BRANCH  27  29
ATOM     28  C   UNL     1      -0.426  16.883  19.058  0.00  0.00    +0.000 C 
ATOM     29  S   UNL     1      -0.200  16.456  20.801  0.00  0.00    +0.000 S 
ENDBRANCH  27  29
ENDBRANCH  26  27
ENDBRANCH  16  26
ENDBRANCH   1  16
TORSDOF 7
ENDMDL
MODEL 8
REMARK VINA RESULT:      -6.4      6.913      9.323
REMARK  Name = 
REMARK  8 active torsions:
REMARK  status: ('A' for Active; 'I' for Inactive)
REMARK    1  A    between atoms: C_1  and  S_2
REMARK    2  A    between atoms: S_2  and  C_3
REMARK    3  A    between atoms: C_3  and  C_4
REMARK    4  A    between atoms: C_4  and  C_5
REMARK    5  A    between atoms: C_5  and  C_6
REMARK    6  A    between atoms: C_5  and  N_14
REMARK    7  A    between atoms: N_8  and  C_9
REMARK    8  A    between atoms: C_15  and  C_16
REMARK                            x       y       z     vdW  Elec       q    Type
REMARK                         _______ _______ _______ _____ _____    ______ ____
ROOT
ATOM      1  N   UNL     1      -0.611  11.957  21.279  0.00  0.00    +0.000 N 
ATOM      2  C   UNL     1      -1.071  11.905  22.600  0.00  0.00    +0.000 A 
ATOM      3  N   UNL     1      -0.731  10.730  23.119  0.00  0.00    +0.000 NA
ATOM      4  C   UNL     1      -0.033  10.037  22.161  0.00  0.00    +0.000 A 
ATOM      5  C   UNL     1       0.526   8.747  22.206  0.00  0.00    +0.000 A 
ATOM      6  C   UNL     1       1.200   8.256  21.081  0.00  0.00    +0.000 A 
ATOM      7  C   UNL     1       1.322   9.033  19.930  0.00  0.00    +0.000 A 
ATOM      8  C   UNL     1       0.765  10.316  19.868  0.00  0.00    +0.000 A 
ATOM      9  C   UNL     1       0.080  10.786  20.999  0.00  0.00    +0.000 A 
ENDROOT
BRANCH   2  10
ATOM     10  C   UNL     1      -1.896  12.894  23.325  0.00  0.00    +0.000 A 
ATOM     11  C   UNL     1      -3.248  12.630  23.554  0.00  0.00    +0.000 A 
ATOM     12  C   UNL     1      -4.046  13.601  24.151  0.00  0.00    +0.000 A 
ATOM     13  N   UNL     1      -3.603  14.817  24.527  0.00  0.00    +0.000 NA
ATOM     14  C   UNL     1      -2.297  15.052  24.349  0.00  0.00    +0.000 A 
ATOM     15  C   UNL     1      -1.431  14.123  23.800  0.00  0.00    +0.000 A 
ENDBRANCH   2  10
BRANCH   1  16
ATOM     16  C   UNL     1      -0.829  13.009  20.266  0.00  0.00    +0.000 C 
BRANCH  16  17
ATOM     17  C   UNL     1      -1.509  12.456  19.002  0.00  0.00    +0.000 C 
ATOM     18  O   UNL     1      -1.067  12.669  17.874  0.00  0.00    +0.000 OA
ATOM     19  N   UNL     1      -2.643  11.674  19.193  0.00  0.00    +0.000 N 
ATOM     20  H   UNL     1      -2.916  11.430  20.140  0.00  0.00    +0.000 HD
BRANCH  19  21
ATOM     21  C   UNL     1      -3.164  10.807  18.143  0.00  0.00    +0.000 C 
ATOM     22  C   UNL     1      -3.910  11.595  17.071  0.00  0.00    +0.000 C 
ATOM     23  C   UNL     1      -3.910  10.672  15.865  0.00  0.00    +0.000 C 
ATOM     24  C   UNL     1      -2.614   9.874  15.959  0.00  0.00    +0.000 C 
ATOM     25  C   UNL     1      -2.085  10.050  17.380  0.00  0.00    +0.000 C 
ENDBRANCH  19  21
ENDBRANCH  16  17
BRANCH  16  26
ATOM     26  C   UNL     1       0.481  13.808  20.083  0.00  0.00    +0.000 C 
BRANCH  26  27
ATOM     27  C   UNL     1       1.260  14.198  21.331  0.00  0.00    +0.000 C 
BRANCH  27  29
ATOM     28  C   UNL     1       3.024  13.983  19.259  0.00  0.00    +0.000 C 
ATOM     29  S   UNL     1       3.051  14.247  21.048  0.00  0.00    +0.000 S 
ENDBRANCH  27  29
ENDBRANCH  26  27
ENDBRANCH  16  26
ENDBRANCH   1  16
TORSDOF 7
ENDMDL
MODEL 9
REMARK VINA RESULT:      -6.4      4.984      9.233
REMARK  Name = 
REMARK  8 active torsions:
REMARK  status: ('A' for Active; 'I' for Inactive)
REMARK    1  A    between atoms: C_1  and  S_2
REMARK    2  A    between atoms: S_2  and  C_3
REMARK    3  A    between atoms: C_3  and  C_4
REMARK    4  A    between atoms: C_4  and  C_5
REMARK    5  A    between atoms: C_5  and  C_6
REMARK    6  A    between atoms: C_5  and  N_14
REMARK    7  A    between atoms: N_8  and  C_9
REMARK    8  A    between atoms: C_15  and  C_16
REMARK                            x       y       z     vdW  Elec       q    Type
REMARK                         _______ _______ _______ _____ _____    ______ ____
ROOT
ATOM      1  N   UNL     1      -0.262  10.762  19.878  0.00  0.00    +0.000 N 
ATOM      2  C   UNL     1       0.417   9.641  20.372  0.00  0.00    +0.000 A 
ATOM      3  N   UNL     1       0.152   9.526  21.668  0.00  0.00    +0.000 NA
ATOM      4  C   UNL     1      -0.710  10.539  22.010  0.00  0.00    +0.000 A 
ATOM      5  C   UNL     1      -1.272  10.865  23.257  0.00  0.00    +0.000 A 
ATOM      6  C   UNL     1      -2.136  11.964  23.350  0.00  0.00    +0.000 A 
ATOM      7  C   UNL     1      -2.440  12.726  22.223  0.00  0.00    +0.000 A 
ATOM      8  C   UNL     1      -1.883  12.417  20.977  0.00  0.00    +0.000 A 
ATOM      9  C   UNL     1      -1.008  11.323  20.905  0.00  0.00    +0.000 A 
ENDROOT
BRANCH   2  10
ATOM     10  C   UNL     1       1.368   8.758  19.665  0.00  0.00    +0.000 A 
ATOM     11  C   UNL     1       1.760   9.070  18.360  0.00  0.00    +0.000 A 
ATOM     12  C   UNL     1       2.580   8.191  17.661  0.00  0.00    +0.000 A 
ATOM     13  N   UNL     1       3.030   7.020  18.156  0.00  0.00    +0.000 NA
ATOM     14  C   UNL     1       2.690   6.744  19.422  0.00  0.00    +0.000 A 
ATOM     15  C   UNL     1       1.913   7.587  20.195  0.00  0.00    +0.000 A 
ENDBRANCH   2  10
BRANCH   1  16
ATOM     16  C   UNL     1      -0.203  11.355  18.526  0.00  0.00    +0.000 C 
BRANCH  16  17
ATOM     17  C   UNL     1       0.488  12.729  18.532  0.00  0.00    +0.000 C 
ATOM     18  O   UNL     1      -0.119  13.768  18.279  0.00  0.00    +0.000 OA
ATOM     19  N   UNL     1       1.838  12.748  18.866  0.00  0.00    +0.000 N 
ATOM     20  H   UNL     1       2.278  11.887  19.174  0.00  0.00    +0.000 HD
BRANCH  19  21
ATOM     21  C   UNL     1       2.514  13.979  19.257  0.00  0.00    +0.000 C 
ATOM     22  C   UNL     1       3.109  13.881  20.658  0.00  0.00    +0.000 C 
ATOM     23  C   UNL     1       4.169  14.968  20.688  0.00  0.00    +0.000 C 
ATOM     24  C   UNL     1       4.695  15.067  19.261  0.00  0.00    +0.000 C 
ATOM     25  C   UNL     1       3.694  14.342  18.365  0.00  0.00    +0.000 C 
ENDBRANCH  19  21
ENDBRANCH  16  17
BRANCH  16  26
ATOM     26  C   UNL     1      -1.602  11.260  17.877  0.00  0.00    +0.000 C 
BRANCH  26  27
ATOM     27  C   UNL     1      -1.923  10.024  17.047  0.00  0.00    +0.000 C 
BRANCH  27  29
ATOM     28  C   UNL     1      -4.265  11.276  16.410  0.00  0.00    +0.000 C 
ATOM     29  S   UNL     1      -2.913  10.409  15.577  0.00  0.00    +0.000 S 
ENDBRANCH  27  29
ENDBRANCH  26  27
ENDBRANCH  16  26
ENDBRANCH   1  16
TORSDOF 7
ENDMDL
