MODEL 1
REMARK VINA RESULT:      -7.8      0.000      0.000
REMARK  Name = 
REMARK  4 active torsions:
REMARK  status: ('A' for Active; 'I' for Inactive)
REMARK    1  A    between atoms: C_2  and  C_11
REMARK    2  A    between atoms: N_3  and  C_4
REMARK    3  A    between atoms: C_4  and  C_5
REMARK    4  A    between atoms: C_11  and  C_13
REMARK                            x       y       z     vdW  Elec       q    Type
REMARK                         _______ _______ _______ _____ _____    ______ ____
ROOT
ATOM      1  C   UNL     1       2.589   4.752  17.904  0.00  0.00    +0.000 C 
ATOM      2  O   UNL     1       1.424   4.695  17.510  0.00  0.00    +0.000 OA
ENDROOT
BRANCH   1   3
ATOM      3  C   UNL     1       3.056   5.724  18.947  0.00  0.00    +0.000 C 
ATOM      4  C   UNL     1       2.570   5.364  20.349  0.00  0.00    +0.000 C 
ATOM      5  O   UNL     1       2.703   4.284  20.904  0.00  0.00    +0.000 OA
ATOM      6  N   UNL     1       1.927   6.475  20.874  0.00  0.00    +0.000 N 
ATOM      7  C   UNL     1       1.880   7.510  19.953  0.00  0.00    +0.000 A 
ATOM      8  C   UNL     1       1.256   8.730  20.100  0.00  0.00    +0.000 A 
ATOM      9  C   UNL     1       1.303   9.605  19.013  0.00  0.00    +0.000 A 
ATOM     10  C   UNL     1       2.005   9.259  17.844  0.00  0.00    +0.000 A 
ATOM     11  C   UNL     1       2.648   8.020  17.728  0.00  0.00    +0.000 A 
ATOM     12  C   UNL     1       2.544   7.134  18.786  0.00  0.00    +0.000 A 
ATOM     13  H   UNL     1       1.504   6.493  21.792  0.00  0.00    +0.000 HD
ENDBRANCH   1   3
BRANCH   1  15
ATOM     14  O   UNL     1       3.411   2.544  17.662  0.00  0.00    +0.000 OA
ATOM     15  C   UNL     1       3.583   3.722  17.377  0.00  0.00    +0.000 C 
ATOM     16  N   UNL     1       4.595   4.203  16.567  0.00  0.00    +0.000 N 
ATOM     17  H   UNL     1       4.725   5.207  16.469  0.00  0.00    +0.000 HD
BRANCH  16  18
ATOM     18  C   UNL     1       5.571   3.325  15.956  0.00  0.00    +0.000 C 
BRANCH  18  19
ATOM     19  C   UNL     1       6.253   3.956  14.773  0.00  0.00    +0.000 A 
ATOM     20  C   UNL     1       5.979   3.550  13.462  0.00  0.00    +0.000 A 
ATOM     21  C   UNL     1       6.651   4.144  12.394  0.00  0.00    +0.000 A 
ATOM     22  C   UNL     1       7.590   5.124  12.668  0.00  0.00    +0.000 A 
ATOM     23  N   UNL     1       7.900   5.529  13.919  0.00  0.00    +0.000 NA
ATOM     24  C   UNL     1       7.229   4.935  14.936  0.00  0.00    +0.000 A 
ENDBRANCH  18  19
ENDBRANCH  16  18
ENDBRANCH   1  15
TORSDOF 4
ENDMDL
MODEL 2
REMARK VINA RESULT:      -7.7      2.897      7.019
REMARK  Name = 
REMARK  4 active torsions:
REMARK  status: ('A' for Active; 'I' for Inactive)
REMARK    1  A    between atoms: C_2  and  C_11
REMARK    2  A    between atoms: N_3  and  C_4
REMARK    3  A    between atoms: C_4  and  C_5
REMARK    4  A    between atoms: C_11  and  C_13
REMARK                            x       y       z     vdW  Elec       q    Type
REMARK                         _______ _______ _______ _____ _____    ______ ____
ROOT
ATOM      1  C   UNL     1       4.595   5.530  16.620  0.00  0.00    +0.000 C 
ATOM      2  O   UNL     1       4.435   6.744  16.494  0.00  0.00    +0.000 OA
ENDROOT
BRANCH   1   3
ATOM      3  C   UNL     1       5.879   4.831  16.283  0.00  0.00    +0.000 C 
ATOM      4  C   UNL     1       7.108   5.703  16.528  0.00  0.00    +0.000 C 
ATOM      5  O   UNL     1       7.381   6.290  17.565  0.00  0.00    +0.000 OA
ATOM      6  N   UNL     1       7.849   5.733  15.358  0.00  0.00    +0.000 N 
ATOM      7  C   UNL     1       7.218   5.026  14.345  0.00  0.00    +0.000 A 
ATOM      8  C   UNL     1       7.623   4.905  13.034  0.00  0.00    +0.000 A 
ATOM      9  C   UNL     1       6.798   4.175  12.176  0.00  0.00    +0.000 A 
ATOM     10  C   UNL     1       5.631   3.556  12.660  0.00  0.00    +0.000 A 
ATOM     11  C   UNL     1       5.252   3.677  14.002  0.00  0.00    +0.000 A 
ATOM     12  C   UNL     1       6.043   4.453  14.832  0.00  0.00    +0.000 A 
ATOM     13  H   UNL     1       8.710   6.252  15.255  0.00  0.00    +0.000 HD
ENDBRANCH   1   3
BRANCH   1  15
ATOM     14  O   UNL     1       2.502   5.304  17.706  0.00  0.00    +0.000 OA
ATOM     15  C   UNL     1       3.466   4.711  17.238  0.00  0.00    +0.000 C 
ATOM     16  N   UNL     1       3.600   3.337  17.179  0.00  0.00    +0.000 N 
ATOM     17  H   UNL     1       4.479   2.931  16.869  0.00  0.00    +0.000 HD
BRANCH  16  18
ATOM     18  C   UNL     1       2.574   2.443  17.678  0.00  0.00    +0.000 C 
BRANCH  18  19
ATOM     19  C   UNL     1       2.413   2.527  19.171  0.00  0.00    +0.000 A 
ATOM     20  C   UNL     1       1.177   2.805  19.765  0.00  0.00    +0.000 A 
ATOM     21  C   UNL     1       1.075   2.898  21.152  0.00  0.00    +0.000 A 
ATOM     22  C   UNL     1       2.220   2.723  21.910  0.00  0.00    +0.000 A 
ATOM     23  N   UNL     1       3.436   2.476  21.377  0.00  0.00    +0.000 NA
ATOM     24  C   UNL     1       3.503   2.388  20.026  0.00  0.00    +0.000 A 
ENDBRANCH  18  19
ENDBRANCH  16  18
ENDBRANCH   1  15
TORSDOF 4
ENDMDL
MODEL 3
REMARK VINA RESULT:      -7.6      2.846      3.977
REMARK  Name = 
REMARK  4 active torsions:
REMARK  status: ('A' for Active; 'I' for Inactive)
REMARK    1  A    between atoms: C_2  and  C_11
REMARK    2  A    between atoms: N_3  and  C_4
REMARK    3  A    between atoms: C_4  and  C_5
REMARK    4  A    between atoms: C_11  and  C_13
REMARK                            x       y       z     vdW  Elec       q    Type
REMARK                         _______ _______ _______ _____ _____    ______ ____
ROOT
ATOM      1  C   UNL     1       4.496   6.636  17.925  0.00  0.00    +0.000 C 
ATOM      2  O   UNL     1       3.636   7.456  17.603  0.00  0.00    +0.000 OA
ENDROOT
BRANCH   1   3
ATOM      3  C   UNL     1       4.302   5.630  19.022  0.00  0.00    +0.000 C 
ATOM      4  C   UNL     1       5.586   4.880  19.368  0.00  0.00    +0.000 C 
ATOM      5  O   UNL     1       6.663   5.384  19.649  0.00  0.00    +0.000 OA
ATOM      6  N   UNL     1       5.320   3.522  19.286  0.00  0.00    +0.000 N 
ATOM      7  C   UNL     1       4.020   3.289  18.864  0.00  0.00    +0.000 A 
ATOM      8  C   UNL     1       3.435   2.070  18.598  0.00  0.00    +0.000 A 
ATOM      9  C   UNL     1       2.117   2.082  18.138  0.00  0.00    +0.000 A 
ATOM     10  C   UNL     1       1.416   3.295  18.005  0.00  0.00    +0.000 A 
ATOM     11  C   UNL     1       2.027   4.519  18.302  0.00  0.00    +0.000 A 
ATOM     12  C   UNL     1       3.353   4.502  18.698  0.00  0.00    +0.000 A 
ATOM     13  H   UNL     1       6.012   2.807  19.461  0.00  0.00    +0.000 HD
ENDBRANCH   1   3
BRANCH   1  15
ATOM     14  O   UNL     1       6.550   7.529  17.155  0.00  0.00    +0.000 OA
ATOM     15  C   UNL     1       5.782   6.576  17.108  0.00  0.00    +0.000 C 
ATOM     16  N   UNL     1       6.007   5.411  16.399  0.00  0.00    +0.000 N 
ATOM     17  H   UNL     1       5.269   4.715  16.331  0.00  0.00    +0.000 HD
BRANCH  16  18
ATOM     18  C   UNL     1       7.216   5.202  15.628  0.00  0.00    +0.000 C 
BRANCH  18  19
ATOM     19  C   UNL     1       6.936   4.651  14.256  0.00  0.00    +0.000 A 
ATOM     20  C   UNL     1       7.692   5.032  13.142  0.00  0.00    +0.000 A 
ATOM     21  C   UNL     1       7.385   4.517  11.884  0.00  0.00    +0.000 A 
ATOM     22  C   UNL     1       6.319   3.641  11.771  0.00  0.00    +0.000 A 
ATOM     23  N   UNL     1       5.551   3.265  12.817  0.00  0.00    +0.000 NA
ATOM     24  C   UNL     1       5.874   3.780  14.028  0.00  0.00    +0.000 A 
ENDBRANCH  18  19
ENDBRANCH  16  18
ENDBRANCH   1  15
TORSDOF 4
ENDMDL
MODEL 4
REMARK VINA RESULT:      -7.6      5.446      7.204
REMARK  Name = 
REMARK  4 active torsions:
REMARK  status: ('A' for Active; 'I' for Inactive)
REMARK    1  A    between atoms: C_2  and  C_11
REMARK    2  A    between atoms: N_3  and  C_4
REMARK    3  A    between atoms: C_4  and  C_5
REMARK    4  A    between atoms: C_11  and  C_13
REMARK                            x       y       z     vdW  Elec       q    Type
REMARK                         _______ _______ _______ _____ _____    ______ ____
ROOT
ATOM      1  C   UNL     1       7.038   6.985  17.257  0.00  0.00    +0.000 C 
ATOM      2  O   UNL     1       6.366   7.719  16.533  0.00  0.00    +0.000 OA
ENDROOT
BRANCH   1   3
ATOM      3  C   UNL     1       7.038   5.488  17.136  0.00  0.00    +0.000 C 
ATOM      4  C   UNL     1       6.911   5.012  15.691  0.00  0.00    +0.000 C 
ATOM      5  O   UNL     1       7.613   5.360  14.753  0.00  0.00    +0.000 OA
ATOM      6  N   UNL     1       5.843   4.131  15.625  0.00  0.00    +0.000 N 
ATOM      7  C   UNL     1       5.209   4.017  16.853  0.00  0.00    +0.000 A 
ATOM      8  C   UNL     1       4.072   3.294  17.142  0.00  0.00    +0.000 A 
ATOM      9  C   UNL     1       3.587   3.364  18.448  0.00  0.00    +0.000 A 
ATOM     10  C   UNL     1       4.270   4.107  19.429  0.00  0.00    +0.000 A 
ATOM     11  C   UNL     1       5.436   4.816  19.114  0.00  0.00    +0.000 A 
ATOM     12  C   UNL     1       5.877   4.792  17.802  0.00  0.00    +0.000 A 
ATOM     13  H   UNL     1       5.544   3.680  14.772  0.00  0.00    +0.000 HD
ENDBRANCH   1   3
BRANCH   1  15
ATOM     14  O   UNL     1       8.507   6.920  19.113  0.00  0.00    +0.000 OA
ATOM     15  C   UNL     1       7.989   7.629  18.260  0.00  0.00    +0.000 C 
ATOM     16  N   UNL     1       8.231   8.980  18.098  0.00  0.00    +0.000 N 
ATOM     17  H   UNL     1       7.678   9.512  17.431  0.00  0.00    +0.000 HD
BRANCH  16  18
ATOM     18  C   UNL     1       9.157   9.701  18.947  0.00  0.00    +0.000 C 
BRANCH  18  19
ATOM     19  C   UNL     1       9.588  11.012  18.346  0.00  0.00    +0.000 A 
ATOM     20  C   UNL     1      10.925  11.266  18.018  0.00  0.00    +0.000 A 
ATOM     21  C   UNL     1      11.287  12.503  17.486  0.00  0.00    +0.000 A 
ATOM     22  C   UNL     1      10.302  13.459  17.306  0.00  0.00    +0.000 A 
ATOM     23  N   UNL     1       9.005  13.261  17.630  0.00  0.00    +0.000 NA
ATOM     24  C   UNL     1       8.682  12.049  18.143  0.00  0.00    +0.000 A 
ENDBRANCH  18  19
ENDBRANCH  16  18
ENDBRANCH   1  15
TORSDOF 4
ENDMDL
MODEL 5
REMARK VINA RESULT:      -7.6      2.283      6.628
REMARK  Name = 
REMARK  4 active torsions:
REMARK  status: ('A' for Active; 'I' for Inactive)
REMARK    1  A    between atoms: C_2  and  C_11
REMARK    2  A    between atoms: N_3  and  C_4
REMARK    3  A    between atoms: C_4  and  C_5
REMARK    4  A    between atoms: C_11  and  C_13
REMARK                            x       y       z     vdW  Elec       q    Type
REMARK                         _______ _______ _______ _____ _____    ______ ____
ROOT
ATOM      1  C   UNL     1       2.386   4.537  17.994  0.00  0.00    +0.000 C 
ATOM      2  O   UNL     1       1.254   4.244  17.613  0.00  0.00    +0.000 OA
ENDROOT
BRANCH   1   3
ATOM      3  C   UNL     1       3.568   3.624  17.840  0.00  0.00    +0.000 C 
ATOM      4  C   UNL     1       4.149   3.179  19.180  0.00  0.00    +0.000 C 
ATOM      5  O   UNL     1       3.529   2.669  20.102  0.00  0.00    +0.000 OA
ATOM      6  N   UNL     1       5.502   3.478  19.178  0.00  0.00    +0.000 N 
ATOM      7  C   UNL     1       5.871   4.127  18.009  0.00  0.00    +0.000 A 
ATOM      8  C   UNL     1       7.111   4.638  17.693  0.00  0.00    +0.000 A 
ATOM      9  C   UNL     1       7.238   5.295  16.468  0.00  0.00    +0.000 A 
ATOM     10  C   UNL     1       6.146   5.379  15.584  0.00  0.00    +0.000 A 
ATOM     11  C   UNL     1       4.901   4.832  15.920  0.00  0.00    +0.000 A 
ATOM     12  C   UNL     1       4.768   4.237  17.162  0.00  0.00    +0.000 A 
ATOM     13  H   UNL     1       6.117   3.290  19.957  0.00  0.00    +0.000 HD
ENDBRANCH   1   3
BRANCH   1  15
ATOM     14  O   UNL     1       3.007   6.032  19.723  0.00  0.00    +0.000 OA
ATOM     15  C   UNL     1       2.620   5.932  18.566  0.00  0.00    +0.000 C 
ATOM     16  N   UNL     1       2.416   6.992  17.703  0.00  0.00    +0.000 N 
ATOM     17  H   UNL     1       1.993   6.824  16.794  0.00  0.00    +0.000 HD
BRANCH  16  18
ATOM     18  C   UNL     1       2.656   8.364  18.102  0.00  0.00    +0.000 C 
BRANCH  18  19
ATOM     19  C   UNL     1       1.428   9.023  18.668  0.00  0.00    +0.000 A 
ATOM     20  C   UNL     1       0.510   9.694  17.851  0.00  0.00    +0.000 A 
ATOM     21  C   UNL     1      -0.603  10.312  18.418  0.00  0.00    +0.000 A 
ATOM     22  C   UNL     1      -0.763  10.254  19.792  0.00  0.00    +0.000 A 
ATOM     23  N   UNL     1       0.110   9.636  20.618  0.00  0.00    +0.000 NA
ATOM     24  C   UNL     1       1.182   9.042  20.038  0.00  0.00    +0.000 A 
ENDBRANCH  18  19
ENDBRANCH  16  18
ENDBRANCH   1  15
TORSDOF 4
ENDMDL
MODEL 6
REMARK VINA RESULT:      -7.6      2.517      4.007
REMARK  Name = 
REMARK  4 active torsions:
REMARK  status: ('A' for Active; 'I' for Inactive)
REMARK    1  A    between atoms: C_2  and  C_11
REMARK    2  A    between atoms: N_3  and  C_4
REMARK    3  A    between atoms: C_4  and  C_5
REMARK    4  A    between atoms: C_11  and  C_13
REMARK                            x       y       z     vdW  Elec       q    Type
REMARK                         _______ _______ _______ _____ _____    ______ ____
ROOT
ATOM      1  C   UNL     1       5.633   4.525  17.654  0.00  0.00    +0.000 C 
ATOM      2  O   UNL     1       6.081   4.368  18.790  0.00  0.00    +0.000 OA
ENDROOT
BRANCH   1   3
ATOM      3  C   UNL     1       4.182   4.788  17.373  0.00  0.00    +0.000 C 
ATOM      4  C   UNL     1       3.742   6.185  17.802  0.00  0.00    +0.000 C 
ATOM      5  O   UNL     1       4.276   7.238  17.486  0.00  0.00    +0.000 OA
ATOM      6  N   UNL     1       2.641   6.048  18.633  0.00  0.00    +0.000 N 
ATOM      7  C   UNL     1       2.340   4.713  18.852  0.00  0.00    +0.000 A 
ATOM      8  C   UNL     1       1.365   4.202  19.681  0.00  0.00    +0.000 A 
ATOM      9  C   UNL     1       1.274   2.812  19.778  0.00  0.00    +0.000 A 
ATOM     10  C   UNL     1       2.119   1.984  19.016  0.00  0.00    +0.000 A 
ATOM     11  C   UNL     1       3.089   2.529  18.165  0.00  0.00    +0.000 A 
ATOM     12  C   UNL     1       3.213   3.906  18.122  0.00  0.00    +0.000 A 
ATOM     13  H   UNL     1       2.164   6.830  19.060  0.00  0.00    +0.000 HD
ENDBRANCH   1   3
BRANCH   1  15
ATOM     14  O   UNL     1       7.801   4.362  16.715  0.00  0.00    +0.000 OA
ATOM     15  C   UNL     1       6.612   4.547  16.485  0.00  0.00    +0.000 C 
ATOM     16  N   UNL     1       6.066   4.732  15.229  0.00  0.00    +0.000 N 
ATOM     17  H   UNL     1       5.085   4.983  15.141  0.00  0.00    +0.000 HD
BRANCH  16  18
ATOM     18  C   UNL     1       6.879   4.718  14.030  0.00  0.00    +0.000 C 
BRANCH  18  19
ATOM     19  C   UNL     1       6.301   3.839  12.954  0.00  0.00    +0.000 A 
ATOM     20  C   UNL     1       4.933   3.837  12.660  0.00  0.00    +0.000 A 
ATOM     21  C   UNL     1       4.435   2.989  11.672  0.00  0.00    +0.000 A 
ATOM     22  C   UNL     1       5.319   2.154  11.010  0.00  0.00    +0.000 A 
ATOM     23  N   UNL     1       6.642   2.109  11.279  0.00  0.00    +0.000 NA
ATOM     24  C   UNL     1       7.098   2.946  12.242  0.00  0.00    +0.000 A 
ENDBRANCH  18  19
ENDBRANCH  16  18
ENDBRANCH   1  15
TORSDOF 4
ENDMDL
MODEL 7
REMARK VINA RESULT:      -7.6      2.758      6.486
REMARK  Name = 
REMARK  4 active torsions:
REMARK  status: ('A' for Active; 'I' for Inactive)
REMARK    1  A    between atoms: C_2  and  C_11
REMARK    2  A    between atoms: N_3  and  C_4
REMARK    3  A    between atoms: C_4  and  C_5
REMARK    4  A    between atoms: C_11  and  C_13
REMARK                            x       y       z     vdW  Elec       q    Type
REMARK                         _______ _______ _______ _____ _____    ______ ____
ROOT
ATOM      1  C   UNL     1       2.070   4.100  17.960  0.00  0.00    +0.000 C 
ATOM      2  O   UNL     1       1.163   4.102  17.128  0.00  0.00    +0.000 OA
ENDROOT
BRANCH   1   3
ATOM      3  C   UNL     1       3.461   3.624  17.659  0.00  0.00    +0.000 C 
ATOM      4  C   UNL     1       4.040   2.751  18.769  0.00  0.00    +0.000 C 
ATOM      5  O   UNL     1       3.514   1.762  19.258  0.00  0.00    +0.000 OA
ATOM      6  N   UNL     1       5.260   3.292  19.144  0.00  0.00    +0.000 N 
ATOM      7  C   UNL     1       5.526   4.462  18.448  0.00  0.00    +0.000 A 
ATOM      8  C   UNL     1       6.603   5.305  18.613  0.00  0.00    +0.000 A 
ATOM      9  C   UNL     1       6.639   6.456  17.825  0.00  0.00    +0.000 A 
ATOM     10  C   UNL     1       5.633   6.704  16.872  0.00  0.00    +0.000 A 
ATOM     11  C   UNL     1       4.559   5.820  16.709  0.00  0.00    +0.000 A 
ATOM     12  C   UNL     1       4.500   4.713  17.537  0.00  0.00    +0.000 A 
ATOM     13  H   UNL     1       5.843   2.903  19.871  0.00  0.00    +0.000 HD
ENDBRANCH   1   3
BRANCH   1  15
ATOM     14  O   UNL     1       1.302   3.980  20.197  0.00  0.00    +0.000 OA
ATOM     15  C   UNL     1       1.793   4.699  19.336  0.00  0.00    +0.000 C 
ATOM     16  N   UNL     1       2.165   6.017  19.520  0.00  0.00    +0.000 N 
ATOM     17  H   UNL     1       2.467   6.569  18.721  0.00  0.00    +0.000 HD
BRANCH  16  18
ATOM     18  C   UNL     1       2.009   6.688  20.794  0.00  0.00    +0.000 C 
BRANCH  18  19
ATOM     19  C   UNL     1       1.559   8.115  20.642  0.00  0.00    +0.000 A 
ATOM     20  C   UNL     1       1.471   8.730  19.388  0.00  0.00    +0.000 A 
ATOM     21  C   UNL     1       1.073  10.063  19.293  0.00  0.00    +0.000 A 
ATOM     22  C   UNL     1       0.783  10.750  20.459  0.00  0.00    +0.000 A 
ATOM     23  N   UNL     1       0.876  10.201  21.689  0.00  0.00    +0.000 NA
ATOM     24  C   UNL     1       1.263   8.904  21.751  0.00  0.00    +0.000 A 
ENDBRANCH  18  19
ENDBRANCH  16  18
ENDBRANCH   1  15
TORSDOF 4
ENDMDL
MODEL 8
REMARK VINA RESULT:      -7.6      3.097      6.474
REMARK  Name = 
REMARK  4 active torsions:
REMARK  status: ('A' for Active; 'I' for Inactive)
REMARK    1  A    between atoms: C_2  and  C_11
REMARK    2  A    between atoms: N_3  and  C_4
REMARK    3  A    between atoms: C_4  and  C_5
REMARK    4  A    between atoms: C_11  and  C_13
REMARK                            x       y       z     vdW  Elec       q    Type
REMARK                         _______ _______ _______ _____ _____    ______ ____
ROOT
ATOM      1  C   UNL     1       5.409   4.989  18.943  0.00  0.00    +0.000 C 
ATOM      2  O   UNL     1       6.278   5.158  19.798  0.00  0.00    +0.000 OA
ENDROOT
BRANCH   1   3
ATOM      3  C   UNL     1       4.742   3.666  18.698  0.00  0.00    +0.000 C 
ATOM      4  C   UNL     1       4.393   3.444  17.229  0.00  0.00    +0.000 C 
ATOM      5  O   UNL     1       5.159   3.541  16.282  0.00  0.00    +0.000 OA
ATOM      6  N   UNL     1       3.043   3.135  17.155  0.00  0.00    +0.000 N 
ATOM      7  C   UNL     1       2.446   3.188  18.405  0.00  0.00    +0.000 A 
ATOM      8  C   UNL     1       1.111   3.015  18.701  0.00  0.00    +0.000 A 
ATOM      9  C   UNL     1       0.730   3.158  20.036  0.00  0.00    +0.000 A 
ATOM     10  C   UNL     1       1.690   3.420  21.031  0.00  0.00    +0.000 A 
ATOM     11  C   UNL     1       3.044   3.571  20.707  0.00  0.00    +0.000 A 
ATOM     12  C   UNL     1       3.404   3.489  19.373  0.00  0.00    +0.000 A 
ATOM     13  H   UNL     1       2.560   2.952  16.287  0.00  0.00    +0.000 HD
ENDBRANCH   1   3
BRANCH   1  15
ATOM     14  O   UNL     1       5.678   6.719  17.347  0.00  0.00    +0.000 OA
ATOM     15  C   UNL     1       4.919   6.202  18.158  0.00  0.00    +0.000 C 
ATOM     16  N   UNL     1       3.618   6.603  18.395  0.00  0.00    +0.000 N 
ATOM     17  H   UNL     1       3.096   6.184  19.160  0.00  0.00    +0.000 HD
BRANCH  16  18
ATOM     18  C   UNL     1       3.012   7.705  17.676  0.00  0.00    +0.000 C 
BRANCH  18  19
ATOM     19  C   UNL     1       2.058   8.495  18.530  0.00  0.00    +0.000 A 
ATOM     20  C   UNL     1       1.454   9.669  18.067  0.00  0.00    +0.000 A 
ATOM     21  C   UNL     1       0.594  10.384  18.899  0.00  0.00    +0.000 A 
ATOM     22  C   UNL     1       0.371   9.912  20.181  0.00  0.00    +0.000 A 
ATOM     23  N   UNL     1       0.951   8.796  20.674  0.00  0.00    +0.000 NA
ATOM     24  C   UNL     1       1.779   8.120  19.842  0.00  0.00    +0.000 A 
ENDBRANCH  18  19
ENDBRANCH  16  18
ENDBRANCH   1  15
TORSDOF 4
ENDMDL
MODEL 9
REMARK VINA RESULT:      -7.5      3.113      6.765
REMARK  Name = 
REMARK  4 active torsions:
REMARK  status: ('A' for Active; 'I' for Inactive)
REMARK    1  A    between atoms: C_2  and  C_11
REMARK    2  A    between atoms: N_3  and  C_4
REMARK    3  A    between atoms: C_4  and  C_5
REMARK    4  A    between atoms: C_11  and  C_13
REMARK                            x       y       z     vdW  Elec       q    Type
REMARK                         _______ _______ _______ _____ _____    ______ ____
ROOT
ATOM      1  C   UNL     1       5.181   5.141  18.909  0.00  0.00    +0.000 C 
ATOM      2  O   UNL     1       6.136   5.371  19.651  0.00  0.00    +0.000 OA
ENDROOT
BRANCH   1   3
ATOM      3  C   UNL     1       4.609   3.768  18.707  0.00  0.00    +0.000 C 
ATOM      4  C   UNL     1       4.289   3.472  17.244  0.00  0.00    +0.000 C 
ATOM      5  O   UNL     1       5.056   3.588  16.300  0.00  0.00    +0.000 OA
ATOM      6  N   UNL     1       2.965   3.068  17.172  0.00  0.00    +0.000 N 
ATOM      7  C   UNL     1       2.354   3.122  18.416  0.00  0.00    +0.000 A 
ATOM      8  C   UNL     1       1.032   2.867  18.709  0.00  0.00    +0.000 A 
ATOM      9  C   UNL     1       0.630   3.030  20.035  0.00  0.00    +0.000 A 
ATOM     10  C   UNL     1       1.560   3.392  21.027  0.00  0.00    +0.000 A 
ATOM     11  C   UNL     1       2.904   3.626  20.707  0.00  0.00    +0.000 A 
ATOM     12  C   UNL     1       3.281   3.522  19.379  0.00  0.00    +0.000 A 
ATOM     13  H   UNL     1       2.504   2.821  16.308  0.00  0.00    +0.000 HD
ENDBRANCH   1   3
BRANCH   1  15
ATOM     14  O   UNL     1       5.026   6.842  17.268  0.00  0.00    +0.000 OA
ATOM     15  C   UNL     1       4.486   6.321  18.236  0.00  0.00    +0.000 C 
ATOM     16  N   UNL     1       3.257   6.686  18.752  0.00  0.00    +0.000 N 
ATOM     17  H   UNL     1       2.934   6.269  19.621  0.00  0.00    +0.000 HD
BRANCH  16  18
ATOM     18  C   UNL     1       2.467   7.752  18.170  0.00  0.00    +0.000 C 
BRANCH  18  19
ATOM     19  C   UNL     1       1.684   8.517  19.202  0.00  0.00    +0.000 A 
ATOM     20  C   UNL     1       1.554   8.058  20.518  0.00  0.00    +0.000 A 
ATOM     21  C   UNL     1       0.799   8.785  21.437  0.00  0.00    +0.000 A 
ATOM     22  C   UNL     1       0.182   9.949  21.011  0.00  0.00    +0.000 A 
ATOM     23  N   UNL     1       0.265  10.416  19.746  0.00  0.00    +0.000 NA
ATOM     24  C   UNL     1       1.007   9.690  18.875  0.00  0.00    +0.000 A 
ENDBRANCH  18  19
ENDBRANCH  16  18
ENDBRANCH   1  15
TORSDOF 4
ENDMDL
