MODEL 1
REMARK VINA RESULT:      -7.3      0.000      0.000
REMARK  Name = 
REMARK  9 active torsions:
REMARK  status: ('A' for Active; 'I' for Inactive)
REMARK    1  A    between atoms: C_1  and  C_2
REMARK    2  A    between atoms: C_2  and  N_3
REMARK    3  A    between atoms: N_3  and  C_4
REMARK    4  A    between atoms: N_3  and  C_6
REMARK    5  A    between atoms: C_4  and  C_5
REMARK    6  A    between atoms: C_11  and  C_12
REMARK    7  A    between atoms: N_14  and  C_15
REMARK    8  A    between atoms: C_15  and  C_16
REMARK    9  A    between atoms: C_16  and  O_17
REMARK                            x       y       z     vdW  Elec       q    Type
REMARK                         _______ _______ _______ _____ _____    ______ ____
ROOT
ATOM      1  C   UNL     1       2.838   4.731  19.403  0.00  0.00    +0.000 A 
ATOM      2  C   UNL     1       2.394   3.922  18.333  0.00  0.00    +0.000 A 
ATOM      3  C   UNL     1       3.094   3.804  17.123  0.00  0.00    +0.000 A 
ATOM      4  C   UNL     1       4.275   4.505  16.935  0.00  0.00    +0.000 A 
ATOM      5  C   UNL     1       5.068   4.382  15.729  0.00  0.00    +0.000 A 
ATOM      6  C   UNL     1       6.205   5.082  15.585  0.00  0.00    +0.000 A 
ATOM      7  C   UNL     1       6.655   6.011  16.646  0.00  0.00    +0.000 A 
ATOM      8  O   UNL     1       7.666   6.697  16.517  0.00  0.00    +0.000 OA
ATOM      9  O   UNL     1       5.892   6.083  17.807  0.00  0.00    +0.000 OA
ATOM     10  C   UNL     1       4.712   5.333  17.956  0.00  0.00    +0.000 A 
ATOM     11  C   UNL     1       4.017   5.455  19.164  0.00  0.00    +0.000 A 
ENDROOT
BRANCH   6  12
ATOM     12  C   UNL     1       6.969   4.858  14.317  0.00  0.00    +0.000 C 
ATOM     13  O   UNL     1       8.055   5.396  14.112  0.00  0.00    +0.000 OA
ATOM     14  N   UNL     1       6.382   4.026  13.400  0.00  0.00    +0.000 N 
ATOM     15  H   UNL     1       5.487   3.589  13.620  0.00  0.00    +0.000 HD
BRANCH  14  16
ATOM     16  C   UNL     1       6.980   3.750  12.105  0.00  0.00    +0.000 C 
BRANCH  16  17
ATOM     17  C   UNL     1       6.616   2.358  11.591  0.00  0.00    +0.000 C 
BRANCH  17  18
ATOM     18  O   UNL     1       5.200   2.224  11.485  0.00  0.00    +0.000 OA
ATOM     19  H   UNL     1       4.939   1.559  12.147  0.00  0.00    +0.000 HD
ENDBRANCH  17  18
ENDBRANCH  16  17
ENDBRANCH  14  16
ENDBRANCH   6  12
BRANCH   1  20
ATOM     20  N   UNL     1       2.154   4.780  20.628  0.00  0.00    +0.000 N 
BRANCH  20  22
ATOM     21  C   UNL     1       1.441   2.624  21.614  0.00  0.00    +0.000 C 
ATOM     22  C   UNL     1       2.426   3.786  21.675  0.00  0.00    +0.000 C 
ENDBRANCH  20  22
BRANCH  20  23
ATOM     23  C   UNL     1       1.303   5.954  20.900  0.00  0.00    +0.000 C 
ATOM     24  C   UNL     1       1.831   7.310  20.466  0.00  0.00    +0.000 C 
ENDBRANCH  20  23
ENDBRANCH   1  20
TORSDOF 7
ENDMDL
MODEL 2
REMARK VINA RESULT:      -7.2      0.464      1.694
REMARK  Name = 
REMARK  9 active torsions:
REMARK  status: ('A' for Active; 'I' for Inactive)
REMARK    1  A    between atoms: C_1  and  C_2
REMARK    2  A    between atoms: C_2  and  N_3
REMARK    3  A    between atoms: N_3  and  C_4
REMARK    4  A    between atoms: N_3  and  C_6
REMARK    5  A    between atoms: C_4  and  C_5
REMARK    6  A    between atoms: C_11  and  C_12
REMARK    7  A    between atoms: N_14  and  C_15
REMARK    8  A    between atoms: C_15  and  C_16
REMARK    9  A    between atoms: C_16  and  O_17
REMARK                            x       y       z     vdW  Elec       q    Type
REMARK                         _______ _______ _______ _____ _____    ______ ____
ROOT
ATOM      1  C   UNL     1       2.951   4.603  19.292  0.00  0.00    +0.000 A 
ATOM      2  C   UNL     1       2.463   3.775  18.257  0.00  0.00    +0.000 A 
ATOM      3  C   UNL     1       3.114   3.630  17.022  0.00  0.00    +0.000 A 
ATOM      4  C   UNL     1       4.290   4.322  16.774  0.00  0.00    +0.000 A 
ATOM      5  C   UNL     1       5.034   4.172  15.541  0.00  0.00    +0.000 A 
ATOM      6  C   UNL     1       6.167   4.864  15.338  0.00  0.00    +0.000 A 
ATOM      7  C   UNL     1       6.661   5.812  16.362  0.00  0.00    +0.000 A 
ATOM      8  O   UNL     1       7.669   6.491  16.179  0.00  0.00    +0.000 OA
ATOM      9  O   UNL     1       5.945   5.910  17.550  0.00  0.00    +0.000 OA
ATOM     10  C   UNL     1       4.769   5.168  17.760  0.00  0.00    +0.000 A 
ATOM     11  C   UNL     1       4.122   5.317  18.992  0.00  0.00    +0.000 A 
ENDROOT
BRANCH   6  12
ATOM     12  C   UNL     1       6.879   4.611  14.045  0.00  0.00    +0.000 C 
ATOM     13  O   UNL     1       7.839   5.292  13.693  0.00  0.00    +0.000 OA
ATOM     14  N   UNL     1       6.393   3.584  13.281  0.00  0.00    +0.000 N 
ATOM     15  H   UNL     1       5.603   3.035  13.622  0.00  0.00    +0.000 HD
BRANCH  14  16
ATOM     16  C   UNL     1       6.950   3.249  11.982  0.00  0.00    +0.000 C 
BRANCH  16  17
ATOM     17  C   UNL     1       6.013   2.359  11.168  0.00  0.00    +0.000 C 
BRANCH  17  18
ATOM     18  O   UNL     1       6.053   1.019  11.658  0.00  0.00    +0.000 OA
ATOM     19  H   UNL     1       5.962   1.080  12.625  0.00  0.00    +0.000 HD
ENDBRANCH  17  18
ENDBRANCH  16  17
ENDBRANCH  14  16
ENDBRANCH   6  12
BRANCH   1  20
ATOM     20  N   UNL     1       2.316   4.679  20.541  0.00  0.00    +0.000 N 
BRANCH  20  22
ATOM     21  C   UNL     1       1.930   7.123  20.613  0.00  0.00    +0.000 C 
ATOM     22  C   UNL     1       1.333   5.735  20.816  0.00  0.00    +0.000 C 
ENDBRANCH  20  22
BRANCH  20  23
ATOM     23  C   UNL     1       2.522   3.570  21.492  0.00  0.00    +0.000 C 
ATOM     24  C   UNL     1       1.369   2.601  21.689  0.00  0.00    +0.000 C 
ENDBRANCH  20  23
ENDBRANCH   1  20
TORSDOF 7
ENDMDL
MODEL 3
REMARK VINA RESULT:      -7.1      2.980      4.752
REMARK  Name = 
REMARK  9 active torsions:
REMARK  status: ('A' for Active; 'I' for Inactive)
REMARK    1  A    between atoms: C_1  and  C_2
REMARK    2  A    between atoms: C_2  and  N_3
REMARK    3  A    between atoms: N_3  and  C_4
REMARK    4  A    between atoms: N_3  and  C_6
REMARK    5  A    between atoms: C_4  and  C_5
REMARK    6  A    between atoms: C_11  and  C_12
REMARK    7  A    between atoms: N_14  and  C_15
REMARK    8  A    between atoms: C_15  and  C_16
REMARK    9  A    between atoms: C_16  and  O_17
REMARK                            x       y       z     vdW  Elec       q    Type
REMARK                         _______ _______ _______ _____ _____    ______ ____
ROOT
ATOM      1  C   UNL     1       1.084   9.161  19.939  0.00  0.00    +0.000 A 
ATOM      2  C   UNL     1       1.473   9.573  18.645  0.00  0.00    +0.000 A 
ATOM      3  C   UNL     1       2.299   8.801  17.814  0.00  0.00    +0.000 A 
ATOM      4  C   UNL     1       2.778   7.578  18.257  0.00  0.00    +0.000 A 
ATOM      5  C   UNL     1       3.590   6.714  17.425  0.00  0.00    +0.000 A 
ATOM      6  C   UNL     1       4.037   5.538  17.893  0.00  0.00    +0.000 A 
ATOM      7  C   UNL     1       3.729   5.114  19.278  0.00  0.00    +0.000 A 
ATOM      8  O   UNL     1       4.167   4.065  19.744  0.00  0.00    +0.000 OA
ATOM      9  O   UNL     1       2.919   5.947  20.042  0.00  0.00    +0.000 OA
ATOM     10  C   UNL     1       2.441   7.169  19.537  0.00  0.00    +0.000 A 
ATOM     11  C   UNL     1       1.618   7.936  20.369  0.00  0.00    +0.000 A 
ENDROOT
BRANCH   6  12
ATOM     12  C   UNL     1       4.840   4.704  16.943  0.00  0.00    +0.000 C 
ATOM     13  O   UNL     1       4.404   3.654  16.478  0.00  0.00    +0.000 OA
ATOM     14  N   UNL     1       6.086   5.179  16.631  0.00  0.00    +0.000 N 
ATOM     15  H   UNL     1       6.400   6.065  17.028  0.00  0.00    +0.000 HD
BRANCH  14  16
ATOM     16  C   UNL     1       6.998   4.458  15.759  0.00  0.00    +0.000 C 
BRANCH  16  17
ATOM     17  C   UNL     1       6.775   4.800  14.287  0.00  0.00    +0.000 C 
BRANCH  17  18
ATOM     18  O   UNL     1       5.768   3.956  13.730  0.00  0.00    +0.000 OA
ATOM     19  H   UNL     1       5.073   4.548  13.391  0.00  0.00    +0.000 HD
ENDBRANCH  17  18
ENDBRANCH  16  17
ENDBRANCH  14  16
ENDBRANCH   6  12
BRANCH   1  20
ATOM     20  N   UNL     1       0.203   9.921  20.725  0.00  0.00    +0.000 N 
BRANCH  20  22
ATOM     21  C   UNL     1      -1.489  11.397  19.681  0.00  0.00    +0.000 C 
ATOM     22  C   UNL     1      -0.124  11.305  20.354  0.00  0.00    +0.000 C 
ENDBRANCH  20  22
BRANCH  20  23
ATOM     23  C   UNL     1      -0.522   9.237  21.812  0.00  0.00    +0.000 C 
ATOM     24  C   UNL     1      -0.120   9.577  23.237  0.00  0.00    +0.000 C 
ENDBRANCH  20  23
ENDBRANCH   1  20
TORSDOF 7
ENDMDL
MODEL 4
REMARK VINA RESULT:      -7.1      2.583      3.887
REMARK  Name = 
REMARK  9 active torsions:
REMARK  status: ('A' for Active; 'I' for Inactive)
REMARK    1  A    between atoms: C_1  and  C_2
REMARK    2  A    between atoms: C_2  and  N_3
REMARK    3  A    between atoms: N_3  and  C_4
REMARK    4  A    between atoms: N_3  and  C_6
REMARK    5  A    between atoms: C_4  and  C_5
REMARK    6  A    between atoms: C_11  and  C_12
REMARK    7  A    between atoms: N_14  and  C_15
REMARK    8  A    between atoms: C_15  and  C_16
REMARK    9  A    between atoms: C_16  and  O_17
REMARK                            x       y       z     vdW  Elec       q    Type
REMARK                         _______ _______ _______ _____ _____    ______ ____
ROOT
ATOM      1  C   UNL     1       1.385   8.552  19.631  0.00  0.00    +0.000 A 
ATOM      2  C   UNL     1       1.799   9.062  18.381  0.00  0.00    +0.000 A 
ATOM      3  C   UNL     1       2.773   8.438  17.586  0.00  0.00    +0.000 A 
ATOM      4  C   UNL     1       3.379   7.270  18.023  0.00  0.00    +0.000 A 
ATOM      5  C   UNL     1       4.351   6.554  17.224  0.00  0.00    +0.000 A 
ATOM      6  C   UNL     1       4.918   5.427  17.686  0.00  0.00    +0.000 A 
ATOM      7  C   UNL     1       4.579   4.913  19.031  0.00  0.00    +0.000 A 
ATOM      8  O   UNL     1       5.120   3.911  19.494  0.00  0.00    +0.000 OA
ATOM      9  O   UNL     1       3.618   5.602  19.762  0.00  0.00    +0.000 OA
ATOM     10  C   UNL     1       3.016   6.771  19.263  0.00  0.00    +0.000 A 
ATOM     11  C   UNL     1       2.047   7.390  20.059  0.00  0.00    +0.000 A 
ENDROOT
BRANCH   6  12
ATOM     12  C   UNL     1       5.885   4.744  16.768  0.00  0.00    +0.000 C 
ATOM     13  O   UNL     1       7.015   4.432  17.136  0.00  0.00    +0.000 OA
ATOM     14  N   UNL     1       5.436   4.495  15.498  0.00  0.00    +0.000 N 
ATOM     15  H   UNL     1       4.483   4.757  15.242  0.00  0.00    +0.000 HD
BRANCH  14  16
ATOM     16  C   UNL     1       6.274   3.880  14.483  0.00  0.00    +0.000 C 
BRANCH  16  17
ATOM     17  C   UNL     1       5.528   3.685  13.165  0.00  0.00    +0.000 C 
BRANCH  17  18
ATOM     18  O   UNL     1       6.270   2.829  12.297  0.00  0.00    +0.000 OA
ATOM     19  H   UNL     1       5.613   2.314  11.796  0.00  0.00    +0.000 HD
ENDBRANCH  17  18
ENDBRANCH  16  17
ENDBRANCH  14  16
ENDBRANCH   6  12
BRANCH   1  20
ATOM     20  N   UNL     1       0.362   9.160  20.376  0.00  0.00    +0.000 N 
BRANCH  20  22
ATOM     21  C   UNL     1      -0.088   9.379  22.801  0.00  0.00    +0.000 C 
ATOM     22  C   UNL     1      -0.193   8.495  21.563  0.00  0.00    +0.000 C 
ENDBRANCH  20  22
BRANCH  20  23
ATOM     23  C   UNL     1      -0.004  10.551  20.047  0.00  0.00    +0.000 C 
ATOM     24  C   UNL     1      -1.304  10.767  19.293  0.00  0.00    +0.000 C 
ENDBRANCH  20  23
ENDBRANCH   1  20
TORSDOF 7
ENDMDL
MODEL 5
REMARK VINA RESULT:      -7.0      2.603      4.232
REMARK  Name = 
REMARK  9 active torsions:
REMARK  status: ('A' for Active; 'I' for Inactive)
REMARK    1  A    between atoms: C_1  and  C_2
REMARK    2  A    between atoms: C_2  and  N_3
REMARK    3  A    between atoms: N_3  and  C_4
REMARK    4  A    between atoms: N_3  and  C_6
REMARK    5  A    between atoms: C_4  and  C_5
REMARK    6  A    between atoms: C_11  and  C_12
REMARK    7  A    between atoms: N_14  and  C_15
REMARK    8  A    between atoms: C_15  and  C_16
REMARK    9  A    between atoms: C_16  and  O_17
REMARK                            x       y       z     vdW  Elec       q    Type
REMARK                         _______ _______ _______ _____ _____    ______ ____
ROOT
ATOM      1  C   UNL     1       1.153   8.652  19.800  0.00  0.00    +0.000 A 
ATOM      2  C   UNL     1       1.621   9.169  18.571  0.00  0.00    +0.000 A 
ATOM      3  C   UNL     1       2.599   8.528  17.796  0.00  0.00    +0.000 A 
ATOM      4  C   UNL     1       3.157   7.335  18.231  0.00  0.00    +0.000 A 
ATOM      5  C   UNL     1       4.131   6.602  17.450  0.00  0.00    +0.000 A 
ATOM      6  C   UNL     1       4.649   5.452  17.910  0.00  0.00    +0.000 A 
ATOM      7  C   UNL     1       4.253   4.927  19.236  0.00  0.00    +0.000 A 
ATOM      8  O   UNL     1       4.750   3.902  19.699  0.00  0.00    +0.000 OA
ATOM      9  O   UNL     1       3.291   5.634  19.949  0.00  0.00    +0.000 OA
ATOM     10  C   UNL     1       2.741   6.828  19.451  0.00  0.00    +0.000 A 
ATOM     11  C   UNL     1       1.766   7.464  20.228  0.00  0.00    +0.000 A 
ENDROOT
BRANCH   6  12
ATOM     12  C   UNL     1       5.623   4.754  17.011  0.00  0.00    +0.000 C 
ATOM     13  O   UNL     1       6.783   4.542  17.356  0.00  0.00    +0.000 OA
ATOM     14  N   UNL     1       5.144   4.374  15.785  0.00  0.00    +0.000 N 
ATOM     15  H   UNL     1       4.168   4.556  15.549  0.00  0.00    +0.000 HD
BRANCH  14  16
ATOM     16  C   UNL     1       5.981   3.728  14.789  0.00  0.00    +0.000 C 
BRANCH  16  17
ATOM     17  C   UNL     1       6.664   4.740  13.871  0.00  0.00    +0.000 C 
BRANCH  17  18
ATOM     18  O   UNL     1       7.754   5.366  14.548  0.00  0.00    +0.000 OA
ATOM     19  H   UNL     1       8.559   5.109  14.063  0.00  0.00    +0.000 HD
ENDBRANCH  17  18
ENDBRANCH  16  17
ENDBRANCH  14  16
ENDBRANCH   6  12
BRANCH   1  20
ATOM     20  N   UNL     1       0.126   9.278  20.523  0.00  0.00    +0.000 N 
BRANCH  20  22
ATOM     21  C   UNL     1       0.197   9.389  22.995  0.00  0.00    +0.000 C 
ATOM     22  C   UNL     1      -0.377   8.687  21.770  0.00  0.00    +0.000 C 
ENDBRANCH  20  22
BRANCH  20  23
ATOM     23  C   UNL     1      -0.297  10.627  20.100  0.00  0.00    +0.000 C 
ATOM     24  C   UNL     1       0.548  11.799  20.569  0.00  0.00    +0.000 C 
ENDBRANCH  20  23
ENDBRANCH   1  20
TORSDOF 7
ENDMDL
MODEL 6
REMARK VINA RESULT:      -7.0      5.859     10.291
REMARK  Name = 
REMARK  9 active torsions:
REMARK  status: ('A' for Active; 'I' for Inactive)
REMARK    1  A    between atoms: C_1  and  C_2
REMARK    2  A    between atoms: C_2  and  N_3
REMARK    3  A    between atoms: N_3  and  C_4
REMARK    4  A    between atoms: N_3  and  C_6
REMARK    5  A    between atoms: C_4  and  C_5
REMARK    6  A    between atoms: C_11  and  C_12
REMARK    7  A    between atoms: N_14  and  C_15
REMARK    8  A    between atoms: C_15  and  C_16
REMARK    9  A    between atoms: C_16  and  O_17
REMARK                            x       y       z     vdW  Elec       q    Type
REMARK                         _______ _______ _______ _____ _____    ______ ____
ROOT
ATOM      1  C   UNL     1       2.313   7.567  18.675  0.00  0.00    +0.000 A 
ATOM      2  C   UNL     1       1.846   8.651  17.898  0.00  0.00    +0.000 A 
ATOM      3  C   UNL     1       1.155   9.742  18.448  0.00  0.00    +0.000 A 
ATOM      4  C   UNL     1       0.898   9.784  19.809  0.00  0.00    +0.000 A 
ATOM      5  C   UNL     1       0.237  10.908  20.440  0.00  0.00    +0.000 A 
ATOM      6  C   UNL     1       0.004  10.908  21.763  0.00  0.00    +0.000 A 
ATOM      7  C   UNL     1       0.395   9.748  22.595  0.00  0.00    +0.000 A 
ATOM      8  O   UNL     1       0.149   9.705  23.798  0.00  0.00    +0.000 OA
ATOM      9  O   UNL     1       1.059   8.699  21.968  0.00  0.00    +0.000 OA
ATOM     10  C   UNL     1       1.315   8.715  20.586  0.00  0.00    +0.000 A 
ATOM     11  C   UNL     1       2.002   7.625  20.042  0.00  0.00    +0.000 A 
ENDROOT
BRANCH   6  12
ATOM     12  C   UNL     1      -0.655  12.132  22.322  0.00  0.00    +0.000 C 
ATOM     13  O   UNL     1      -0.104  13.230  22.297  0.00  0.00    +0.000 OA
ATOM     14  N   UNL     1      -1.898  11.950  22.867  0.00  0.00    +0.000 N 
ATOM     15  H   UNL     1      -2.322  11.022  22.851  0.00  0.00    +0.000 HD
BRANCH  14  16
ATOM     16  C   UNL     1      -2.641  13.033  23.489  0.00  0.00    +0.000 C 
BRANCH  16  17
ATOM     17  C   UNL     1      -3.963  12.554  24.084  0.00  0.00    +0.000 C 
BRANCH  17  18
ATOM     18  O   UNL     1      -4.907  12.292  23.046  0.00  0.00    +0.000 OA
ATOM     19  H   UNL     1      -4.674  12.884  22.310  0.00  0.00    +0.000 HD
ENDBRANCH  17  18
ENDBRANCH  16  17
ENDBRANCH  14  16
ENDBRANCH   6  12
BRANCH   1  20
ATOM     20  N   UNL     1       3.060   6.520  18.111  0.00  0.00    +0.000 N 
BRANCH  20  22
ATOM     21  C   UNL     1       5.263   5.682  17.356  0.00  0.00    +0.000 C 
ATOM     22  C   UNL     1       4.235   6.805  17.277  0.00  0.00    +0.000 C 
ENDBRANCH  20  22
BRANCH  20  23
ATOM     23  C   UNL     1       2.745   5.140  18.530  0.00  0.00    +0.000 C 
ATOM     24  C   UNL     1       1.750   4.367  17.683  0.00  0.00    +0.000 C 
ENDBRANCH  20  23
ENDBRANCH   1  20
TORSDOF 7
ENDMDL
MODEL 7
REMARK VINA RESULT:      -7.0      4.775      7.900
REMARK  Name = 
REMARK  9 active torsions:
REMARK  status: ('A' for Active; 'I' for Inactive)
REMARK    1  A    between atoms: C_1  and  C_2
REMARK    2  A    between atoms: C_2  and  N_3
REMARK    3  A    between atoms: N_3  and  C_4
REMARK    4  A    between atoms: N_3  and  C_6
REMARK    5  A    between atoms: C_4  and  C_5
REMARK    6  A    between atoms: C_11  and  C_12
REMARK    7  A    between atoms: N_14  and  C_15
REMARK    8  A    between atoms: C_15  and  C_16
REMARK    9  A    between atoms: C_16  and  O_17
REMARK                            x       y       z     vdW  Elec       q    Type
REMARK                         _______ _______ _______ _____ _____    ______ ____
ROOT
ATOM      1  C   UNL     1       4.119   5.565  18.658  0.00  0.00    +0.000 A 
ATOM      2  C   UNL     1       4.070   6.398  17.518  0.00  0.00    +0.000 A 
ATOM      3  C   UNL     1       3.249   7.533  17.437  0.00  0.00    +0.000 A 
ATOM      4  C   UNL     1       2.434   7.876  18.505  0.00  0.00    +0.000 A 
ATOM      5  C   UNL     1       1.606   9.064  18.500  0.00  0.00    +0.000 A 
ATOM      6  C   UNL     1       0.827   9.358  19.554  0.00  0.00    +0.000 A 
ATOM      7  C   UNL     1       0.781   8.459  20.729  0.00  0.00    +0.000 A 
ATOM      8  O   UNL     1       0.040   8.682  21.683  0.00  0.00    +0.000 OA
ATOM      9  O   UNL     1       1.612   7.344  20.720  0.00  0.00    +0.000 OA
ATOM     10  C   UNL     1       2.437   7.053  19.620  0.00  0.00    +0.000 A 
ATOM     11  C   UNL     1       3.253   5.920  19.704  0.00  0.00    +0.000 A 
ENDROOT
BRANCH   6  12
ATOM     12  C   UNL     1       0.036  10.627  19.463  0.00  0.00    +0.000 C 
ATOM     13  O   UNL     1       0.378  11.646  20.059  0.00  0.00    +0.000 OA
ATOM     14  N   UNL     1      -1.091  10.580  18.686  0.00  0.00    +0.000 N 
ATOM     15  H   UNL     1      -1.328   9.716  18.197  0.00  0.00    +0.000 HD
BRANCH  14  16
ATOM     16  C   UNL     1      -1.983  11.716  18.539  0.00  0.00    +0.000 C 
BRANCH  16  17
ATOM     17  C   UNL     1      -2.968  11.528  17.387  0.00  0.00    +0.000 C 
BRANCH  17  18
ATOM     18  O   UNL     1      -2.287  11.608  16.135  0.00  0.00    +0.000 OA
ATOM     19  H   UNL     1      -2.978  11.609  15.449  0.00  0.00    +0.000 HD
ENDBRANCH  17  18
ENDBRANCH  16  17
ENDBRANCH  14  16
ENDBRANCH   6  12
BRANCH   1  20
ATOM     20  N   UNL     1       4.998   4.473  18.739  0.00  0.00    +0.000 N 
BRANCH  20  22
ATOM     21  C   UNL     1       3.680   2.444  18.214  0.00  0.00    +0.000 C 
ATOM     22  C   UNL     1       4.532   3.175  19.246  0.00  0.00    +0.000 C 
ENDBRANCH  20  22
BRANCH  20  23
ATOM     23  C   UNL     1       6.335   4.612  18.131  0.00  0.00    +0.000 C 
ATOM     24  C   UNL     1       7.320   5.538  18.824  0.00  0.00    +0.000 C 
ENDBRANCH  20  23
ENDBRANCH   1  20
TORSDOF 7
ENDMDL
MODEL 8
REMARK VINA RESULT:      -7.0      4.804      7.994
REMARK  Name = 
REMARK  9 active torsions:
REMARK  status: ('A' for Active; 'I' for Inactive)
REMARK    1  A    between atoms: C_1  and  C_2
REMARK    2  A    between atoms: C_2  and  N_3
REMARK    3  A    between atoms: N_3  and  C_4
REMARK    4  A    between atoms: N_3  and  C_6
REMARK    5  A    between atoms: C_4  and  C_5
REMARK    6  A    between atoms: C_11  and  C_12
REMARK    7  A    between atoms: N_14  and  C_15
REMARK    8  A    between atoms: C_15  and  C_16
REMARK    9  A    between atoms: C_16  and  O_17
REMARK                            x       y       z     vdW  Elec       q    Type
REMARK                         _______ _______ _______ _____ _____    ______ ____
ROOT
ATOM      1  C   UNL     1       4.113   5.580  18.616  0.00  0.00    +0.000 A 
ATOM      2  C   UNL     1       4.022   6.404  17.472  0.00  0.00    +0.000 A 
ATOM      3  C   UNL     1       3.188   7.531  17.408  0.00  0.00    +0.000 A 
ATOM      4  C   UNL     1       2.402   7.874  18.497  0.00  0.00    +0.000 A 
ATOM      5  C   UNL     1       1.563   9.055  18.508  0.00  0.00    +0.000 A 
ATOM      6  C   UNL     1       0.813   9.350  19.583  0.00  0.00    +0.000 A 
ATOM      7  C   UNL     1       0.812   8.459  20.765  0.00  0.00    +0.000 A 
ATOM      8  O   UNL     1       0.098   8.683  21.740  0.00  0.00    +0.000 OA
ATOM      9  O   UNL     1       1.653   7.352  20.740  0.00  0.00    +0.000 OA
ATOM     10  C   UNL     1       2.447   7.060  19.617  0.00  0.00    +0.000 A 
ATOM     11  C   UNL     1       3.276   5.935  19.685  0.00  0.00    +0.000 A 
ENDROOT
BRANCH   6  12
ATOM     12  C   UNL     1       0.008  10.610  19.507  0.00  0.00    +0.000 C 
ATOM     13  O   UNL     1       0.342  11.627  20.110  0.00  0.00    +0.000 OA
ATOM     14  N   UNL     1      -1.121  10.557  18.733  0.00  0.00    +0.000 N 
ATOM     15  H   UNL     1      -1.350   9.695  18.238  0.00  0.00    +0.000 HD
BRANCH  14  16
ATOM     16  C   UNL     1      -2.026  11.685  18.600  0.00  0.00    +0.000 C 
BRANCH  16  17
ATOM     17  C   UNL     1      -2.985  11.515  17.423  0.00  0.00    +0.000 C 
BRANCH  17  18
ATOM     18  O   UNL     1      -2.275  11.605  16.188  0.00  0.00    +0.000 OA
ATOM     19  H   UNL     1      -2.533  12.454  15.787  0.00  0.00    +0.000 HD
ENDBRANCH  17  18
ENDBRANCH  16  17
ENDBRANCH  14  16
ENDBRANCH   6  12
BRANCH   1  20
ATOM     20  N   UNL     1       5.004   4.497  18.679  0.00  0.00    +0.000 N 
BRANCH  20  22
ATOM     21  C   UNL     1       7.153   5.591  19.237  0.00  0.00    +0.000 C 
ATOM     22  C   UNL     1       6.410   4.662  18.284  0.00  0.00    +0.000 C 
ENDBRANCH  20  22
BRANCH  20  23
ATOM     23  C   UNL     1       4.540   3.253  19.323  0.00  0.00    +0.000 C 
ATOM     24  C   UNL     1       3.596   2.369  18.527  0.00  0.00    +0.000 C 
ENDBRANCH  20  23
ENDBRANCH   1  20
TORSDOF 7
ENDMDL
MODEL 9
REMARK VINA RESULT:      -7.0      5.831     10.219
REMARK  Name = 
REMARK  9 active torsions:
REMARK  status: ('A' for Active; 'I' for Inactive)
REMARK    1  A    between atoms: C_1  and  C_2
REMARK    2  A    between atoms: C_2  and  N_3
REMARK    3  A    between atoms: N_3  and  C_4
REMARK    4  A    between atoms: N_3  and  C_6
REMARK    5  A    between atoms: C_4  and  C_5
REMARK    6  A    between atoms: C_11  and  C_12
REMARK    7  A    between atoms: N_14  and  C_15
REMARK    8  A    between atoms: C_15  and  C_16
REMARK    9  A    between atoms: C_16  and  O_17
REMARK                            x       y       z     vdW  Elec       q    Type
REMARK                         _______ _______ _______ _____ _____    ______ ____
ROOT
ATOM      1  C   UNL     1       2.431   7.396  18.752  0.00  0.00    +0.000 A 
ATOM      2  C   UNL     1       1.886   8.389  17.909  0.00  0.00    +0.000 A 
ATOM      3  C   UNL     1       1.124   9.465  18.390  0.00  0.00    +0.000 A 
ATOM      4  C   UNL     1       0.873   9.583  19.748  0.00  0.00    +0.000 A 
ATOM      5  C   UNL     1       0.138  10.699  20.308  0.00  0.00    +0.000 A 
ATOM      6  C   UNL     1      -0.087  10.774  21.630  0.00  0.00    +0.000 A 
ATOM      7  C   UNL     1       0.388   9.703  22.535  0.00  0.00    +0.000 A 
ATOM      8  O   UNL     1       0.152   9.726  23.741  0.00  0.00    +0.000 OA
ATOM      9  O   UNL     1       1.120   8.662  21.974  0.00  0.00    +0.000 OA
ATOM     10  C   UNL     1       1.366   8.601  20.591  0.00  0.00    +0.000 A 
ATOM     11  C   UNL     1       2.125   7.526  20.116  0.00  0.00    +0.000 A 
ENDROOT
BRANCH   6  12
ATOM     12  C   UNL     1      -0.826  11.984  22.112  0.00  0.00    +0.000 C 
ATOM     13  O   UNL     1      -0.604  13.102  21.652  0.00  0.00    +0.000 OA
ATOM     14  N   UNL     1      -1.753  11.771  23.096  0.00  0.00    +0.000 N 
ATOM     15  H   UNL     1      -1.915  10.823  23.437  0.00  0.00    +0.000 HD
BRANCH  14  16
ATOM     16  C   UNL     1      -2.515  12.853  23.696  0.00  0.00    +0.000 C 
BRANCH  16  17
ATOM     17  C   UNL     1      -4.017  12.692  23.468  0.00  0.00    +0.000 C 
BRANCH  17  18
ATOM     18  O   UNL     1      -4.617  12.022  24.576  0.00  0.00    +0.000 OA
ATOM     19  H   UNL     1      -5.572  12.204  24.519  0.00  0.00    +0.000 HD
ENDBRANCH  17  18
ENDBRANCH  16  17
ENDBRANCH  14  16
ENDBRANCH   6  12
BRANCH   1  20
ATOM     20  N   UNL     1       3.246   6.367  18.253  0.00  0.00    +0.000 N 
BRANCH  20  22
ATOM     21  C   UNL     1       2.131   4.269  17.555  0.00  0.00    +0.000 C 
ATOM     22  C   UNL     1       2.982   4.967  18.611  0.00  0.00    +0.000 C 
ENDBRANCH  20  22
BRANCH  20  23
ATOM     23  C   UNL     1       4.243   6.710  17.222  0.00  0.00    +0.000 C 
ATOM     24  C   UNL     1       5.694   6.371  17.518  0.00  0.00    +0.000 C 
ENDBRANCH  20  23
ENDBRANCH   1  20
TORSDOF 7
ENDMDL
