MODEL 1
REMARK VINA RESULT:      -7.9      0.000      0.000
REMARK  Name = 
REMARK  14 active torsions:
REMARK  status: ('A' for Active; 'I' for Inactive)
REMARK    1  A    between atoms: C_1  and  C_2
REMARK    2  A    between atoms: C_2  and  C_3
REMARK    3  A    between atoms: C_6  and  S_7
REMARK    4  A    between atoms: S_7  and  N_10
REMARK    5  A    between atoms: N_10  and  C_11
REMARK    6  A    between atoms: C_14  and  C_15
REMARK    7  A    between atoms: C_15  and  C_16
REMARK    8  A    between atoms: C_16  and  N_17
REMARK    9  A    between atoms: N_17  and  C_18
REMARK   10  A    between atoms: C_18  and  C_19
REMARK   11  A    between atoms: C_19  and  O_20
REMARK   12  A    between atoms: C_19  and  C_21
REMARK   13  A    between atoms: C_21  and  O_22
REMARK   14  A    between atoms: O_22  and  C_23
REMARK                            x       y       z     vdW  Elec       q    Type
REMARK                         _______ _______ _______ _____ _____    ______ ____
ROOT
ATOM      1  C   UNL     1       2.404   7.374  19.506  0.00  0.00    +0.000 A 
ATOM      2  C   UNL     1       1.589   7.708  20.580  0.00  0.00    +0.000 A 
ATOM      3  C   UNL     1       0.761   8.829  20.503  0.00  0.00    +0.000 A 
ATOM      4  C   UNL     1       0.754   9.632  19.353  0.00  0.00    +0.000 A 
ATOM      5  C   UNL     1       1.566   9.270  18.271  0.00  0.00    +0.000 A 
ATOM      6  C   UNL     1       2.383   8.137  18.339  0.00  0.00    +0.000 A 
ENDROOT
BRANCH   1   7
ATOM      7  N   UNL     1       3.209   6.203  19.579  0.00  0.00    +0.000 N 
ATOM      8  H   UNL     1       3.466   5.881  20.512  0.00  0.00    +0.000 HD
BRANCH   7   9
ATOM      9  S   UNL     1       2.765   4.888  18.613  0.00  0.00    +0.000 S 
ATOM     10  O   UNL     1       1.492   5.144  17.977  0.00  0.00    +0.000 OA
ATOM     11  O   UNL     1       2.973   3.711  19.431  0.00  0.00    +0.000 OA
BRANCH   9  15
ATOM     12  C   UNL     1       5.963   4.814  15.363  0.00  0.00    +0.000 A 
ATOM     13  C   UNL     1       5.550   3.628  15.986  0.00  0.00    +0.000 A 
ATOM     14  C   UNL     1       4.585   3.661  16.989  0.00  0.00    +0.000 A 
ATOM     15  C   UNL     1       4.039   4.888  17.380  0.00  0.00    +0.000 A 
ATOM     16  C   UNL     1       4.447   6.079  16.780  0.00  0.00    +0.000 A 
ATOM     17  C   UNL     1       5.412   6.039  15.773  0.00  0.00    +0.000 A 
BRANCH  12  19
ATOM     18  C   UNL     1       6.348   3.922  13.072  0.00  0.00    +0.000 C 
ATOM     19  C   UNL     1       6.925   4.758  14.203  0.00  0.00    +0.000 C 
ENDBRANCH  12  19
ENDBRANCH   9  15
ENDBRANCH   7   9
ENDBRANCH   1   7
BRANCH   4  20
ATOM     20  C   UNL     1      -0.137  10.854  19.279  0.00  0.00    +0.000 C 
BRANCH  20  21
ATOM     21  C   UNL     1      -1.531  10.530  18.717  0.00  0.00    +0.000 C 
BRANCH  21  22
ATOM     22  N   UNL     1      -1.488  10.328  17.260  0.00  0.00    +0.000 NA
ATOM     23  H   UNL     1      -1.834   9.387  17.065  0.00  0.00    +0.000 HD
BRANCH  22  24
ATOM     24  C   UNL     1      -2.378  11.300  16.588  0.00  0.00    +0.000 C 
BRANCH  24  25
ATOM     25  C   UNL     1      -3.708  10.666  16.132  0.00  0.00    +0.000 C 
BRANCH  25  26
ATOM     26  O   UNL     1      -3.704  10.576  14.698  0.00  0.00    +0.000 OA
ATOM     27  H   UNL     1      -3.019   9.931  14.455  0.00  0.00    +0.000 HD
ENDBRANCH  25  26
BRANCH  25  28
ATOM     28  C   UNL     1      -4.921  11.462  16.641  0.00  0.00    +0.000 C 
BRANCH  28  29
ATOM     29  O   UNL     1      -4.598  12.097  17.886  0.00  0.00    +0.000 OA
BRANCH  29  30
ATOM     30  C   UNL     1      -5.454  11.858  18.921  0.00  0.00    +0.000 A 
ATOM     31  C   UNL     1      -6.666  11.183  18.850  0.00  0.00    +0.000 A 
ATOM     32  C   UNL     1      -7.441  11.032  20.000  0.00  0.00    +0.000 A 
ATOM     33  C   UNL     1      -6.977  11.550  21.200  0.00  0.00    +0.000 A 
ATOM     34  N   UNL     1      -7.749  11.448  22.353  0.00  0.00    +0.000 N 
ATOM     35  N   UNL     1      -5.813  12.209  21.304  0.00  0.00    +0.000 NA
ATOM     36  C   UNL     1      -5.082  12.350  20.168  0.00  0.00    +0.000 A 
ATOM     37  H   UNL     1      -8.029  10.493  22.535  0.00  0.00    +0.000 HD
ATOM     38  H   UNL     1      -7.198  11.837  23.114  0.00  0.00    +0.000 HD
ENDBRANCH  29  30
ENDBRANCH  28  29
ENDBRANCH  25  28
ENDBRANCH  24  25
ENDBRANCH  22  24
ENDBRANCH  21  22
ENDBRANCH  20  21
ENDBRANCH   4  20
TORSDOF 13
ENDMDL
MODEL 2
REMARK VINA RESULT:      -7.8      1.750      2.289
REMARK  Name = 
REMARK  14 active torsions:
REMARK  status: ('A' for Active; 'I' for Inactive)
REMARK    1  A    between atoms: C_1  and  C_2
REMARK    2  A    between atoms: C_2  and  C_3
REMARK    3  A    between atoms: C_6  and  S_7
REMARK    4  A    between atoms: S_7  and  N_10
REMARK    5  A    between atoms: N_10  and  C_11
REMARK    6  A    between atoms: C_14  and  C_15
REMARK    7  A    between atoms: C_15  and  C_16
REMARK    8  A    between atoms: C_16  and  N_17
REMARK    9  A    between atoms: N_17  and  C_18
REMARK   10  A    between atoms: C_18  and  C_19
REMARK   11  A    between atoms: C_19  and  O_20
REMARK   12  A    between atoms: C_19  and  C_21
REMARK   13  A    between atoms: C_21  and  O_22
REMARK   14  A    between atoms: O_22  and  C_23
REMARK                            x       y       z     vdW  Elec       q    Type
REMARK                         _______ _______ _______ _____ _____    ______ ____
ROOT
ATOM      1  C   UNL     1       2.272   7.002  19.969  0.00  0.00    +0.000 A 
ATOM      2  C   UNL     1       2.475   7.441  18.667  0.00  0.00    +0.000 A 
ATOM      3  C   UNL     1       1.836   8.596  18.214  0.00  0.00    +0.000 A 
ATOM      4  C   UNL     1       0.979   9.314  19.060  0.00  0.00    +0.000 A 
ATOM      5  C   UNL     1       0.802   8.872  20.376  0.00  0.00    +0.000 A 
ATOM      6  C   UNL     1       1.455   7.724  20.838  0.00  0.00    +0.000 A 
ENDROOT
BRANCH   1   7
ATOM      7  N   UNL     1       2.965   5.849  20.434  0.00  0.00    +0.000 N 
ATOM      8  H   UNL     1       2.976   5.697  21.443  0.00  0.00    +0.000 HD
BRANCH   7   9
ATOM      9  S   UNL     1       2.680   4.389  19.629  0.00  0.00    +0.000 S 
ATOM     10  O   UNL     1       1.410   4.440  18.940  0.00  0.00    +0.000 OA
ATOM     11  O   UNL     1       2.970   3.347  20.592  0.00  0.00    +0.000 OA
BRANCH   9  15
ATOM     12  C   UNL     1       5.986   4.422  16.489  0.00  0.00    +0.000 A 
ATOM     13  C   UNL     1       4.668   4.095  16.136  0.00  0.00    +0.000 A 
ATOM     14  C   UNL     1       3.668   4.070  17.105  0.00  0.00    +0.000 A 
ATOM     15  C   UNL     1       3.988   4.363  18.434  0.00  0.00    +0.000 A 
ATOM     16  C   UNL     1       5.295   4.678  18.805  0.00  0.00    +0.000 A 
ATOM     17  C   UNL     1       6.293   4.705  17.830  0.00  0.00    +0.000 A 
BRANCH  12  19
ATOM     18  C   UNL     1       6.463   4.199  14.057  0.00  0.00    +0.000 C 
ATOM     19  C   UNL     1       7.038   4.554  15.418  0.00  0.00    +0.000 C 
ENDBRANCH  12  19
ENDBRANCH   9  15
ENDBRANCH   7   9
ENDBRANCH   1   7
BRANCH   4  20
ATOM     20  C   UNL     1       0.280  10.560  18.560  0.00  0.00    +0.000 C 
BRANCH  20  21
ATOM     21  C   UNL     1      -1.063  10.246  17.878  0.00  0.00    +0.000 C 
BRANCH  21  22
ATOM     22  N   UNL     1      -2.184  10.890  18.581  0.00  0.00    +0.000 NA
ATOM     23  H   UNL     1      -1.799  11.621  19.180  0.00  0.00    +0.000 HD
BRANCH  22  24
ATOM     24  C   UNL     1      -3.095  11.523  17.603  0.00  0.00    +0.000 C 
BRANCH  24  25
ATOM     25  C   UNL     1      -4.581  11.267  17.927  0.00  0.00    +0.000 C 
BRANCH  25  26
ATOM     26  O   UNL     1      -5.343  11.388  16.715  0.00  0.00    +0.000 OA
ATOM     27  H   UNL     1      -5.837  12.223  16.772  0.00  0.00    +0.000 HD
ENDBRANCH  25  26
BRANCH  25  28
ATOM     28  C   UNL     1      -5.099  12.224  19.014  0.00  0.00    +0.000 C 
BRANCH  28  29
ATOM     29  O   UNL     1      -4.005  12.679  19.823  0.00  0.00    +0.000 OA
BRANCH  29  30
ATOM     30  C   UNL     1      -4.231  12.722  21.167  0.00  0.00    +0.000 A 
ATOM     31  C   UNL     1      -5.446  12.971  21.791  0.00  0.00    +0.000 A 
ATOM     32  C   UNL     1      -5.514  12.999  23.184  0.00  0.00    +0.000 A 
ATOM     33  C   UNL     1      -4.364  12.764  23.922  0.00  0.00    +0.000 A 
ATOM     34  N   UNL     1      -4.396  12.825  25.312  0.00  0.00    +0.000 N 
ATOM     35  N   UNL     1      -3.174  12.523  23.352  0.00  0.00    +0.000 NA
ATOM     36  C   UNL     1      -3.133  12.510  21.995  0.00  0.00    +0.000 A 
ATOM     37  H   UNL     1      -5.119  12.231  25.699  0.00  0.00    +0.000 HD
ATOM     38  H   UNL     1      -3.470  12.567  25.641  0.00  0.00    +0.000 HD
ENDBRANCH  29  30
ENDBRANCH  28  29
ENDBRANCH  25  28
ENDBRANCH  24  25
ENDBRANCH  22  24
ENDBRANCH  21  22
ENDBRANCH  20  21
ENDBRANCH   4  20
TORSDOF 13
ENDMDL
MODEL 3
REMARK VINA RESULT:      -7.8      3.711     10.307
REMARK  Name = 
REMARK  14 active torsions:
REMARK  status: ('A' for Active; 'I' for Inactive)
REMARK    1  A    between atoms: C_1  and  C_2
REMARK    2  A    between atoms: C_2  and  C_3
REMARK    3  A    between atoms: C_6  and  S_7
REMARK    4  A    between atoms: S_7  and  N_10
REMARK    5  A    between atoms: N_10  and  C_11
REMARK    6  A    between atoms: C_14  and  C_15
REMARK    7  A    between atoms: C_15  and  C_16
REMARK    8  A    between atoms: C_16  and  N_17
REMARK    9  A    between atoms: N_17  and  C_18
REMARK   10  A    between atoms: C_18  and  C_19
REMARK   11  A    between atoms: C_19  and  O_20
REMARK   12  A    between atoms: C_19  and  C_21
REMARK   13  A    between atoms: C_21  and  O_22
REMARK   14  A    between atoms: O_22  and  C_23
REMARK                            x       y       z     vdW  Elec       q    Type
REMARK                         _______ _______ _______ _____ _____    ______ ____
ROOT
ATOM      1  C   UNL     1       0.834   8.730  19.956  0.00  0.00    +0.000 A 
ATOM      2  C   UNL     1       1.652   7.670  20.326  0.00  0.00    +0.000 A 
ATOM      3  C   UNL     1       2.609   7.185  19.434  0.00  0.00    +0.000 A 
ATOM      4  C   UNL     1       2.745   7.751  18.159  0.00  0.00    +0.000 A 
ATOM      5  C   UNL     1       1.929   8.833  17.808  0.00  0.00    +0.000 A 
ATOM      6  C   UNL     1       0.980   9.332  18.707  0.00  0.00    +0.000 A 
ENDROOT
BRANCH   1   7
ATOM      7  N   UNL     1      -0.106   9.246  20.891  0.00  0.00    +0.000 N 
ATOM      8  H   UNL     1      -0.627   8.563  21.441  0.00  0.00    +0.000 HD
BRANCH   7   9
ATOM      9  S   UNL     1       0.393  10.526  21.878  0.00  0.00    +0.000 S 
ATOM     10  O   UNL     1       1.384  11.326  21.193  0.00  0.00    +0.000 OA
ATOM     11  O   UNL     1       0.667   9.939  23.174  0.00  0.00    +0.000 OA
BRANCH   9  15
ATOM     12  C   UNL     1      -3.502  12.871  22.218  0.00  0.00    +0.000 A 
ATOM     13  C   UNL     1      -2.796  12.831  21.007  0.00  0.00    +0.000 A 
ATOM     14  C   UNL     1      -1.598  12.126  20.917  0.00  0.00    +0.000 A 
ATOM     15  C   UNL     1      -1.098  11.468  22.045  0.00  0.00    +0.000 A 
ATOM     16  C   UNL     1      -1.781  11.508  23.260  0.00  0.00    +0.000 A 
ATOM     17  C   UNL     1      -2.983  12.212  23.344  0.00  0.00    +0.000 A 
BRANCH  12  19
ATOM     18  C   UNL     1      -5.899  12.697  21.570  0.00  0.00    +0.000 C 
ATOM     19  C   UNL     1      -4.852  13.541  22.278  0.00  0.00    +0.000 C 
ENDBRANCH  12  19
ENDBRANCH   9  15
ENDBRANCH   7   9
ENDBRANCH   1   7
BRANCH   4  20
ATOM     20  C   UNL     1       3.777   7.213  17.190  0.00  0.00    +0.000 C 
BRANCH  20  21
ATOM     21  C   UNL     1       5.181   7.135  17.812  0.00  0.00    +0.000 C 
BRANCH  21  22
ATOM     22  N   UNL     1       6.186   6.730  16.816  0.00  0.00    +0.000 NA
ATOM     23  H   UNL     1       6.798   6.039  17.253  0.00  0.00    +0.000 HD
BRANCH  22  24
ATOM     24  C   UNL     1       5.522   6.097  15.657  0.00  0.00    +0.000 C 
BRANCH  24  25
ATOM     25  C   UNL     1       5.855   4.596  15.531  0.00  0.00    +0.000 C 
BRANCH  25  26
ATOM     26  O   UNL     1       5.425   4.138  14.239  0.00  0.00    +0.000 OA
ATOM     27  H   UNL     1       5.238   3.188  14.322  0.00  0.00    +0.000 HD
ENDBRANCH  25  26
BRANCH  25  28
ATOM     28  C   UNL     1       5.213   3.775  16.661  0.00  0.00    +0.000 C 
BRANCH  28  29
ATOM     29  O   UNL     1       3.797   3.683  16.451  0.00  0.00    +0.000 OA
BRANCH  29  30
ATOM     30  C   UNL     1       3.034   3.528  17.571  0.00  0.00    +0.000 A 
ATOM     31  C   UNL     1       1.758   4.037  17.777  0.00  0.00    +0.000 A 
ATOM     32  C   UNL     1       1.109   3.805  18.989  0.00  0.00    +0.000 A 
ATOM     33  C   UNL     1       1.748   3.056  19.965  0.00  0.00    +0.000 A 
ATOM     34  N   UNL     1       1.139   2.844  21.199  0.00  0.00    +0.000 N 
ATOM     35  N   UNL     1       2.981   2.553  19.802  0.00  0.00    +0.000 NA
ATOM     36  C   UNL     1       3.594   2.800  18.616  0.00  0.00    +0.000 A 
ATOM     37  H   UNL     1       0.208   2.460  21.098  0.00  0.00    +0.000 HD
ATOM     38  H   UNL     1       1.752   2.231  21.730  0.00  0.00    +0.000 HD
ENDBRANCH  29  30
ENDBRANCH  28  29
ENDBRANCH  25  28
ENDBRANCH  24  25
ENDBRANCH  22  24
ENDBRANCH  21  22
ENDBRANCH  20  21
ENDBRANCH   4  20
TORSDOF 13
ENDMDL
MODEL 4
REMARK VINA RESULT:      -7.7      3.655     11.134
REMARK  Name = 
REMARK  14 active torsions:
REMARK  status: ('A' for Active; 'I' for Inactive)
REMARK    1  A    between atoms: C_1  and  C_2
REMARK    2  A    between atoms: C_2  and  C_3
REMARK    3  A    between atoms: C_6  and  S_7
REMARK    4  A    between atoms: S_7  and  N_10
REMARK    5  A    between atoms: N_10  and  C_11
REMARK    6  A    between atoms: C_14  and  C_15
REMARK    7  A    between atoms: C_15  and  C_16
REMARK    8  A    between atoms: C_16  and  N_17
REMARK    9  A    between atoms: N_17  and  C_18
REMARK   10  A    between atoms: C_18  and  C_19
REMARK   11  A    between atoms: C_19  and  O_20
REMARK   12  A    between atoms: C_19  and  C_21
REMARK   13  A    between atoms: C_21  and  O_22
REMARK   14  A    between atoms: O_22  and  C_23
REMARK                            x       y       z     vdW  Elec       q    Type
REMARK                         _______ _______ _______ _____ _____    ______ ____
ROOT
ATOM      1  C   UNL     1       0.721   9.888  18.734  0.00  0.00    +0.000 A 
ATOM      2  C   UNL     1       1.498   9.291  17.750  0.00  0.00    +0.000 A 
ATOM      3  C   UNL     1       2.221   8.133  18.041  0.00  0.00    +0.000 A 
ATOM      4  C   UNL     1       2.179   7.572  19.325  0.00  0.00    +0.000 A 
ATOM      5  C   UNL     1       1.374   8.172  20.300  0.00  0.00    +0.000 A 
ATOM      6  C   UNL     1       0.635   9.324  20.006  0.00  0.00    +0.000 A 
ENDROOT
BRANCH   1   7
ATOM      7  N   UNL     1      -0.047  11.042  18.412  0.00  0.00    +0.000 N 
ATOM      8  H   UNL     1      -1.061  10.930  18.405  0.00  0.00    +0.000 HD
BRANCH   7   9
ATOM      9  S   UNL     1       0.371  12.496  19.169  0.00  0.00    +0.000 S 
ATOM     10  O   UNL     1       0.072  13.613  18.301  0.00  0.00    +0.000 OA
ATOM     11  O   UNL     1       1.702  12.293  19.702  0.00  0.00    +0.000 OA
BRANCH   9  15
ATOM     12  C   UNL     1      -2.543  12.463  22.677  0.00  0.00    +0.000 A 
ATOM     13  C   UNL     1      -2.996  12.710  21.374  0.00  0.00    +0.000 A 
ATOM     14  C   UNL     1      -2.098  12.735  20.310  0.00  0.00    +0.000 A 
ATOM     15  C   UNL     1      -0.737  12.524  20.553  0.00  0.00    +0.000 A 
ATOM     16  C   UNL     1      -0.266  12.289  21.844  0.00  0.00    +0.000 A 
ATOM     17  C   UNL     1      -1.172  12.261  22.906  0.00  0.00    +0.000 A 
BRANCH  12  19
ATOM     18  C   UNL     1      -4.044  13.693  24.235  0.00  0.00    +0.000 C 
ATOM     19  C   UNL     1      -3.534  12.327  23.805  0.00  0.00    +0.000 C 
ENDBRANCH  12  19
ENDBRANCH   9  15
ENDBRANCH   7   9
ENDBRANCH   1   7
BRANCH   4  20
ATOM     20  C   UNL     1       2.974   6.322  19.639  0.00  0.00    +0.000 C 
BRANCH  20  21
ATOM     21  C   UNL     1       2.191   5.334  20.519  0.00  0.00    +0.000 C 
BRANCH  21  22
ATOM     22  N   UNL     1       1.497   4.324  19.704  0.00  0.00    +0.000 NA
ATOM     23  H   UNL     1       0.497   4.523  19.743  0.00  0.00    +0.000 HD
BRANCH  22  24
ATOM     24  C   UNL     1       1.936   4.424  18.295  0.00  0.00    +0.000 C 
BRANCH  24  25
ATOM     25  C   UNL     1       2.258   3.049  17.676  0.00  0.00    +0.000 C 
BRANCH  25  26
ATOM     26  O   UNL     1       1.288   2.098  18.143  0.00  0.00    +0.000 OA
ATOM     27  H   UNL     1       0.980   2.408  19.011  0.00  0.00    +0.000 HD
ENDBRANCH  25  26
BRANCH  25  28
ATOM     28  C   UNL     1       3.691   2.599  18.007  0.00  0.00    +0.000 C 
BRANCH  28  29
ATOM     29  O   UNL     1       4.474   3.729  18.413  0.00  0.00    +0.000 OA
BRANCH  29  30
ATOM     30  C   UNL     1       5.329   4.234  17.477  0.00  0.00    +0.000 A 
ATOM     31  C   UNL     1       6.147   5.347  17.622  0.00  0.00    +0.000 A 
ATOM     32  C   UNL     1       6.958   5.750  16.561  0.00  0.00    +0.000 A 
ATOM     33  C   UNL     1       6.940   5.021  15.382  0.00  0.00    +0.000 A 
ATOM     34  N   UNL     1       7.710   5.426  14.295  0.00  0.00    +0.000 N 
ATOM     35  N   UNL     1       6.160   3.944  15.207  0.00  0.00    +0.000 NA
ATOM     36  C   UNL     1       5.374   3.577  16.251  0.00  0.00    +0.000 A 
ATOM     37  H   UNL     1       8.682   5.551  14.548  0.00  0.00    +0.000 HD
ATOM     38  H   UNL     1       7.589   4.724  13.569  0.00  0.00    +0.000 HD
ENDBRANCH  29  30
ENDBRANCH  28  29
ENDBRANCH  25  28
ENDBRANCH  24  25
ENDBRANCH  22  24
ENDBRANCH  21  22
ENDBRANCH  20  21
ENDBRANCH   4  20
TORSDOF 13
ENDMDL
MODEL 5
REMARK VINA RESULT:      -7.7      2.917      4.039
REMARK  Name = 
REMARK  14 active torsions:
REMARK  status: ('A' for Active; 'I' for Inactive)
REMARK    1  A    between atoms: C_1  and  C_2
REMARK    2  A    between atoms: C_2  and  C_3
REMARK    3  A    between atoms: C_6  and  S_7
REMARK    4  A    between atoms: S_7  and  N_10
REMARK    5  A    between atoms: N_10  and  C_11
REMARK    6  A    between atoms: C_14  and  C_15
REMARK    7  A    between atoms: C_15  and  C_16
REMARK    8  A    between atoms: C_16  and  N_17
REMARK    9  A    between atoms: N_17  and  C_18
REMARK   10  A    between atoms: C_18  and  C_19
REMARK   11  A    between atoms: C_19  and  O_20
REMARK   12  A    between atoms: C_19  and  C_21
REMARK   13  A    between atoms: C_21  and  O_22
REMARK   14  A    between atoms: O_22  and  C_23
REMARK                            x       y       z     vdW  Elec       q    Type
REMARK                         _______ _______ _______ _____ _____    ______ ____
ROOT
ATOM      1  C   UNL     1       2.740   5.922  18.877  0.00  0.00    +0.000 A 
ATOM      2  C   UNL     1       2.779   6.925  17.916  0.00  0.00    +0.000 A 
ATOM      3  C   UNL     1       2.255   8.186  18.203  0.00  0.00    +0.000 A 
ATOM      4  C   UNL     1       1.677   8.448  19.453  0.00  0.00    +0.000 A 
ATOM      5  C   UNL     1       1.664   7.435  20.419  0.00  0.00    +0.000 A 
ATOM      6  C   UNL     1       2.205   6.175  20.139  0.00  0.00    +0.000 A 
ENDROOT
BRANCH   1   7
ATOM      7  N   UNL     1       3.319   4.655  18.588  0.00  0.00    +0.000 N 
ATOM      8  H   UNL     1       3.065   4.228  17.697  0.00  0.00    +0.000 HD
BRANCH   7   9
ATOM      9  S   UNL     1       4.977   4.470  18.868  0.00  0.00    +0.000 S 
ATOM     10  O   UNL     1       5.233   3.210  19.528  0.00  0.00    +0.000 OA
ATOM     11  O   UNL     1       5.420   5.723  19.443  0.00  0.00    +0.000 OA
BRANCH   9  15
ATOM     12  C   UNL     1       6.564   4.400  14.594  0.00  0.00    +0.000 A 
ATOM     13  C   UNL     1       5.220   4.105  14.862  0.00  0.00    +0.000 A 
ATOM     14  C   UNL     1       4.747   4.112  16.171  0.00  0.00    +0.000 A 
ATOM     15  C   UNL     1       5.625   4.404  17.220  0.00  0.00    +0.000 A 
ATOM     16  C   UNL     1       6.968   4.688  16.973  0.00  0.00    +0.000 A 
ATOM     17  C   UNL     1       7.435   4.683  15.658  0.00  0.00    +0.000 A 
BRANCH  12  19
ATOM     18  C   UNL     1       8.101   5.581  13.033  0.00  0.00    +0.000 C 
ATOM     19  C   UNL     1       7.041   4.500  13.167  0.00  0.00    +0.000 C 
ENDBRANCH  12  19
ENDBRANCH   9  15
ENDBRANCH   7   9
ENDBRANCH   1   7
BRANCH   4  20
ATOM     20  C   UNL     1       1.099   9.814  19.756  0.00  0.00    +0.000 C 
BRANCH  20  21
ATOM     21  C   UNL     1       0.899  10.046  21.264  0.00  0.00    +0.000 C 
BRANCH  21  22
ATOM     22  N   UNL     1       0.858  11.481  21.584  0.00  0.00    +0.000 NA
ATOM     23  H   UNL     1       1.821  11.808  21.677  0.00  0.00    +0.000 HD
BRANCH  22  24
ATOM     24  C   UNL     1       0.218  12.227  20.480  0.00  0.00    +0.000 C 
BRANCH  24  25
ATOM     25  C   UNL     1      -1.105  12.896  20.907  0.00  0.00    +0.000 C 
BRANCH  25  26
ATOM     26  O   UNL     1      -1.338  12.606  22.294  0.00  0.00    +0.000 OA
ATOM     27  H   UNL     1      -1.075  11.682  22.439  0.00  0.00    +0.000 HD
ENDBRANCH  25  26
BRANCH  25  28
ATOM     28  C   UNL     1      -2.282  12.438  20.031  0.00  0.00    +0.000 C 
BRANCH  28  29
ATOM     29  O   UNL     1      -1.945  11.212  19.366  0.00  0.00    +0.000 OA
BRANCH  29  30
ATOM     30  C   UNL     1      -2.516  11.018  18.142  0.00  0.00    +0.000 A 
ATOM     31  C   UNL     1      -3.705  11.573  17.689  0.00  0.00    +0.000 A 
ATOM     32  C   UNL     1      -4.169  11.264  16.410  0.00  0.00    +0.000 A 
ATOM     33  C   UNL     1      -3.422  10.414  15.608  0.00  0.00    +0.000 A 
ATOM     34  N   UNL     1      -3.882  10.058  14.344  0.00  0.00    +0.000 N 
ATOM     35  N   UNL     1      -2.271   9.858  16.015  0.00  0.00    +0.000 NA
ATOM     36  C   UNL     1      -1.847  10.168  17.267  0.00  0.00    +0.000 A 
ATOM     37  H   UNL     1      -4.105  10.870  13.782  0.00  0.00    +0.000 HD
ATOM     38  H   UNL     1      -3.160   9.483  13.917  0.00  0.00    +0.000 HD
ENDBRANCH  29  30
ENDBRANCH  28  29
ENDBRANCH  25  28
ENDBRANCH  24  25
ENDBRANCH  22  24
ENDBRANCH  21  22
ENDBRANCH  20  21
ENDBRANCH   4  20
TORSDOF 13
ENDMDL
MODEL 6
REMARK VINA RESULT:      -7.7      4.161     11.186
REMARK  Name = 
REMARK  14 active torsions:
REMARK  status: ('A' for Active; 'I' for Inactive)
REMARK    1  A    between atoms: C_1  and  C_2
REMARK    2  A    between atoms: C_2  and  C_3
REMARK    3  A    between atoms: C_6  and  S_7
REMARK    4  A    between atoms: S_7  and  N_10
REMARK    5  A    between atoms: N_10  and  C_11
REMARK    6  A    between atoms: C_14  and  C_15
REMARK    7  A    between atoms: C_15  and  C_16
REMARK    8  A    between atoms: C_16  and  N_17
REMARK    9  A    between atoms: N_17  and  C_18
REMARK   10  A    between atoms: C_18  and  C_19
REMARK   11  A    between atoms: C_19  and  O_20
REMARK   12  A    between atoms: C_19  and  C_21
REMARK   13  A    between atoms: C_21  and  O_22
REMARK   14  A    between atoms: O_22  and  C_23
REMARK                            x       y       z     vdW  Elec       q    Type
REMARK                         _______ _______ _______ _____ _____    ______ ____
ROOT
ATOM      1  C   UNL     1       0.591   9.922  19.752  0.00  0.00    +0.000 A 
ATOM      2  C   UNL     1       0.559   9.107  20.876  0.00  0.00    +0.000 A 
ATOM      3  C   UNL     1       1.263   7.902  20.884  0.00  0.00    +0.000 A 
ATOM      4  C   UNL     1       1.995   7.499  19.758  0.00  0.00    +0.000 A 
ATOM      5  C   UNL     1       2.036   8.341  18.640  0.00  0.00    +0.000 A 
ATOM      6  C   UNL     1       1.345   9.558  18.637  0.00  0.00    +0.000 A 
ENDROOT
BRANCH   1   7
ATOM      7  N   UNL     1      -0.093  11.169  19.773  0.00  0.00    +0.000 N 
ATOM      8  H   UNL     1      -1.080  11.146  20.033  0.00  0.00    +0.000 HD
BRANCH   7   9
ATOM      9  S   UNL     1       0.676  12.471  20.532  0.00  0.00    +0.000 S 
ATOM     10  O   UNL     1       0.842  13.564  19.600  0.00  0.00    +0.000 OA
ATOM     11  O   UNL     1       1.809  11.903  21.233  0.00  0.00    +0.000 OA
BRANCH   9  15
ATOM     12  C   UNL     1      -2.444  13.729  23.610  0.00  0.00    +0.000 A 
ATOM     13  C   UNL     1      -1.654  14.688  22.960  0.00  0.00    +0.000 A 
ATOM     14  C   UNL     1      -0.691  14.294  22.034  0.00  0.00    +0.000 A 
ATOM     15  C   UNL     1      -0.510  12.934  21.765  0.00  0.00    +0.000 A 
ATOM     16  C   UNL     1      -1.278  11.966  22.411  0.00  0.00    +0.000 A 
ATOM     17  C   UNL     1      -2.244  12.367  23.335  0.00  0.00    +0.000 A 
BRANCH  12  19
ATOM     18  C   UNL     1      -3.211  15.494  25.189  0.00  0.00    +0.000 C 
ATOM     19  C   UNL     1      -3.557  14.170  24.526  0.00  0.00    +0.000 C 
ENDBRANCH  12  19
ENDBRANCH   9  15
ENDBRANCH   7   9
ENDBRANCH   1   7
BRANCH   4  20
ATOM     20  C   UNL     1       2.748   6.186  19.767  0.00  0.00    +0.000 C 
BRANCH  20  21
ATOM     21  C   UNL     1       2.209   5.207  20.823  0.00  0.00    +0.000 C 
BRANCH  21  22
ATOM     22  N   UNL     1       1.062   4.442  20.309  0.00  0.00    +0.000 NA
ATOM     23  H   UNL     1       0.749   4.890  19.446  0.00  0.00    +0.000 HD
BRANCH  22  24
ATOM     24  C   UNL     1       1.478   3.059  19.990  0.00  0.00    +0.000 C 
BRANCH  24  25
ATOM     25  C   UNL     1       1.335   2.729  18.490  0.00  0.00    +0.000 C 
BRANCH  25  26
ATOM     26  O   UNL     1       0.300   1.744  18.335  0.00  0.00    +0.000 OA
ATOM     27  H   UNL     1      -0.020   1.525  19.226  0.00  0.00    +0.000 HD
ENDBRANCH  25  26
BRANCH  25  28
ATOM     28  C   UNL     1       2.663   2.247  17.885  0.00  0.00    +0.000 C 
BRANCH  28  29
ATOM     29  O   UNL     1       3.762   2.801  18.621  0.00  0.00    +0.000 OA
BRANCH  29  30
ATOM     30  C   UNL     1       4.571   3.660  17.936  0.00  0.00    +0.000 A 
ATOM     31  C   UNL     1       4.450   4.018  16.600  0.00  0.00    +0.000 A 
ATOM     32  C   UNL     1       5.370   4.901  16.035  0.00  0.00    +0.000 A 
ATOM     33  C   UNL     1       6.385   5.417  16.827  0.00  0.00    +0.000 A 
ATOM     34  N   UNL     1       7.340   6.268  16.278  0.00  0.00    +0.000 N 
ATOM     35  N   UNL     1       6.534   5.090  18.120  0.00  0.00    +0.000 NA
ATOM     36  C   UNL     1       5.630   4.222  18.642  0.00  0.00    +0.000 A 
ATOM     37  H   UNL     1       6.915   7.052  15.800  0.00  0.00    +0.000 HD
ATOM     38  H   UNL     1       7.944   6.565  17.040  0.00  0.00    +0.000 HD
ENDBRANCH  29  30
ENDBRANCH  28  29
ENDBRANCH  25  28
ENDBRANCH  24  25
ENDBRANCH  22  24
ENDBRANCH  21  22
ENDBRANCH  20  21
ENDBRANCH   4  20
TORSDOF 13
ENDMDL
MODEL 7
REMARK VINA RESULT:      -7.7      3.492     10.575
REMARK  Name = 
REMARK  14 active torsions:
REMARK  status: ('A' for Active; 'I' for Inactive)
REMARK    1  A    between atoms: C_1  and  C_2
REMARK    2  A    between atoms: C_2  and  C_3
REMARK    3  A    between atoms: C_6  and  S_7
REMARK    4  A    between atoms: S_7  and  N_10
REMARK    5  A    between atoms: N_10  and  C_11
REMARK    6  A    between atoms: C_14  and  C_15
REMARK    7  A    between atoms: C_15  and  C_16
REMARK    8  A    between atoms: C_16  and  N_17
REMARK    9  A    between atoms: N_17  and  C_18
REMARK   10  A    between atoms: C_18  and  C_19
REMARK   11  A    between atoms: C_19  and  O_20
REMARK   12  A    between atoms: C_19  and  C_21
REMARK   13  A    between atoms: C_21  and  O_22
REMARK   14  A    between atoms: O_22  and  C_23
REMARK                            x       y       z     vdW  Elec       q    Type
REMARK                         _______ _______ _______ _____ _____    ______ ____
ROOT
ATOM      1  C   UNL     1       1.570   9.208  18.579  0.00  0.00    +0.000 A 
ATOM      2  C   UNL     1       1.185   8.915  19.881  0.00  0.00    +0.000 A 
ATOM      3  C   UNL     1       1.553   7.699  20.459  0.00  0.00    +0.000 A 
ATOM      4  C   UNL     1       2.300   6.762  19.731  0.00  0.00    +0.000 A 
ATOM      5  C   UNL     1       2.700   7.081  18.428  0.00  0.00    +0.000 A 
ATOM      6  C   UNL     1       2.347   8.307  17.853  0.00  0.00    +0.000 A 
ENDROOT
BRANCH   1   7
ATOM      7  N   UNL     1       1.228  10.470  18.018  0.00  0.00    +0.000 N 
ATOM      8  H   UNL     1       0.522  10.467  17.281  0.00  0.00    +0.000 HD
BRANCH   7   9
ATOM      9  S   UNL     1       0.946  11.751  19.085  0.00  0.00    +0.000 S 
ATOM     10  O   UNL     1       1.527  12.969  18.566  0.00  0.00    +0.000 OA
ATOM     11  O   UNL     1       1.297  11.252  20.399  0.00  0.00    +0.000 OA
BRANCH   9  15
ATOM     12  C   UNL     1      -3.607  11.967  18.980  0.00  0.00    +0.000 A 
ATOM     13  C   UNL     1      -2.896  11.361  17.934  0.00  0.00    +0.000 A 
ATOM     14  C   UNL     1      -1.505  11.315  17.966  0.00  0.00    +0.000 A 
ATOM     15  C   UNL     1      -0.820  11.887  19.043  0.00  0.00    +0.000 A 
ATOM     16  C   UNL     1      -1.511  12.504  20.086  0.00  0.00    +0.000 A 
ATOM     17  C   UNL     1      -2.905  12.544  20.050  0.00  0.00    +0.000 A 
BRANCH  12  19
ATOM     18  C   UNL     1      -5.653  11.728  17.583  0.00  0.00    +0.000 C 
ATOM     19  C   UNL     1      -5.114  11.915  18.992  0.00  0.00    +0.000 C 
ENDBRANCH  12  19
ENDBRANCH   9  15
ENDBRANCH   7   9
ENDBRANCH   1   7
BRANCH   4  20
ATOM     20  C   UNL     1       2.688   5.440  20.358  0.00  0.00    +0.000 C 
BRANCH  20  21
ATOM     21  C   UNL     1       1.567   4.391  20.256  0.00  0.00    +0.000 C 
BRANCH  21  22
ATOM     22  N   UNL     1       1.427   3.889  18.881  0.00  0.00    +0.000 NA
ATOM     23  H   UNL     1       2.034   4.448  18.280  0.00  0.00    +0.000 HD
BRANCH  22  24
ATOM     24  C   UNL     1       1.873   2.480  18.809  0.00  0.00    +0.000 C 
BRANCH  24  25
ATOM     25  C   UNL     1       3.201   2.319  18.042  0.00  0.00    +0.000 C 
BRANCH  25  26
ATOM     26  O   UNL     1       4.240   2.008  18.984  0.00  0.00    +0.000 OA
ATOM     27  H   UNL     1       4.880   1.439  18.524  0.00  0.00    +0.000 HD
ENDBRANCH  25  26
BRANCH  25  28
ATOM     28  C   UNL     1       3.541   3.576  17.225  0.00  0.00    +0.000 C 
BRANCH  28  29
ATOM     29  O   UNL     1       4.893   3.497  16.752  0.00  0.00    +0.000 OA
BRANCH  29  30
ATOM     30  C   UNL     1       5.676   4.588  16.991  0.00  0.00    +0.000 A 
ATOM     31  C   UNL     1       6.707   4.676  17.917  0.00  0.00    +0.000 A 
ATOM     32  C   UNL     1       7.410   5.872  18.057  0.00  0.00    +0.000 A 
ATOM     33  C   UNL     1       7.072   6.952  17.256  0.00  0.00    +0.000 A 
ATOM     34  N   UNL     1       7.731   8.170  17.403  0.00  0.00    +0.000 N 
ATOM     35  N   UNL     1       6.080   6.903  16.353  0.00  0.00    +0.000 NA
ATOM     36  C   UNL     1       5.407   5.730  16.243  0.00  0.00    +0.000 A 
ATOM     37  H   UNL     1       8.736   8.064  17.343  0.00  0.00    +0.000 HD
ATOM     38  H   UNL     1       7.367   8.791  16.685  0.00  0.00    +0.000 HD
ENDBRANCH  29  30
ENDBRANCH  28  29
ENDBRANCH  25  28
ENDBRANCH  24  25
ENDBRANCH  22  24
ENDBRANCH  21  22
ENDBRANCH  20  21
ENDBRANCH   4  20
TORSDOF 13
ENDMDL
MODEL 8
REMARK VINA RESULT:      -7.6      3.320     11.298
REMARK  Name = 
REMARK  14 active torsions:
REMARK  status: ('A' for Active; 'I' for Inactive)
REMARK    1  A    between atoms: C_1  and  C_2
REMARK    2  A    between atoms: C_2  and  C_3
REMARK    3  A    between atoms: C_6  and  S_7
REMARK    4  A    between atoms: S_7  and  N_10
REMARK    5  A    between atoms: N_10  and  C_11
REMARK    6  A    between atoms: C_14  and  C_15
REMARK    7  A    between atoms: C_15  and  C_16
REMARK    8  A    between atoms: C_16  and  N_17
REMARK    9  A    between atoms: N_17  and  C_18
REMARK   10  A    between atoms: C_18  and  C_19
REMARK   11  A    between atoms: C_19  and  O_20
REMARK   12  A    between atoms: C_19  and  C_21
REMARK   13  A    between atoms: C_21  and  O_22
REMARK   14  A    between atoms: O_22  and  C_23
REMARK                            x       y       z     vdW  Elec       q    Type
REMARK                         _______ _______ _______ _____ _____    ______ ____
ROOT
ATOM      1  C   UNL     1       0.959  10.029  19.670  0.00  0.00    +0.000 A 
ATOM      2  C   UNL     1       1.599   9.345  18.645  0.00  0.00    +0.000 A 
ATOM      3  C   UNL     1       2.069   8.049  18.859  0.00  0.00    +0.000 A 
ATOM      4  C   UNL     1       1.912   7.433  20.109  0.00  0.00    +0.000 A 
ATOM      5  C   UNL     1       1.246   8.126  21.126  0.00  0.00    +0.000 A 
ATOM      6  C   UNL     1       0.758   9.419  20.908  0.00  0.00    +0.000 A 
ENDROOT
BRANCH   1   7
ATOM      7  N   UNL     1       0.443  11.333  19.425  0.00  0.00    +0.000 N 
ATOM      8  H   UNL     1       1.035  11.965  18.886  0.00  0.00    +0.000 HD
BRANCH   7   9
ATOM      9  S   UNL     1      -1.162  11.453  18.905  0.00  0.00    +0.000 S 
ATOM     10  O   UNL     1      -1.712  10.136  18.677  0.00  0.00    +0.000 OA
ATOM     11  O   UNL     1      -1.162  12.458  17.862  0.00  0.00    +0.000 OA
BRANCH   9  15
ATOM     12  C   UNL     1      -3.276  13.205  22.546  0.00  0.00    +0.000 A 
ATOM     13  C   UNL     1      -3.990  12.922  21.372  0.00  0.00    +0.000 A 
ATOM     14  C   UNL     1      -3.333  12.403  20.259  0.00  0.00    +0.000 A 
ATOM     15  C   UNL     1      -1.954  12.177  20.315  0.00  0.00    +0.000 A 
ATOM     16  C   UNL     1      -1.226  12.463  21.470  0.00  0.00    +0.000 A 
ATOM     17  C   UNL     1      -1.891  12.980  22.584  0.00  0.00    +0.000 A 
BRANCH  12  19
ATOM     18  C   UNL     1      -4.342  12.475  24.673  0.00  0.00    +0.000 C 
ATOM     19  C   UNL     1      -4.011  13.660  23.780  0.00  0.00    +0.000 C 
ENDBRANCH  12  19
ENDBRANCH   9  15
ENDBRANCH   7   9
ENDBRANCH   1   7
BRANCH   4  20
ATOM     20  C   UNL     1       2.435   6.031  20.341  0.00  0.00    +0.000 C 
BRANCH  20  21
ATOM     21  C   UNL     1       1.328   4.968  20.238  0.00  0.00    +0.000 C 
BRANCH  21  22
ATOM     22  N   UNL     1       1.619   3.808  21.095  0.00  0.00    +0.000 NA
ATOM     23  H   UNL     1       0.774   3.236  21.143  0.00  0.00    +0.000 HD
BRANCH  22  24
ATOM     24  C   UNL     1       2.697   2.993  20.494  0.00  0.00    +0.000 C 
BRANCH  24  25
ATOM     25  C   UNL     1       2.500   2.775  18.980  0.00  0.00    +0.000 C 
BRANCH  25  26
ATOM     26  O   UNL     1       1.897   1.486  18.777  0.00  0.00    +0.000 OA
ATOM     27  H   UNL     1       1.022   1.640  18.385  0.00  0.00    +0.000 HD
ENDBRANCH  25  26
BRANCH  25  28
ATOM     28  C   UNL     1       3.824   2.903  18.210  0.00  0.00    +0.000 C 
BRANCH  28  29
ATOM     29  O   UNL     1       4.003   4.257  17.771  0.00  0.00    +0.000 OA
BRANCH  29  30
ATOM     30  C   UNL     1       4.910   4.448  16.770  0.00  0.00    +0.000 A 
ATOM     31  C   UNL     1       5.353   3.492  15.866  0.00  0.00    +0.000 A 
ATOM     32  C   UNL     1       6.302   3.839  14.903  0.00  0.00    +0.000 A 
ATOM     33  C   UNL     1       6.777   5.141  14.861  0.00  0.00    +0.000 A 
ATOM     34  N   UNL     1       7.753   5.503  13.938  0.00  0.00    +0.000 N 
ATOM     35  N   UNL     1       6.373   6.088  15.722  0.00  0.00    +0.000 NA
ATOM     36  C   UNL     1       5.456   5.722  16.653  0.00  0.00    +0.000 A 
ATOM     37  H   UNL     1       7.486   5.258  12.992  0.00  0.00    +0.000 HD
ATOM     38  H   UNL     1       7.907   6.502  14.046  0.00  0.00    +0.000 HD
ENDBRANCH  29  30
ENDBRANCH  28  29
ENDBRANCH  25  28
ENDBRANCH  24  25
ENDBRANCH  22  24
ENDBRANCH  21  22
ENDBRANCH  20  21
ENDBRANCH   4  20
TORSDOF 13
ENDMDL
MODEL 9
REMARK VINA RESULT:      -7.6      4.579     10.672
REMARK  Name = 
REMARK  14 active torsions:
REMARK  status: ('A' for Active; 'I' for Inactive)
REMARK    1  A    between atoms: C_1  and  C_2
REMARK    2  A    between atoms: C_2  and  C_3
REMARK    3  A    between atoms: C_6  and  S_7
REMARK    4  A    between atoms: S_7  and  N_10
REMARK    5  A    between atoms: N_10  and  C_11
REMARK    6  A    between atoms: C_14  and  C_15
REMARK    7  A    between atoms: C_15  and  C_16
REMARK    8  A    between atoms: C_16  and  N_17
REMARK    9  A    between atoms: N_17  and  C_18
REMARK   10  A    between atoms: C_18  and  C_19
REMARK   11  A    between atoms: C_19  and  O_20
REMARK   12  A    between atoms: C_19  and  C_21
REMARK   13  A    between atoms: C_21  and  O_22
REMARK   14  A    between atoms: O_22  and  C_23
REMARK                            x       y       z     vdW  Elec       q    Type
REMARK                         _______ _______ _______ _____ _____    ______ ____
ROOT
ATOM      1  C   UNL     1       1.203  10.365  18.926  0.00  0.00    +0.000 A 
ATOM      2  C   UNL     1       1.901   9.720  17.914  0.00  0.00    +0.000 A 
ATOM      3  C   UNL     1       2.326   8.402  18.092  0.00  0.00    +0.000 A 
ATOM      4  C   UNL     1       2.065   7.726  19.292  0.00  0.00    +0.000 A 
ATOM      5  C   UNL     1       1.342   8.382  20.295  0.00  0.00    +0.000 A 
ATOM      6  C   UNL     1       0.899   9.697  20.111  0.00  0.00    +0.000 A 
ENDROOT
BRANCH   1   7
ATOM      7  N   UNL     1       0.735  11.692  18.715  0.00  0.00    +0.000 N 
ATOM      8  H   UNL     1      -0.077  11.800  18.106  0.00  0.00    +0.000 HD
BRANCH   7   9
ATOM      9  S   UNL     1       0.581  12.692  20.070  0.00  0.00    +0.000 S 
ATOM     10  O   UNL     1       1.664  12.446  20.997  0.00  0.00    +0.000 OA
ATOM     11  O   UNL     1      -0.802  12.583  20.485  0.00  0.00    +0.000 OA
BRANCH   9  15
ATOM     12  C   UNL     1       1.131  16.787  18.139  0.00  0.00    +0.000 A 
ATOM     13  C   UNL     1       2.229  15.938  18.341  0.00  0.00    +0.000 A 
ATOM     14  C   UNL     1       2.055  14.697  18.947  0.00  0.00    +0.000 A 
ATOM     15  C   UNL     1       0.779  14.306  19.364  0.00  0.00    +0.000 A 
ATOM     16  C   UNL     1      -0.323  15.142  19.182  0.00  0.00    +0.000 A 
ATOM     17  C   UNL     1      -0.143  16.383  18.571  0.00  0.00    +0.000 A 
BRANCH  12  19
ATOM     18  C   UNL     1       0.063  18.400  16.575  0.00  0.00    +0.000 C 
ATOM     19  C   UNL     1       1.309  18.079  17.383  0.00  0.00    +0.000 C 
ENDBRANCH  12  19
ENDBRANCH   9  15
ENDBRANCH   7   9
ENDBRANCH   1   7
BRANCH   4  20
ATOM     20  C   UNL     1       2.538   6.301  19.485  0.00  0.00    +0.000 C 
BRANCH  20  21
ATOM     21  C   UNL     1       1.906   5.634  20.718  0.00  0.00    +0.000 C 
BRANCH  21  22
ATOM     22  N   UNL     1       1.507   4.247  20.432  0.00  0.00    +0.000 NA
ATOM     23  H   UNL     1       0.607   4.081  20.885  0.00  0.00    +0.000 HD
BRANCH  22  24
ATOM     24  C   UNL     1       1.335   4.062  18.974  0.00  0.00    +0.000 C 
BRANCH  24  25
ATOM     25  C   UNL     1       1.976   2.755  18.465  0.00  0.00    +0.000 C 
BRANCH  25  26
ATOM     26  O   UNL     1       2.698   2.145  19.548  0.00  0.00    +0.000 OA
ATOM     27  H   UNL     1       2.979   2.862  20.141  0.00  0.00    +0.000 HD
ENDBRANCH  25  26
BRANCH  25  28
ATOM     28  C   UNL     1       2.888   3.004  17.252  0.00  0.00    +0.000 C 
BRANCH  28  29
ATOM     29  O   UNL     1       4.257   3.058  17.676  0.00  0.00    +0.000 OA
BRANCH  29  30
ATOM     30  C   UNL     1       4.904   4.240  17.464  0.00  0.00    +0.000 A 
ATOM     31  C   UNL     1       4.770   5.066  16.355  0.00  0.00    +0.000 A 
ATOM     32  C   UNL     1       5.516   6.241  16.275  0.00  0.00    +0.000 A 
ATOM     33  C   UNL     1       6.372   6.570  17.315  0.00  0.00    +0.000 A 
ATOM     34  N   UNL     1       7.158   7.716  17.243  0.00  0.00    +0.000 N 
ATOM     35  N   UNL     1       6.529   5.794  18.399  0.00  0.00    +0.000 NA
ATOM     36  C   UNL     1       5.798   4.652  18.448  0.00  0.00    +0.000 A 
ATOM     37  H   UNL     1       6.604   8.541  17.048  0.00  0.00    +0.000 HD
ATOM     38  H   UNL     1       7.658   7.790  18.125  0.00  0.00    +0.000 HD
ENDBRANCH  29  30
ENDBRANCH  28  29
ENDBRANCH  25  28
ENDBRANCH  24  25
ENDBRANCH  22  24
ENDBRANCH  21  22
ENDBRANCH  20  21
ENDBRANCH   4  20
TORSDOF 13
ENDMDL
