MODEL 1
REMARK VINA RESULT:      -7.8      0.000      0.000
REMARK  Name = 
REMARK  5 active torsions:
REMARK  status: ('A' for Active; 'I' for Inactive)
REMARK    1  A    between atoms: N_6  and  C1*_7
REMARK    2  A    between atoms: C3*_9  and  O3*_10
REMARK    3  A    between atoms: C4*_11  and  C5*_12
REMARK    4  A    between atoms: C5*_12  and  O5*_13
REMARK    5  A    between atoms: C_16  and  C_17
REMARK                            x       y       z     vdW  Elec       q    Type
REMARK                         _______ _______ _______ _____ _____    ______ ____
ROOT
ATOM      1  O   UNL     1       7.704   5.882  15.500  0.00  0.00    +0.000 OA
ATOM      2  C   UNL     1       6.884   5.427  16.289  0.00  0.00    +0.000 A 
ATOM      3  N   UNL     1       6.995   5.684  17.622  0.00  0.00    +0.000 N 
ATOM      4  C   UNL     1       6.282   5.088  18.622  0.00  0.00    +0.000 A 
ATOM      5  O   UNL     1       6.566   5.310  19.797  0.00  0.00    +0.000 OA
ATOM      6  N   UNL     1       5.260   4.239  18.214  0.00  0.00    +0.000 N 
ATOM      7  C   UNL     1       4.990   4.042  16.870  0.00  0.00    +0.000 A 
ATOM      8  C   UNL     1       5.731   4.564  15.874  0.00  0.00    +0.000 A 
ATOM      9  H   UNL     1       7.768   6.264  17.907  0.00  0.00    +0.000 HD
ENDROOT
BRANCH   6  10
ATOM     10  C1* UNL     1       4.428   3.667  19.279  0.00  0.00    +0.000 C 
ATOM     11  C2* UNL     1       3.568   2.480  18.851  0.00  0.00    +0.000 C 
ATOM     12  C3* UNL     1       2.218   3.089  18.562  0.00  0.00    +0.000 C 
ATOM     13  C4* UNL     1       2.175   4.336  19.437  0.00  0.00    +0.000 C 
ATOM     14  O4* UNL     1       3.535   4.654  19.819  0.00  0.00    +0.000 OA
BRANCH  12  15
ATOM     15  O3* UNL     1       2.120   3.417  17.177  0.00  0.00    +0.000 OA
ATOM     16  H3* UNL     1       2.459   4.319  17.037  0.00  0.00    +0.000 HD
ENDBRANCH  12  15
BRANCH  13  17
ATOM     17  C5* UNL     1       1.356   4.132  20.712  0.00  0.00    +0.000 C 
BRANCH  17  18
ATOM     18  O5* UNL     1       0.458   3.037  20.541  0.00  0.00    +0.000 OA
ATOM     19  H5* UNL     1       0.865   2.277  20.997  0.00  0.00    +0.000 HD
ENDBRANCH  17  18
ENDBRANCH  13  17
ENDBRANCH   6  10
BRANCH   8  20
ATOM     20  C   UNL     1       5.412   4.266  14.485  0.00  0.00    +0.000 C 
ATOM     21  C   UNL     1       6.170   3.612  13.599  0.00  0.00    +0.000 C 
ATOM     22 BR   UNL     1       5.635   3.243  11.855  0.00  0.00    +0.000 Br
ENDBRANCH   8  20
TORSDOF 5
ENDMDL
MODEL 2
REMARK VINA RESULT:      -7.6      0.931      1.071
REMARK  Name = 
REMARK  5 active torsions:
REMARK  status: ('A' for Active; 'I' for Inactive)
REMARK    1  A    between atoms: N_6  and  C1*_7
REMARK    2  A    between atoms: C3*_9  and  O3*_10
REMARK    3  A    between atoms: C4*_11  and  C5*_12
REMARK    4  A    between atoms: C5*_12  and  O5*_13
REMARK    5  A    between atoms: C_16  and  C_17
REMARK                            x       y       z     vdW  Elec       q    Type
REMARK                         _______ _______ _______ _____ _____    ______ ____
ROOT
ATOM      1  O   UNL     1       7.811   5.505  15.326  0.00  0.00    +0.000 OA
ATOM      2  C   UNL     1       6.948   5.264  16.162  0.00  0.00    +0.000 A 
ATOM      3  N   UNL     1       7.167   5.547  17.477  0.00  0.00    +0.000 N 
ATOM      4  C   UNL     1       6.390   5.156  18.527  0.00  0.00    +0.000 A 
ATOM      5  O   UNL     1       6.763   5.362  19.681  0.00  0.00    +0.000 OA
ATOM      6  N   UNL     1       5.197   4.524  18.196  0.00  0.00    +0.000 N 
ATOM      7  C   UNL     1       4.834   4.333  16.873  0.00  0.00    +0.000 A 
ATOM      8  C   UNL     1       5.624   4.647  15.829  0.00  0.00    +0.000 A 
ATOM      9  H   UNL     1       8.056   5.963  17.707  0.00  0.00    +0.000 HD
ENDROOT
BRANCH   6  10
ATOM     10  C1* UNL     1       4.310   4.183  19.315  0.00  0.00    +0.000 C 
ATOM     11  C2* UNL     1       4.475   2.765  19.854  0.00  0.00    +0.000 C 
ATOM     12  C3* UNL     1       3.385   1.980  19.168  0.00  0.00    +0.000 C 
ATOM     13  C4* UNL     1       2.313   3.019  18.861  0.00  0.00    +0.000 C 
ATOM     14  O4* UNL     1       2.931   4.326  18.938  0.00  0.00    +0.000 OA
BRANCH  12  15
ATOM     15  O3* UNL     1       3.893   1.383  17.976  0.00  0.00    +0.000 OA
ATOM     16  H3* UNL     1       3.195   1.381  17.296  0.00  0.00    +0.000 HD
ENDBRANCH  12  15
BRANCH  13  17
ATOM     17  C5* UNL     1       1.153   2.979  19.857  0.00  0.00    +0.000 C 
BRANCH  17  18
ATOM     18  O5* UNL     1       0.019   2.359  19.255  0.00  0.00    +0.000 OA
ATOM     19  H5* UNL     1      -0.251   2.939  18.518  0.00  0.00    +0.000 HD
ENDBRANCH  17  18
ENDBRANCH  13  17
ENDBRANCH   6  10
BRANCH   8  20
ATOM     20  C   UNL     1       5.191   4.366  14.467  0.00  0.00    +0.000 C 
ATOM     21  C   UNL     1       5.861   3.698  13.522  0.00  0.00    +0.000 C 
ATOM     22 BR   UNL     1       5.183   3.354  11.824  0.00  0.00    +0.000 Br
ENDBRANCH   8  20
TORSDOF 5
ENDMDL
MODEL 3
REMARK VINA RESULT:      -7.1      1.010      1.041
REMARK  Name = 
REMARK  5 active torsions:
REMARK  status: ('A' for Active; 'I' for Inactive)
REMARK    1  A    between atoms: N_6  and  C1*_7
REMARK    2  A    between atoms: C3*_9  and  O3*_10
REMARK    3  A    between atoms: C4*_11  and  C5*_12
REMARK    4  A    between atoms: C5*_12  and  O5*_13
REMARK    5  A    between atoms: C_16  and  C_17
REMARK                            x       y       z     vdW  Elec       q    Type
REMARK                         _______ _______ _______ _____ _____    ______ ____
ROOT
ATOM      1  O   UNL     1       7.859   5.264  14.770  0.00  0.00    +0.000 OA
ATOM      2  C   UNL     1       7.105   5.104  15.723  0.00  0.00    +0.000 A 
ATOM      3  N   UNL     1       7.523   5.395  16.987  0.00  0.00    +0.000 N 
ATOM      4  C   UNL     1       6.872   5.082  18.145  0.00  0.00    +0.000 A 
ATOM      5  O   UNL     1       7.416   5.281  19.230  0.00  0.00    +0.000 OA
ATOM      6  N   UNL     1       5.603   4.535  17.998  0.00  0.00    +0.000 N 
ATOM      7  C   UNL     1       5.049   4.346  16.742  0.00  0.00    +0.000 A 
ATOM      8  C   UNL     1       5.707   4.581  15.592  0.00  0.00    +0.000 A 
ATOM      9  H   UNL     1       8.463   5.748  17.081  0.00  0.00    +0.000 HD
ENDROOT
BRANCH   6  10
ATOM     10  C1* UNL     1       4.858   4.282  19.236  0.00  0.00    +0.000 C 
ATOM     11  C2* UNL     1       4.533   2.814  19.500  0.00  0.00    +0.000 C 
ATOM     12  C3* UNL     1       3.121   2.652  18.994  0.00  0.00    +0.000 C 
ATOM     13  C4* UNL     1       2.517   4.045  19.119  0.00  0.00    +0.000 C 
ATOM     14  O4* UNL     1       3.608   4.990  19.236  0.00  0.00    +0.000 OA
BRANCH  12  15
ATOM     15  O3* UNL     1       3.139   2.208  17.638  0.00  0.00    +0.000 OA
ATOM     16  H3* UNL     1       3.777   1.477  17.549  0.00  0.00    +0.000 HD
ENDBRANCH  12  15
BRANCH  13  17
ATOM     17  C5* UNL     1       1.624   4.191  20.352  0.00  0.00    +0.000 C 
BRANCH  17  18
ATOM     18  O5* UNL     1       2.232   5.081  21.287  0.00  0.00    +0.000 OA
ATOM     19  H5* UNL     1       3.195   4.958  21.194  0.00  0.00    +0.000 HD
ENDBRANCH  17  18
ENDBRANCH  13  17
ENDBRANCH   6  10
BRANCH   8  20
ATOM     20  C   UNL     1       5.071   4.307  14.311  0.00  0.00    +0.000 C 
ATOM     21  C   UNL     1       5.583   3.634  13.276  0.00  0.00    +0.000 C 
ATOM     22 BR   UNL     1       4.654   3.300  11.698  0.00  0.00    +0.000 Br
ENDBRANCH   8  20
TORSDOF 5
ENDMDL
MODEL 4
REMARK VINA RESULT:      -7.0      1.483      1.502
REMARK  Name = 
REMARK  5 active torsions:
REMARK  status: ('A' for Active; 'I' for Inactive)
REMARK    1  A    between atoms: N_6  and  C1*_7
REMARK    2  A    between atoms: C3*_9  and  O3*_10
REMARK    3  A    between atoms: C4*_11  and  C5*_12
REMARK    4  A    between atoms: C5*_12  and  O5*_13
REMARK    5  A    between atoms: C_16  and  C_17
REMARK                            x       y       z     vdW  Elec       q    Type
REMARK                         _______ _______ _______ _____ _____    ______ ____
ROOT
ATOM      1  O   UNL     1       5.723   6.855  15.635  0.00  0.00    +0.000 OA
ATOM      2  C   UNL     1       5.303   5.995  16.399  0.00  0.00    +0.000 A 
ATOM      3  N   UNL     1       4.664   6.348  17.549  0.00  0.00    +0.000 N 
ATOM      4  C   UNL     1       4.326   5.514  18.575  0.00  0.00    +0.000 A 
ATOM      5  O   UNL     1       3.870   5.976  19.620  0.00  0.00    +0.000 OA
ATOM      6  N   UNL     1       4.542   4.160  18.350  0.00  0.00    +0.000 N 
ATOM      7  C   UNL     1       5.052   3.709  17.144  0.00  0.00    +0.000 A 
ATOM      8  C   UNL     1       5.458   4.525  16.153  0.00  0.00    +0.000 A 
ATOM      9  H   UNL     1       4.556   7.336  17.720  0.00  0.00    +0.000 HD
ENDROOT
BRANCH   6  10
ATOM     10  C1* UNL     1       4.096   3.247  19.409  0.00  0.00    +0.000 C 
ATOM     11  C2* UNL     1       3.482   1.940  18.912  0.00  0.00    +0.000 C 
ATOM     12  C3* UNL     1       1.995   2.196  18.946  0.00  0.00    +0.000 C 
ATOM     13  C4* UNL     1       1.822   3.257  20.026  0.00  0.00    +0.000 C 
ATOM     14  O4* UNL     1       3.113   3.875  20.247  0.00  0.00    +0.000 OA
BRANCH  12  15
ATOM     15  O3* UNL     1       1.554   2.667  17.673  0.00  0.00    +0.000 OA
ATOM     16  H3* UNL     1       1.741   1.990  16.999  0.00  0.00    +0.000 HD
ENDBRANCH  12  15
BRANCH  13  17
ATOM     17  C5* UNL     1       1.340   2.670  21.354  0.00  0.00    +0.000 C 
BRANCH  17  18
ATOM     18  O5* UNL     1       2.344   2.843  22.353  0.00  0.00    +0.000 OA
ATOM     19  H5* UNL     1       2.360   3.796  22.562  0.00  0.00    +0.000 HD
ENDBRANCH  17  18
ENDBRANCH  13  17
ENDBRANCH   6  10
BRANCH   8  20
ATOM     20  C   UNL     1       6.032   3.973  14.934  0.00  0.00    +0.000 C 
ATOM     21  C   UNL     1       5.473   3.926  13.720  0.00  0.00    +0.000 C 
ATOM     22 BR   UNL     1       6.325   3.238  12.215  0.00  0.00    +0.000 Br
ENDBRANCH   8  20
TORSDOF 5
ENDMDL
MODEL 5
REMARK VINA RESULT:      -6.9      3.190      5.904
REMARK  Name = 
REMARK  5 active torsions:
REMARK  status: ('A' for Active; 'I' for Inactive)
REMARK    1  A    between atoms: N_6  and  C1*_7
REMARK    2  A    between atoms: C3*_9  and  O3*_10
REMARK    3  A    between atoms: C4*_11  and  C5*_12
REMARK    4  A    between atoms: C5*_12  and  O5*_13
REMARK    5  A    between atoms: C_16  and  C_17
REMARK                            x       y       z     vdW  Elec       q    Type
REMARK                         _______ _______ _______ _____ _____    ______ ____
ROOT
ATOM      1  O   UNL     1       1.786   5.800  20.732  0.00  0.00    +0.000 OA
ATOM      2  C   UNL     1       2.567   5.419  19.868  0.00  0.00    +0.000 A 
ATOM      3  N   UNL     1       3.300   4.286  20.056  0.00  0.00    +0.000 N 
ATOM      4  C   UNL     1       4.338   3.857  19.281  0.00  0.00    +0.000 A 
ATOM      5  O   UNL     1       5.008   2.887  19.629  0.00  0.00    +0.000 OA
ATOM      6  N   UNL     1       4.568   4.587  18.120  0.00  0.00    +0.000 N 
ATOM      7  C   UNL     1       3.766   5.665  17.785  0.00  0.00    +0.000 A 
ATOM      8  C   UNL     1       2.788   6.144  18.576  0.00  0.00    +0.000 A 
ATOM      9  H   UNL     1       3.155   3.793  20.924  0.00  0.00    +0.000 HD
ENDROOT
BRANCH   6  10
ATOM     10  C1* UNL     1       5.620   4.079  17.232  0.00  0.00    +0.000 C 
ATOM     11  C2* UNL     1       6.990   4.725  17.427  0.00  0.00    +0.000 C 
ATOM     12  C3* UNL     1       7.049   5.792  16.361  0.00  0.00    +0.000 C 
ATOM     13  C4* UNL     1       6.119   5.280  15.268  0.00  0.00    +0.000 C 
ATOM     14  O4* UNL     1       5.264   4.269  15.853  0.00  0.00    +0.000 OA
BRANCH  12  15
ATOM     15  O3* UNL     1       6.596   7.036  16.894  0.00  0.00    +0.000 OA
ATOM     16  H3* UNL     1       6.011   6.864  17.653  0.00  0.00    +0.000 HD
ENDBRANCH  12  15
BRANCH  13  17
ATOM     17  C5* UNL     1       6.878   4.646  14.101  0.00  0.00    +0.000 C 
BRANCH  17  18
ATOM     18  O5* UNL     1       6.309   3.376  13.786  0.00  0.00    +0.000 OA
ATOM     19  H5* UNL     1       6.497   2.796  14.549  0.00  0.00    +0.000 HD
ENDBRANCH  17  18
ENDBRANCH  13  17
ENDBRANCH   6  10
BRANCH   8  20
ATOM     20  C   UNL     1       2.023   7.317  18.174  0.00  0.00    +0.000 C 
ATOM     21  C   UNL     1       1.999   8.514  18.769  0.00  0.00    +0.000 C 
ATOM     22 BR   UNL     1       1.018   9.962  18.134  0.00  0.00    +0.000 Br
ENDBRANCH   8  20
TORSDOF 5
ENDMDL
MODEL 6
REMARK VINA RESULT:      -6.9      1.553      1.975
REMARK  Name = 
REMARK  5 active torsions:
REMARK  status: ('A' for Active; 'I' for Inactive)
REMARK    1  A    between atoms: N_6  and  C1*_7
REMARK    2  A    between atoms: C3*_9  and  O3*_10
REMARK    3  A    between atoms: C4*_11  and  C5*_12
REMARK    4  A    between atoms: C5*_12  and  O5*_13
REMARK    5  A    between atoms: C_16  and  C_17
REMARK                            x       y       z     vdW  Elec       q    Type
REMARK                         _______ _______ _______ _____ _____    ______ ____
ROOT
ATOM      1  O   UNL     1       7.920   5.581  14.401  0.00  0.00    +0.000 OA
ATOM      2  C   UNL     1       6.895   5.458  15.060  0.00  0.00    +0.000 A 
ATOM      3  N   UNL     1       6.570   6.382  16.007  0.00  0.00    +0.000 N 
ATOM      4  C   UNL     1       5.580   6.270  16.939  0.00  0.00    +0.000 A 
ATOM      5  O   UNL     1       5.470   7.115  17.826  0.00  0.00    +0.000 OA
ATOM      6  N   UNL     1       4.750   5.163  16.811  0.00  0.00    +0.000 N 
ATOM      7  C   UNL     1       4.926   4.255  15.780  0.00  0.00    +0.000 A 
ATOM      8  C   UNL     1       5.942   4.313  14.899  0.00  0.00    +0.000 A 
ATOM      9  H   UNL     1       7.207   7.155  16.120  0.00  0.00    +0.000 HD
ENDROOT
BRANCH   6  10
ATOM     10  C1* UNL     1       3.625   5.082  17.750  0.00  0.00    +0.000 C 
ATOM     11  C2* UNL     1       4.022   4.848  19.206  0.00  0.00    +0.000 C 
ATOM     12  C3* UNL     1       3.870   3.358  19.394  0.00  0.00    +0.000 C 
ATOM     13  C4* UNL     1       2.817   2.957  18.367  0.00  0.00    +0.000 C 
ATOM     14  O4* UNL     1       2.729   4.020  17.388  0.00  0.00    +0.000 OA
BRANCH  12  15
ATOM     15  O3* UNL     1       5.116   2.709  19.146  0.00  0.00    +0.000 OA
ATOM     16  H3* UNL     1       5.046   1.773  19.407  0.00  0.00    +0.000 HD
ENDBRANCH  12  15
BRANCH  13  17
ATOM     17  C5* UNL     1       1.433   2.766  18.990  0.00  0.00    +0.000 C 
BRANCH  17  18
ATOM     18  O5* UNL     1       1.563   2.495  20.385  0.00  0.00    +0.000 OA
ATOM     19  H5* UNL     1       2.294   3.057  20.704  0.00  0.00    +0.000 HD
ENDBRANCH  17  18
ENDBRANCH  13  17
ENDBRANCH   6  10
BRANCH   8  20
ATOM     20  C   UNL     1       6.088   3.288  13.874  0.00  0.00    +0.000 C 
ATOM     21  C   UNL     1       5.810   3.396  12.571  0.00  0.00    +0.000 C 
ATOM     22 BR   UNL     1       6.084   2.028  11.339  0.00  0.00    +0.000 Br
ENDBRANCH   8  20
TORSDOF 5
ENDMDL
MODEL 7
REMARK VINA RESULT:      -6.8      1.323      1.510
REMARK  Name = 
REMARK  5 active torsions:
REMARK  status: ('A' for Active; 'I' for Inactive)
REMARK    1  A    between atoms: N_6  and  C1*_7
REMARK    2  A    between atoms: C3*_9  and  O3*_10
REMARK    3  A    between atoms: C4*_11  and  C5*_12
REMARK    4  A    between atoms: C5*_12  and  O5*_13
REMARK    5  A    between atoms: C_16  and  C_17
REMARK                            x       y       z     vdW  Elec       q    Type
REMARK                         _______ _______ _______ _____ _____    ______ ____
ROOT
ATOM      1  O   UNL     1       7.962   5.267  14.159  0.00  0.00    +0.000 OA
ATOM      2  C   UNL     1       7.114   5.215  15.041  0.00  0.00    +0.000 A 
ATOM      3  N   UNL     1       7.254   5.956  16.176  0.00  0.00    +0.000 N 
ATOM      4  C   UNL     1       6.503   5.848  17.310  0.00  0.00    +0.000 A 
ATOM      5  O   UNL     1       6.812   6.483  18.316  0.00  0.00    +0.000 OA
ATOM      6  N   UNL     1       5.413   4.988  17.234  0.00  0.00    +0.000 N 
ATOM      7  C   UNL     1       5.119   4.311  16.063  0.00  0.00    +0.000 A 
ATOM      8  C   UNL     1       5.892   4.351  14.962  0.00  0.00    +0.000 A 
ATOM      9  H   UNL     1       8.074   6.540  16.234  0.00  0.00    +0.000 HD
ENDROOT
BRANCH   6  10
ATOM     10  C1* UNL     1       4.545   4.936  18.416  0.00  0.00    +0.000 C 
ATOM     11  C2* UNL     1       4.744   3.708  19.303  0.00  0.00    +0.000 C 
ATOM     12  C3* UNL     1       3.661   2.755  18.861  0.00  0.00    +0.000 C 
ATOM     13  C4* UNL     1       2.566   3.662  18.311  0.00  0.00    +0.000 C 
ATOM     14  O4* UNL     1       3.160   4.954  18.037  0.00  0.00    +0.000 OA
BRANCH  12  15
ATOM     15  O3* UNL     1       4.168   1.878  17.856  0.00  0.00    +0.000 OA
ATOM     16  H3* UNL     1       4.895   1.348  18.231  0.00  0.00    +0.000 HD
ENDBRANCH  12  15
BRANCH  13  17
ATOM     17  C5* UNL     1       1.418   3.863  19.301  0.00  0.00    +0.000 C 
BRANCH  17  18
ATOM     18  O5* UNL     1       1.077   2.618  19.907  0.00  0.00    +0.000 OA
ATOM     19  H5* UNL     1       0.666   2.836  20.766  0.00  0.00    +0.000 HD
ENDBRANCH  17  18
ENDBRANCH  13  17
ENDBRANCH   6  10
BRANCH   8  20
ATOM     20  C   UNL     1       5.540   3.567  13.786  0.00  0.00    +0.000 C 
ATOM     21  C   UNL     1       5.015   4.011  12.639  0.00  0.00    +0.000 C 
ATOM     22 BR   UNL     1       4.652   2.919  11.177  0.00  0.00    +0.000 Br
ENDBRANCH   8  20
TORSDOF 5
ENDMDL
MODEL 8
REMARK VINA RESULT:      -6.8      3.247      3.707
REMARK  Name = 
REMARK  5 active torsions:
REMARK  status: ('A' for Active; 'I' for Inactive)
REMARK    1  A    between atoms: N_6  and  C1*_7
REMARK    2  A    between atoms: C3*_9  and  O3*_10
REMARK    3  A    between atoms: C4*_11  and  C5*_12
REMARK    4  A    between atoms: C5*_12  and  O5*_13
REMARK    5  A    between atoms: C_16  and  C_17
REMARK                            x       y       z     vdW  Elec       q    Type
REMARK                         _______ _______ _______ _____ _____    ______ ____
ROOT
ATOM      1  O   UNL     1       5.208   7.185  15.252  0.00  0.00    +0.000 OA
ATOM      2  C   UNL     1       4.918   6.366  16.116  0.00  0.00    +0.000 A 
ATOM      3  N   UNL     1       5.434   5.106  16.069  0.00  0.00    +0.000 N 
ATOM      4  C   UNL     1       5.048   4.047  16.838  0.00  0.00    +0.000 A 
ATOM      5  O   UNL     1       5.497   2.924  16.611  0.00  0.00    +0.000 OA
ATOM      6  N   UNL     1       4.138   4.331  17.850  0.00  0.00    +0.000 N 
ATOM      7  C   UNL     1       3.681   5.623  18.054  0.00  0.00    +0.000 A 
ATOM      8  C   UNL     1       3.995   6.662  17.258  0.00  0.00    +0.000 A 
ATOM      9  H   UNL     1       6.056   4.901  15.303  0.00  0.00    +0.000 HD
ENDROOT
BRANCH   6  10
ATOM     10  C1* UNL     1       3.789   3.219  18.741  0.00  0.00    +0.000 C 
ATOM     11  C2* UNL     1       2.795   2.218  18.158  0.00  0.00    +0.000 C 
ATOM     12  C3* UNL     1       1.461   2.659  18.709  0.00  0.00    +0.000 C 
ATOM     13  C4* UNL     1       1.811   3.367  20.012  0.00  0.00    +0.000 C 
ATOM     14  O4* UNL     1       3.218   3.704  19.967  0.00  0.00    +0.000 OA
BRANCH  12  15
ATOM     15  O3* UNL     1       0.824   3.542  17.788  0.00  0.00    +0.000 OA
ATOM     16  H3* UNL     1       1.395   4.316  17.639  0.00  0.00    +0.000 HD
ENDBRANCH  12  15
BRANCH  13  17
ATOM     17  C5* UNL     1       1.570   2.489  21.241  0.00  0.00    +0.000 C 
BRANCH  17  18
ATOM     18  O5* UNL     1       2.726   2.496  22.077  0.00  0.00    +0.000 OA
ATOM     19  H5* UNL     1       2.691   1.672  22.598  0.00  0.00    +0.000 HD
ENDBRANCH  17  18
ENDBRANCH  13  17
ENDBRANCH   6  10
BRANCH   8  20
ATOM     20  C   UNL     1       3.429   7.980  17.511  0.00  0.00    +0.000 C 
ATOM     21  C   UNL     1       2.186   8.269  17.908  0.00  0.00    +0.000 C 
ATOM     22 BR   UNL     1       1.586   9.997  18.251  0.00  0.00    +0.000 Br
ENDBRANCH   8  20
TORSDOF 5
ENDMDL
MODEL 9
REMARK VINA RESULT:      -6.5      1.321      1.785
REMARK  Name = 
REMARK  5 active torsions:
REMARK  status: ('A' for Active; 'I' for Inactive)
REMARK    1  A    between atoms: N_6  and  C1*_7
REMARK    2  A    between atoms: C3*_9  and  O3*_10
REMARK    3  A    between atoms: C4*_11  and  C5*_12
REMARK    4  A    between atoms: C5*_12  and  O5*_13
REMARK    5  A    between atoms: C_16  and  C_17
REMARK                            x       y       z     vdW  Elec       q    Type
REMARK                         _______ _______ _______ _____ _____    ______ ____
ROOT
ATOM      1  O   UNL     1       7.512   6.028  15.818  0.00  0.00    +0.000 OA
ATOM      2  C   UNL     1       6.424   5.702  16.278  0.00  0.00    +0.000 A 
ATOM      3  N   UNL     1       5.891   6.381  17.331  0.00  0.00    +0.000 N 
ATOM      4  C   UNL     1       4.800   6.010  18.063  0.00  0.00    +0.000 A 
ATOM      5  O   UNL     1       4.494   6.639  19.074  0.00  0.00    +0.000 OA
ATOM      6  N   UNL     1       4.103   4.904  17.592  0.00  0.00    +0.000 N 
ATOM      7  C   UNL     1       4.500   4.248  16.439  0.00  0.00    +0.000 A 
ATOM      8  C   UNL     1       5.614   4.557  15.750  0.00  0.00    +0.000 A 
ATOM      9  H   UNL     1       6.431   7.153  17.691  0.00  0.00    +0.000 HD
ENDROOT
BRANCH   6  10
ATOM     10  C1* UNL     1       2.876   4.554  18.317  0.00  0.00    +0.000 C 
ATOM     11  C2* UNL     1       3.100   3.888  19.673  0.00  0.00    +0.000 C 
ATOM     12  C3* UNL     1       2.971   2.413  19.385  0.00  0.00    +0.000 C 
ATOM     13  C4* UNL     1       2.062   2.348  18.164  0.00  0.00    +0.000 C 
ATOM     14  O4* UNL     1       2.062   3.657  17.545  0.00  0.00    +0.000 OA
BRANCH  12  15
ATOM     15  O3* UNL     1       4.257   1.858  19.112  0.00  0.00    +0.000 OA
ATOM     16  H3* UNL     1       4.708   2.408  18.446  0.00  0.00    +0.000 HD
ENDBRANCH  12  15
BRANCH  13  17
ATOM     17  C5* UNL     1       0.620   1.989  18.523  0.00  0.00    +0.000 C 
BRANCH  17  18
ATOM     18  O5* UNL     1       0.216   2.713  19.684  0.00  0.00    +0.000 OA
ATOM     19  H5* UNL     1      -0.326   2.097  20.214  0.00  0.00    +0.000 HD
ENDBRANCH  17  18
ENDBRANCH  13  17
ENDBRANCH   6  10
BRANCH   8  20
ATOM     20  C   UNL     1       5.991   3.784  14.574  0.00  0.00    +0.000 C 
ATOM     21  C   UNL     1       5.508   3.904  13.333  0.00  0.00    +0.000 C 
ATOM     22 BR   UNL     1       6.104   2.890  11.891  0.00  0.00    +0.000 Br
ENDBRANCH   8  20
TORSDOF 5
ENDMDL
