MODEL 1
REMARK VINA RESULT:      -7.7      0.000      0.000
REMARK  Name = 
REMARK  3 active torsions:
REMARK  status: ('A' for Active; 'I' for Inactive)
REMARK    1  A    between atoms: C_1  and  C_2
REMARK    2  A    between atoms: C_8  and  C_10
REMARK    3  A    between atoms: C_15  and  N_16
REMARK                            x       y       z     vdW  Elec       q    Type
REMARK                         _______ _______ _______ _____ _____    ______ ____
ROOT
ATOM      1  C   UNL     1       6.262   2.107  11.113  0.00  0.00    +0.000 C 
ATOM      2  C   UNL     1       6.508   3.224  12.081  0.00  0.00    +0.000 A 
ATOM      3  C   UNL     1       7.537   4.139  11.862  0.00  0.00    +0.000 A 
ATOM      4  C   UNL     1       7.728   5.141  12.791  0.00  0.00    +0.000 A 
ATOM      5  N   UNL     1       6.974   5.282  13.899  0.00  0.00    +0.000 NA
ATOM      6  C   UNL     1       5.975   4.410  14.115  0.00  0.00    +0.000 A 
ATOM      7  N   UNL     1       5.169   4.532  15.264  0.00  0.00    +0.000 N 
ATOM      8  C   UNL     1       5.341   5.525  16.210  0.00  0.00    +0.000 C 
ATOM      9  O   UNL     1       6.167   6.432  16.189  0.00  0.00    +0.000 OA
ATOM     10  C   UNL     1       5.711   3.368  13.228  0.00  0.00    +0.000 A 
ATOM     11  H   UNL     1       4.409   3.877  15.352  0.00  0.00    +0.000 HD
ENDROOT
BRANCH   8  12
ATOM     12  C   UNL     1       4.422   5.518  17.384  0.00  0.00    +0.000 A 
ATOM     13  C   UNL     1       3.727   6.649  17.830  0.00  0.00    +0.000 A 
ATOM     14  C   UNL     1       2.814   6.539  18.893  0.00  0.00    +0.000 A 
ATOM     15  C   UNL     1       2.576   5.306  19.509  0.00  0.00    +0.000 A 
ATOM     16 CL   UNL     1       1.455   5.264  20.819  0.00  0.00    +0.000 Cl
ATOM     17  C   UNL     1       3.266   4.188  19.049  0.00  0.00    +0.000 A 
ATOM     18  C   UNL     1       4.189   4.280  18.003  0.00  0.00    +0.000 A 
BRANCH  17  19
ATOM     19  N   UNL     1       3.039   2.881  19.625  0.00  0.00    +0.000 N 
ATOM     20  O   UNL     1       3.821   2.504  20.506  0.00  0.00    +0.000 OA
ATOM     21  O   UNL     1       2.046   2.260  19.221  0.00  0.00    +0.000 OA
ENDBRANCH  17  19
ENDBRANCH   8  12
TORSDOF 2
ENDMDL
MODEL 2
REMARK VINA RESULT:      -7.3      4.050      7.905
REMARK  Name = 
REMARK  3 active torsions:
REMARK  status: ('A' for Active; 'I' for Inactive)
REMARK    1  A    between atoms: C_1  and  C_2
REMARK    2  A    between atoms: C_8  and  C_10
REMARK    3  A    between atoms: C_15  and  N_16
REMARK                            x       y       z     vdW  Elec       q    Type
REMARK                         _______ _______ _______ _____ _____    ______ ____
ROOT
ATOM      1  C   UNL     1      -0.420   9.485  23.453  0.00  0.00    +0.000 C 
ATOM      2  C   UNL     1       0.028   9.705  22.040  0.00  0.00    +0.000 A 
ATOM      3  C   UNL     1      -0.345  10.856  21.348  0.00  0.00    +0.000 A 
ATOM      4  C   UNL     1       0.085  11.004  20.046  0.00  0.00    +0.000 A 
ATOM      5  N   UNL     1       0.844  10.093  19.405  0.00  0.00    +0.000 NA
ATOM      6  C   UNL     1       1.214   8.983  20.065  0.00  0.00    +0.000 A 
ATOM      7  N   UNL     1       2.009   8.014  19.423  0.00  0.00    +0.000 N 
ATOM      8  C   UNL     1       2.450   8.136  18.118  0.00  0.00    +0.000 C 
ATOM      9  O   UNL     1       2.252   9.076  17.355  0.00  0.00    +0.000 OA
ATOM     10  C   UNL     1       0.826   8.755  21.384  0.00  0.00    +0.000 A 
ATOM     11  H   UNL     1       2.292   7.223  19.979  0.00  0.00    +0.000 HD
ENDROOT
BRANCH   8  12
ATOM     12  C   UNL     1       3.270   7.020  17.565  0.00  0.00    +0.000 A 
ATOM     13  C   UNL     1       4.464   7.212  16.860  0.00  0.00    +0.000 A 
ATOM     14  C   UNL     1       5.222   6.104  16.445  0.00  0.00    +0.000 A 
ATOM     15  C   UNL     1       4.806   4.800  16.740  0.00  0.00    +0.000 A 
ATOM     16 CL   UNL     1       5.786   3.497  16.176  0.00  0.00    +0.000 Cl
ATOM     17  C   UNL     1       3.623   4.624  17.451  0.00  0.00    +0.000 A 
ATOM     18  C   UNL     1       2.848   5.714  17.859  0.00  0.00    +0.000 A 
BRANCH  17  19
ATOM     19  N   UNL     1       3.160   3.303  17.813  0.00  0.00    +0.000 N 
ATOM     20  O   UNL     1       2.249   2.814  17.133  0.00  0.00    +0.000 OA
ATOM     21  O   UNL     1       3.745   2.745  18.751  0.00  0.00    +0.000 OA
ENDBRANCH  17  19
ENDBRANCH   8  12
TORSDOF 2
ENDMDL
MODEL 3
REMARK VINA RESULT:      -7.3      4.132      7.925
REMARK  Name = 
REMARK  3 active torsions:
REMARK  status: ('A' for Active; 'I' for Inactive)
REMARK    1  A    between atoms: C_1  and  C_2
REMARK    2  A    between atoms: C_8  and  C_10
REMARK    3  A    between atoms: C_15  and  N_16
REMARK                            x       y       z     vdW  Elec       q    Type
REMARK                         _______ _______ _______ _____ _____    ______ ____
ROOT
ATOM      1  C   UNL     1      -0.351   9.371  23.330  0.00  0.00    +0.000 C 
ATOM      2  C   UNL     1      -0.005   9.509  21.878  0.00  0.00    +0.000 A 
ATOM      3  C   UNL     1      -0.672  10.431  21.073  0.00  0.00    +0.000 A 
ATOM      4  C   UNL     1      -0.323  10.509  19.741  0.00  0.00    +0.000 A 
ATOM      5  N   UNL     1       0.627   9.739  19.175  0.00  0.00    +0.000 NA
ATOM      6  C   UNL     1       1.281   8.852  19.944  0.00  0.00    +0.000 A 
ATOM      7  N   UNL     1       2.281   8.034  19.381  0.00  0.00    +0.000 N 
ATOM      8  C   UNL     1       2.648   8.090  18.049  0.00  0.00    +0.000 C 
ATOM      9  O   UNL     1       2.201   8.843  17.190  0.00  0.00    +0.000 OA
ATOM     10  C   UNL     1       0.993   8.709  21.300  0.00  0.00    +0.000 A 
ATOM     11  H   UNL     1       2.766   7.418  20.013  0.00  0.00    +0.000 HD
ENDROOT
BRANCH   8  12
ATOM     12  C   UNL     1       3.710   7.150  17.592  0.00  0.00    +0.000 A 
ATOM     13  C   UNL     1       4.228   7.140  16.291  0.00  0.00    +0.000 A 
ATOM     14  C   UNL     1       5.289   6.279  15.963  0.00  0.00    +0.000 A 
ATOM     15  C   UNL     1       5.850   5.433  16.926  0.00  0.00    +0.000 A 
ATOM     16 CL   UNL     1       7.136   4.394  16.434  0.00  0.00    +0.000 Cl
ATOM     17  C   UNL     1       5.333   5.460  18.218  0.00  0.00    +0.000 A 
ATOM     18  C   UNL     1       4.268   6.299  18.560  0.00  0.00    +0.000 A 
BRANCH  17  19
ATOM     19  N   UNL     1       5.892   4.633  19.264  0.00  0.00    +0.000 N 
ATOM     20  O   UNL     1       6.855   5.087  19.895  0.00  0.00    +0.000 OA
ATOM     21  O   UNL     1       5.332   3.549  19.476  0.00  0.00    +0.000 OA
ENDBRANCH  17  19
ENDBRANCH   8  12
TORSDOF 2
ENDMDL
MODEL 4
REMARK VINA RESULT:      -7.2      4.229      8.435
REMARK  Name = 
REMARK  3 active torsions:
REMARK  status: ('A' for Active; 'I' for Inactive)
REMARK    1  A    between atoms: C_1  and  C_2
REMARK    2  A    between atoms: C_8  and  C_10
REMARK    3  A    between atoms: C_15  and  N_16
REMARK                            x       y       z     vdW  Elec       q    Type
REMARK                         _______ _______ _______ _____ _____    ______ ____
ROOT
ATOM      1  C   UNL     1      -0.939  10.360  23.215  0.00  0.00    +0.000 C 
ATOM      2  C   UNL     1      -0.352  10.392  21.837  0.00  0.00    +0.000 A 
ATOM      3  C   UNL     1      -0.543  11.498  21.010  0.00  0.00    +0.000 A 
ATOM      4  C   UNL     1       0.009  11.470  19.745  0.00  0.00    +0.000 A 
ATOM      5  N   UNL     1       0.719  10.431  19.266  0.00  0.00    +0.000 NA
ATOM      6  C   UNL     1       0.914   9.363  20.058  0.00  0.00    +0.000 A 
ATOM      7  N   UNL     1       1.655   8.262  19.585  0.00  0.00    +0.000 N 
ATOM      8  C   UNL     1       2.215   8.208  18.323  0.00  0.00    +0.000 C 
ATOM      9  O   UNL     1       2.182   9.081  17.461  0.00  0.00    +0.000 OA
ATOM     10  C   UNL     1       0.395   9.307  21.350  0.00  0.00    +0.000 A 
ATOM     11  H   UNL     1       1.805   7.508  20.237  0.00  0.00    +0.000 HD
ENDROOT
BRANCH   8  12
ATOM     12  C   UNL     1       2.958   6.969  17.955  0.00  0.00    +0.000 A 
ATOM     13  C   UNL     1       2.457   5.677  18.158  0.00  0.00    +0.000 A 
ATOM     14  C   UNL     1       3.183   4.563  17.705  0.00  0.00    +0.000 A 
ATOM     15  C   UNL     1       4.402   4.724  17.038  0.00  0.00    +0.000 A 
ATOM     16 CL   UNL     1       5.238   3.301  16.533  0.00  0.00    +0.000 Cl
ATOM     17  C   UNL     1       4.884   6.013  16.833  0.00  0.00    +0.000 A 
ATOM     18  C   UNL     1       4.183   7.134  17.290  0.00  0.00    +0.000 A 
BRANCH  17  19
ATOM     19  N   UNL     1       6.121   6.245  16.122  0.00  0.00    +0.000 N 
ATOM     20  O   UNL     1       6.122   6.042  14.902  0.00  0.00    +0.000 OA
ATOM     21  O   UNL     1       7.073   6.672  16.788  0.00  0.00    +0.000 OA
ENDBRANCH  17  19
ENDBRANCH   8  12
TORSDOF 2
ENDMDL
MODEL 5
REMARK VINA RESULT:      -7.2      4.900      7.966
REMARK  Name = 
REMARK  3 active torsions:
REMARK  status: ('A' for Active; 'I' for Inactive)
REMARK    1  A    between atoms: C_1  and  C_2
REMARK    2  A    between atoms: C_8  and  C_10
REMARK    3  A    between atoms: C_15  and  N_16
REMARK                            x       y       z     vdW  Elec       q    Type
REMARK                         _______ _______ _______ _____ _____    ______ ____
ROOT
ATOM      1  C   UNL     1      -0.982  11.415  22.809  0.00  0.00    +0.000 C 
ATOM      2  C   UNL     1      -0.246  10.978  21.579  0.00  0.00    +0.000 A 
ATOM      3  C   UNL     1      -0.148  11.820  20.473  0.00  0.00    +0.000 A 
ATOM      4  C   UNL     1       0.530  11.362  19.362  0.00  0.00    +0.000 A 
ATOM      5  N   UNL     1       1.100  10.144  19.288  0.00  0.00    +0.000 NA
ATOM      6  C   UNL     1       1.017   9.327  20.351  0.00  0.00    +0.000 A 
ATOM      7  N   UNL     1       1.605   8.048  20.305  0.00  0.00    +0.000 N 
ATOM      8  C   UNL     1       2.287   7.565  19.203  0.00  0.00    +0.000 C 
ATOM      9  O   UNL     1       2.503   8.155  18.149  0.00  0.00    +0.000 OA
ATOM     10  C   UNL     1       0.353   9.709  21.515  0.00  0.00    +0.000 A 
ATOM     11  H   UNL     1       1.548   7.496  21.145  0.00  0.00    +0.000 HD
ENDROOT
BRANCH   8  12
ATOM     12  C   UNL     1       2.841   6.183  19.293  0.00  0.00    +0.000 A 
ATOM     13  C   UNL     1       4.035   5.786  18.677  0.00  0.00    +0.000 A 
ATOM     14  C   UNL     1       4.532   4.488  18.881  0.00  0.00    +0.000 A 
ATOM     15  C   UNL     1       3.856   3.582  19.705  0.00  0.00    +0.000 A 
ATOM     16 CL   UNL     1       4.526   2.002  19.884  0.00  0.00    +0.000 Cl
ATOM     17  C   UNL     1       2.676   3.993  20.319  0.00  0.00    +0.000 A 
ATOM     18  C   UNL     1       2.158   5.276  20.117  0.00  0.00    +0.000 A 
BRANCH  17  19
ATOM     19  N   UNL     1       1.951   3.112  21.207  0.00  0.00    +0.000 N 
ATOM     20  O   UNL     1       2.315   3.069  22.388  0.00  0.00    +0.000 OA
ATOM     21  O   UNL     1       0.989   2.502  20.721  0.00  0.00    +0.000 OA
ENDBRANCH  17  19
ENDBRANCH   8  12
TORSDOF 2
ENDMDL
MODEL 6
REMARK VINA RESULT:      -7.2      4.024      5.141
REMARK  Name = 
REMARK  3 active torsions:
REMARK  status: ('A' for Active; 'I' for Inactive)
REMARK    1  A    between atoms: C_1  and  C_2
REMARK    2  A    between atoms: C_8  and  C_10
REMARK    3  A    between atoms: C_15  and  N_16
REMARK                            x       y       z     vdW  Elec       q    Type
REMARK                         _______ _______ _______ _____ _____    ______ ____
ROOT
ATOM      1  C   UNL     1       7.089   5.146  14.284  0.00  0.00    +0.000 C 
ATOM      2  C   UNL     1       6.073   4.939  15.366  0.00  0.00    +0.000 A 
ATOM      3  C   UNL     1       5.793   3.660  15.843  0.00  0.00    +0.000 A 
ATOM      4  C   UNL     1       4.841   3.525  16.832  0.00  0.00    +0.000 A 
ATOM      5  N   UNL     1       4.164   4.564  17.359  0.00  0.00    +0.000 NA
ATOM      6  C   UNL     1       4.432   5.802  16.912  0.00  0.00    +0.000 A 
ATOM      7  N   UNL     1       3.742   6.908  17.446  0.00  0.00    +0.000 N 
ATOM      8  C   UNL     1       2.782   6.800  18.435  0.00  0.00    +0.000 C 
ATOM      9  O   UNL     1       2.412   5.774  18.998  0.00  0.00    +0.000 OA
ATOM     10  C   UNL     1       5.380   6.029  15.917  0.00  0.00    +0.000 A 
ATOM     11  H   UNL     1       4.014   7.816  17.103  0.00  0.00    +0.000 HD
ENDROOT
BRANCH   8  12
ATOM     12  C   UNL     1       2.123   8.058  18.889  0.00  0.00    +0.000 A 
ATOM     13  C   UNL     1       1.870   9.148  18.048  0.00  0.00    +0.000 A 
ATOM     14  C   UNL     1       1.168  10.263  18.534  0.00  0.00    +0.000 A 
ATOM     15  C   UNL     1       0.700  10.297  19.853  0.00  0.00    +0.000 A 
ATOM     16 CL   UNL     1      -0.136  11.713  20.374  0.00  0.00    +0.000 Cl
ATOM     17  C   UNL     1       0.949   9.203  20.676  0.00  0.00    +0.000 A 
ATOM     18  C   UNL     1       1.660   8.090  20.214  0.00  0.00    +0.000 A 
BRANCH  17  19
ATOM     19  N   UNL     1       0.464   9.166  22.038  0.00  0.00    +0.000 N 
ATOM     20  O   UNL     1      -0.662   8.691  22.228  0.00  0.00    +0.000 OA
ATOM     21  O   UNL     1       1.237   9.576  22.914  0.00  0.00    +0.000 OA
ENDBRANCH  17  19
ENDBRANCH   8  12
TORSDOF 2
ENDMDL
MODEL 7
REMARK VINA RESULT:      -7.2      4.315      8.089
REMARK  Name = 
REMARK  3 active torsions:
REMARK  status: ('A' for Active; 'I' for Inactive)
REMARK    1  A    between atoms: C_1  and  C_2
REMARK    2  A    between atoms: C_8  and  C_10
REMARK    3  A    between atoms: C_15  and  N_16
REMARK                            x       y       z     vdW  Elec       q    Type
REMARK                         _______ _______ _______ _____ _____    ______ ____
ROOT
ATOM      1  C   UNL     1      -0.954  10.343  23.251  0.00  0.00    +0.000 C 
ATOM      2  C   UNL     1      -0.371  10.461  21.876  0.00  0.00    +0.000 A 
ATOM      3  C   UNL     1      -0.563  11.616  21.120  0.00  0.00    +0.000 A 
ATOM      4  C   UNL     1      -0.015  11.668  19.855  0.00  0.00    +0.000 A 
ATOM      5  N   UNL     1       0.693  10.660  19.310  0.00  0.00    +0.000 NA
ATOM      6  C   UNL     1       0.889   9.544  20.032  0.00  0.00    +0.000 A 
ATOM      7  N   UNL     1       1.627   8.474  19.489  0.00  0.00    +0.000 N 
ATOM      8  C   UNL     1       2.184   8.499  18.224  0.00  0.00    +0.000 C 
ATOM      9  O   UNL     1       2.149   9.424  17.419  0.00  0.00    +0.000 OA
ATOM     10  C   UNL     1       0.373   9.408  21.319  0.00  0.00    +0.000 A 
ATOM     11  H   UNL     1       1.778   7.681  20.092  0.00  0.00    +0.000 HD
ENDROOT
BRANCH   8  12
ATOM     12  C   UNL     1       2.924   7.284  17.777  0.00  0.00    +0.000 A 
ATOM     13  C   UNL     1       4.157   7.328  17.116  0.00  0.00    +0.000 A 
ATOM     14  C   UNL     1       4.830   6.135  16.804  0.00  0.00    +0.000 A 
ATOM     15  C   UNL     1       4.290   4.893  17.158  0.00  0.00    +0.000 A 
ATOM     16 CL   UNL     1       5.173   3.477  16.719  0.00  0.00    +0.000 Cl
ATOM     17  C   UNL     1       3.068   4.864  17.824  0.00  0.00    +0.000 A 
ATOM     18  C   UNL     1       2.376   6.040  18.129  0.00  0.00    +0.000 A 
BRANCH  17  19
ATOM     19  N   UNL     1       2.476   3.613  18.243  0.00  0.00    +0.000 N 
ATOM     20  O   UNL     1       3.019   3.012  19.177  0.00  0.00    +0.000 OA
ATOM     21  O   UNL     1       1.440   3.266  17.659  0.00  0.00    +0.000 OA
ENDBRANCH  17  19
ENDBRANCH   8  12
TORSDOF 2
ENDMDL
MODEL 8
REMARK VINA RESULT:      -7.2      4.636      8.382
REMARK  Name = 
REMARK  3 active torsions:
REMARK  status: ('A' for Active; 'I' for Inactive)
REMARK    1  A    between atoms: C_1  and  C_2
REMARK    2  A    between atoms: C_8  and  C_10
REMARK    3  A    between atoms: C_15  and  N_16
REMARK                            x       y       z     vdW  Elec       q    Type
REMARK                         _______ _______ _______ _____ _____    ______ ____
ROOT
ATOM      1  C   UNL     1      -1.441  11.389  23.129  0.00  0.00    +0.000 C 
ATOM      2  C   UNL     1      -0.613  10.970  21.953  0.00  0.00    +0.000 A 
ATOM      3  C   UNL     1      -0.411  11.838  20.881  0.00  0.00    +0.000 A 
ATOM      4  C   UNL     1       0.350  11.398  19.818  0.00  0.00    +0.000 A 
ATOM      5  N   UNL     1       0.906  10.172  19.758  0.00  0.00    +0.000 NA
ATOM      6  C   UNL     1       0.722   9.330  20.789  0.00  0.00    +0.000 A 
ATOM      7  N   UNL     1       1.293   8.042  20.757  0.00  0.00    +0.000 N 
ATOM      8  C   UNL     1       2.056   7.575  19.703  0.00  0.00    +0.000 C 
ATOM      9  O   UNL     1       2.367   8.188  18.686  0.00  0.00    +0.000 OA
ATOM     10  C   UNL     1      -0.030   9.694  21.904  0.00  0.00    +0.000 A 
ATOM     11  H   UNL     1       1.158   7.470  21.575  0.00  0.00    +0.000 HD
ENDROOT
BRANCH   8  12
ATOM     12  C   UNL     1       2.580   6.183  19.800  0.00  0.00    +0.000 A 
ATOM     13  C   UNL     1       1.913   5.150  20.471  0.00  0.00    +0.000 A 
ATOM     14  C   UNL     1       2.432   3.845  20.444  0.00  0.00    +0.000 A 
ATOM     15  C   UNL     1       3.607   3.554  19.741  0.00  0.00    +0.000 A 
ATOM     16 CL   UNL     1       4.186   1.929  19.777  0.00  0.00    +0.000 Cl
ATOM     17  C   UNL     1       4.254   4.588  19.070  0.00  0.00    +0.000 A 
ATOM     18  C   UNL     1       3.761   5.896  19.098  0.00  0.00    +0.000 A 
BRANCH  17  19
ATOM     19  N   UNL     1       5.454   4.343  18.301  0.00  0.00    +0.000 N 
ATOM     20  O   UNL     1       5.318   4.121  17.091  0.00  0.00    +0.000 OA
ATOM     21  O   UNL     1       6.530   4.421  18.908  0.00  0.00    +0.000 OA
ENDBRANCH  17  19
ENDBRANCH   8  12
TORSDOF 2
ENDMDL
MODEL 9
REMARK VINA RESULT:      -7.1      3.931      8.134
REMARK  Name = 
REMARK  3 active torsions:
REMARK  status: ('A' for Active; 'I' for Inactive)
REMARK    1  A    between atoms: C_1  and  C_2
REMARK    2  A    between atoms: C_8  and  C_10
REMARK    3  A    between atoms: C_15  and  N_16
REMARK                            x       y       z     vdW  Elec       q    Type
REMARK                         _______ _______ _______ _____ _____    ______ ____
ROOT
ATOM      1  C   UNL     1      -0.271   9.659  23.384  0.00  0.00    +0.000 C 
ATOM      2  C   UNL     1       0.191   9.709  21.960  0.00  0.00    +0.000 A 
ATOM      3  C   UNL     1      -0.115  10.803  21.152  0.00  0.00    +0.000 A 
ATOM      4  C   UNL     1       0.325  10.792  19.844  0.00  0.00    +0.000 A 
ATOM      5  N   UNL     1       1.030   9.779  19.305  0.00  0.00    +0.000 NA
ATOM      6  C   UNL     1       1.335   8.723  20.077  0.00  0.00    +0.000 A 
ATOM      7  N   UNL     1       2.074   7.649  19.542  0.00  0.00    +0.000 N 
ATOM      8  C   UNL     1       2.523   7.612  18.235  0.00  0.00    +0.000 C 
ATOM      9  O   UNL     1       2.380   8.479  17.379  0.00  0.00    +0.000 OA
ATOM     10  C   UNL     1       0.933   8.652  21.409  0.00  0.00    +0.000 A 
ATOM     11  H   UNL     1       2.309   6.904  20.178  0.00  0.00    +0.000 HD
ENDROOT
BRANCH   8  12
ATOM     12  C   UNL     1       3.277   6.400  17.804  0.00  0.00    +0.000 A 
ATOM     13  C   UNL     1       2.778   5.097  17.915  0.00  0.00    +0.000 A 
ATOM     14  C   UNL     1       3.518   4.016  17.407  0.00  0.00    +0.000 A 
ATOM     15  C   UNL     1       4.749   4.222  16.775  0.00  0.00    +0.000 A 
ATOM     16 CL   UNL     1       5.600   2.837  16.198  0.00  0.00    +0.000 Cl
ATOM     17  C   UNL     1       5.229   5.524  16.662  0.00  0.00    +0.000 A 
ATOM     18  C   UNL     1       4.514   6.611  17.175  0.00  0.00    +0.000 A 
BRANCH  17  19
ATOM     19  N   UNL     1       6.479   5.804  15.991  0.00  0.00    +0.000 N 
ATOM     20  O   UNL     1       7.486   5.936  16.698  0.00  0.00    +0.000 OA
ATOM     21  O   UNL     1       6.450   5.843  14.754  0.00  0.00    +0.000 OA
ENDBRANCH  17  19
ENDBRANCH   8  12
TORSDOF 2
ENDMDL
