MODEL 1
REMARK VINA RESULT:      -6.9      0.000      0.000
REMARK  Name = 
REMARK  9 active torsions:
REMARK  status: ('A' for Active; 'I' for Inactive)
REMARK    1  A    between atoms: C_1  and  C_2
REMARK    2  A    between atoms: C_2  and  C_3
REMARK    3  A    between atoms: C_3  and  C_4
REMARK    4  A    between atoms: C_4  and  C_5
REMARK    5  A    between atoms: C_5  and  C_6
REMARK    6  A    between atoms: C_6  and  C_7
REMARK    7  A    between atoms: C_7  and  C_8
REMARK    8  A    between atoms: C_8  and  N_9
REMARK    9  A    between atoms: N_12  and  C_13
REMARK                            x       y       z     vdW  Elec       q    Type
REMARK                         _______ _______ _______ _____ _____    ______ ____
ROOT
ATOM      1  N   UNL     1       6.858   4.406  18.657  0.00  0.00    +0.000 N 
ATOM      2  C   UNL     1       5.525   4.413  18.998  0.00  0.00    +0.000 C 
ATOM      3  O   UNL     1       4.997   5.457  19.362  0.00  0.00    +0.000 OA
ATOM      4  N   UNL     1       4.914   3.185  18.912  0.00  0.00    +0.000 N 
ATOM      5  H   UNL     1       7.286   3.572  18.266  0.00  0.00    +0.000 HD
ATOM      6  H   UNL     1       5.504   2.367  18.895  0.00  0.00    +0.000 HD
ENDROOT
BRANCH   4   7
ATOM      7  C   UNL     1       3.527   2.990  19.183  0.00  0.00    +0.000 A 
ATOM      8  C   UNL     1       2.565   3.021  18.165  0.00  0.00    +0.000 A 
ATOM      9  C   UNL     1       1.204   2.924  18.439  0.00  0.00    +0.000 A 
ATOM     10  C   UNL     1       0.777   2.768  19.752  0.00  0.00    +0.000 A 
ATOM     11  C   UNL     1       1.724   2.690  20.774  0.00  0.00    +0.000 A 
ATOM     12 CL   UNL     1       1.178   2.519  22.397  0.00  0.00    +0.000 Cl
ATOM     13  C   UNL     1       3.095   2.782  20.498  0.00  0.00    +0.000 A 
ENDBRANCH   4   7
BRANCH   1  14
ATOM     14  C   UNL     1       7.607   5.646  18.681  0.00  0.00    +0.000 C 
BRANCH  14  15
ATOM     15  C   UNL     1       7.551   6.374  17.336  0.00  0.00    +0.000 C 
BRANCH  15  16
ATOM     16  C   UNL     1       7.377   7.883  17.521  0.00  0.00    +0.000 C 
BRANCH  16  17
ATOM     17  C   UNL     1       8.481   8.467  18.404  0.00  0.00    +0.000 C 
BRANCH  17  18
ATOM     18  C   UNL     1       8.716   9.948  18.104  0.00  0.00    +0.000 C 
BRANCH  18  19
ATOM     19  C   UNL     1       9.598  10.591  19.174  0.00  0.00    +0.000 C 
BRANCH  19  21
ATOM     20  C   UNL     1      11.327  11.694  17.720  0.00  0.00    +0.000 C 
ATOM     21  C   UNL     1      10.182  11.919  18.693  0.00  0.00    +0.000 C 
ENDBRANCH  19  21
ENDBRANCH  18  19
ENDBRANCH  17  18
ENDBRANCH  16  17
ENDBRANCH  15  16
ENDBRANCH  14  15
ENDBRANCH   1  14
TORSDOF 8
ENDMDL
MODEL 2
REMARK VINA RESULT:      -6.8      4.530      6.659
REMARK  Name = 
REMARK  9 active torsions:
REMARK  status: ('A' for Active; 'I' for Inactive)
REMARK    1  A    between atoms: C_1  and  C_2
REMARK    2  A    between atoms: C_2  and  C_3
REMARK    3  A    between atoms: C_3  and  C_4
REMARK    4  A    between atoms: C_4  and  C_5
REMARK    5  A    between atoms: C_5  and  C_6
REMARK    6  A    between atoms: C_6  and  C_7
REMARK    7  A    between atoms: C_7  and  C_8
REMARK    8  A    between atoms: C_8  and  N_9
REMARK    9  A    between atoms: N_12  and  C_13
REMARK                            x       y       z     vdW  Elec       q    Type
REMARK                         _______ _______ _______ _____ _____    ______ ____
ROOT
ATOM      1  N   UNL     1       5.348   4.977  15.855  0.00  0.00    +0.000 N 
ATOM      2  C   UNL     1       4.883   5.095  17.144  0.00  0.00    +0.000 C 
ATOM      3  O   UNL     1       5.678   5.223  18.067  0.00  0.00    +0.000 OA
ATOM      4  N   UNL     1       3.515   5.029  17.259  0.00  0.00    +0.000 N 
ATOM      5  H   UNL     1       4.701   4.963  15.072  0.00  0.00    +0.000 HD
ATOM      6  H   UNL     1       2.998   4.630  16.491  0.00  0.00    +0.000 HD
ENDROOT
BRANCH   4   7
ATOM      7  C   UNL     1       2.834   5.173  18.505  0.00  0.00    +0.000 A 
ATOM      8  C   UNL     1       2.646   6.426  19.102  0.00  0.00    +0.000 A 
ATOM      9  C   UNL     1       2.066   6.559  20.360  0.00  0.00    +0.000 A 
ATOM     10  C   UNL     1       1.637   5.427  21.042  0.00  0.00    +0.000 A 
ATOM     11  C   UNL     1       1.776   4.175  20.442  0.00  0.00    +0.000 A 
ATOM     12 CL   UNL     1       1.260   2.781  21.309  0.00  0.00    +0.000 Cl
ATOM     13  C   UNL     1       2.355   4.040  19.173  0.00  0.00    +0.000 A 
ENDBRANCH   4   7
BRANCH   1  14
ATOM     14  C   UNL     1       6.772   5.058  15.600  0.00  0.00    +0.000 C 
BRANCH  14  15
ATOM     15  C   UNL     1       7.105   4.801  14.128  0.00  0.00    +0.000 C 
BRANCH  15  16
ATOM     16  C   UNL     1       6.388   3.557  13.599  0.00  0.00    +0.000 C 
BRANCH  16  17
ATOM     17  C   UNL     1       6.603   3.389  12.094  0.00  0.00    +0.000 C 
BRANCH  17  18
ATOM     18  C   UNL     1       5.445   2.631  11.442  0.00  0.00    +0.000 C 
BRANCH  18  19
ATOM     19  C   UNL     1       4.160   3.458  11.479  0.00  0.00    +0.000 C 
BRANCH  19  21
ATOM     20  C   UNL     1       2.931   4.344   9.473  0.00  0.00    +0.000 C 
ATOM     21  C   UNL     1       3.239   3.113  10.308  0.00  0.00    +0.000 C 
ENDBRANCH  19  21
ENDBRANCH  18  19
ENDBRANCH  17  18
ENDBRANCH  16  17
ENDBRANCH  15  16
ENDBRANCH  14  15
ENDBRANCH   1  14
TORSDOF 8
ENDMDL
MODEL 3
REMARK VINA RESULT:      -6.7      1.127      1.298
REMARK  Name = 
REMARK  9 active torsions:
REMARK  status: ('A' for Active; 'I' for Inactive)
REMARK    1  A    between atoms: C_1  and  C_2
REMARK    2  A    between atoms: C_2  and  C_3
REMARK    3  A    between atoms: C_3  and  C_4
REMARK    4  A    between atoms: C_4  and  C_5
REMARK    5  A    between atoms: C_5  and  C_6
REMARK    6  A    between atoms: C_6  and  C_7
REMARK    7  A    between atoms: C_7  and  C_8
REMARK    8  A    between atoms: C_8  and  N_9
REMARK    9  A    between atoms: N_12  and  C_13
REMARK                            x       y       z     vdW  Elec       q    Type
REMARK                         _______ _______ _______ _____ _____    ______ ____
ROOT
ATOM      1  N   UNL     1       6.908   5.179  17.509  0.00  0.00    +0.000 N 
ATOM      2  C   UNL     1       5.602   4.920  17.856  0.00  0.00    +0.000 C 
ATOM      3  O   UNL     1       4.776   5.824  17.827  0.00  0.00    +0.000 OA
ATOM      4  N   UNL     1       5.367   3.621  18.236  0.00  0.00    +0.000 N 
ATOM      5  H   UNL     1       7.583   4.424  17.438  0.00  0.00    +0.000 HD
ATOM      6  H   UNL     1       6.160   3.058  18.503  0.00  0.00    +0.000 HD
ENDROOT
BRANCH   4   7
ATOM      7  C   UNL     1       4.071   3.141  18.592  0.00  0.00    +0.000 A 
ATOM      8  C   UNL     1       3.165   2.677  17.629  0.00  0.00    +0.000 A 
ATOM      9  C   UNL     1       1.869   2.297  17.964  0.00  0.00    +0.000 A 
ATOM     10  C   UNL     1       1.458   2.352  19.289  0.00  0.00    +0.000 A 
ATOM     11  C   UNL     1       2.361   2.770  20.268  0.00  0.00    +0.000 A 
ATOM     12 CL   UNL     1       1.829   2.854  21.903  0.00  0.00    +0.000 Cl
ATOM     13  C   UNL     1       3.668   3.147  19.933  0.00  0.00    +0.000 A 
ENDBRANCH   4   7
BRANCH   1  14
ATOM     14  C   UNL     1       7.278   6.507  17.063  0.00  0.00    +0.000 C 
BRANCH  14  15
ATOM     15  C   UNL     1       7.920   7.328  18.185  0.00  0.00    +0.000 C 
BRANCH  15  16
ATOM     16  C   UNL     1       8.070   8.799  17.788  0.00  0.00    +0.000 C 
BRANCH  16  17
ATOM     17  C   UNL     1       8.877   9.576  18.829  0.00  0.00    +0.000 C 
BRANCH  17  18
ATOM     18  C   UNL     1       9.452  10.868  18.245  0.00  0.00    +0.000 C 
BRANCH  18  19
ATOM     19  C   UNL     1      10.175  11.681  19.318  0.00  0.00    +0.000 C 
BRANCH  19  21
ATOM     20  C   UNL     1      12.322  12.971  19.531  0.00  0.00    +0.000 C 
ATOM     21  C   UNL     1      11.689  11.652  19.118  0.00  0.00    +0.000 C 
ENDBRANCH  19  21
ENDBRANCH  18  19
ENDBRANCH  17  18
ENDBRANCH  16  17
ENDBRANCH  15  16
ENDBRANCH  14  15
ENDBRANCH   1  14
TORSDOF 8
ENDMDL
MODEL 4
REMARK VINA RESULT:      -6.6      4.761      6.881
REMARK  Name = 
REMARK  9 active torsions:
REMARK  status: ('A' for Active; 'I' for Inactive)
REMARK    1  A    between atoms: C_1  and  C_2
REMARK    2  A    between atoms: C_2  and  C_3
REMARK    3  A    between atoms: C_3  and  C_4
REMARK    4  A    between atoms: C_4  and  C_5
REMARK    5  A    between atoms: C_5  and  C_6
REMARK    6  A    between atoms: C_6  and  C_7
REMARK    7  A    between atoms: C_7  and  C_8
REMARK    8  A    between atoms: C_8  and  N_9
REMARK    9  A    between atoms: N_12  and  C_13
REMARK                            x       y       z     vdW  Elec       q    Type
REMARK                         _______ _______ _______ _____ _____    ______ ____
ROOT
ATOM      1  N   UNL     1       6.002   5.571  15.529  0.00  0.00    +0.000 N 
ATOM      2  C   UNL     1       5.142   4.988  16.430  0.00  0.00    +0.000 C 
ATOM      3  O   UNL     1       5.224   3.787  16.658  0.00  0.00    +0.000 OA
ATOM      4  N   UNL     1       4.228   5.855  16.979  0.00  0.00    +0.000 N 
ATOM      5  H   UNL     1       6.009   6.578  15.398  0.00  0.00    +0.000 HD
ATOM      6  H   UNL     1       4.065   6.729  16.504  0.00  0.00    +0.000 HD
ENDROOT
BRANCH   4   7
ATOM      7  C   UNL     1       3.277   5.455  17.965  0.00  0.00    +0.000 A 
ATOM      8  C   UNL     1       3.091   6.183  19.148  0.00  0.00    +0.000 A 
ATOM      9  C   UNL     1       2.232   5.743  20.152  0.00  0.00    +0.000 A 
ATOM     10  C   UNL     1       1.517   4.566  19.977  0.00  0.00    +0.000 A 
ATOM     11  C   UNL     1       1.657   3.852  18.785  0.00  0.00    +0.000 A 
ATOM     12 CL   UNL     1       0.779   2.384  18.593  0.00  0.00    +0.000 Cl
ATOM     13  C   UNL     1       2.516   4.296  17.772  0.00  0.00    +0.000 A 
ENDBRANCH   4   7
BRANCH   1  14
ATOM     14  C   UNL     1       7.030   4.766  14.900  0.00  0.00    +0.000 C 
BRANCH  14  15
ATOM     15  C   UNL     1       7.161   5.070  13.406  0.00  0.00    +0.000 C 
BRANCH  15  16
ATOM     16  C   UNL     1       6.858   3.835  12.553  0.00  0.00    +0.000 C 
BRANCH  16  17
ATOM     17  C   UNL     1       5.368   3.488  12.586  0.00  0.00    +0.000 C 
BRANCH  17  18
ATOM     18  C   UNL     1       4.992   2.523  11.460  0.00  0.00    +0.000 C 
BRANCH  18  19
ATOM     19  C   UNL     1       3.614   2.857  10.890  0.00  0.00    +0.000 C 
BRANCH  19  21
ATOM     20  C   UNL     1       2.607   4.378   9.160  0.00  0.00    +0.000 C 
ATOM     21  C   UNL     1       3.568   4.280  10.333  0.00  0.00    +0.000 C 
ENDBRANCH  19  21
ENDBRANCH  18  19
ENDBRANCH  17  18
ENDBRANCH  16  17
ENDBRANCH  15  16
ENDBRANCH  14  15
ENDBRANCH   1  14
TORSDOF 8
ENDMDL
MODEL 5
REMARK VINA RESULT:      -6.5      2.292      3.945
REMARK  Name = 
REMARK  9 active torsions:
REMARK  status: ('A' for Active; 'I' for Inactive)
REMARK    1  A    between atoms: C_1  and  C_2
REMARK    2  A    between atoms: C_2  and  C_3
REMARK    3  A    between atoms: C_3  and  C_4
REMARK    4  A    between atoms: C_4  and  C_5
REMARK    5  A    between atoms: C_5  and  C_6
REMARK    6  A    between atoms: C_6  and  C_7
REMARK    7  A    between atoms: C_7  and  C_8
REMARK    8  A    between atoms: C_8  and  N_9
REMARK    9  A    between atoms: N_12  and  C_13
REMARK                            x       y       z     vdW  Elec       q    Type
REMARK                         _______ _______ _______ _____ _____    ______ ____
ROOT
ATOM      1  N   UNL     1       7.145   4.778  19.074  0.00  0.00    +0.000 N 
ATOM      2  C   UNL     1       5.813   4.521  19.302  0.00  0.00    +0.000 C 
ATOM      3  O   UNL     1       5.131   5.344  19.901  0.00  0.00    +0.000 OA
ATOM      4  N   UNL     1       5.385   3.303  18.832  0.00  0.00    +0.000 N 
ATOM      5  H   UNL     1       7.701   4.151  18.500  0.00  0.00    +0.000 HD
ATOM      6  H   UNL     1       6.084   2.604  18.632  0.00  0.00    +0.000 HD
ENDROOT
BRANCH   4   7
ATOM      7  C   UNL     1       4.030   2.867  18.932  0.00  0.00    +0.000 A 
ATOM      8  C   UNL     1       3.295   2.477  17.805  0.00  0.00    +0.000 A 
ATOM      9  C   UNL     1       1.947   2.142  17.889  0.00  0.00    +0.000 A 
ATOM     10  C   UNL     1       1.308   2.168  19.122  0.00  0.00    +0.000 A 
ATOM     11  C   UNL     1       2.036   2.511  20.262  0.00  0.00    +0.000 A 
ATOM     12 CL   UNL     1       1.224   2.560  21.779  0.00  0.00    +0.000 Cl
ATOM     13  C   UNL     1       3.394   2.843  20.180  0.00  0.00    +0.000 A 
ENDBRANCH   4   7
BRANCH   1  14
ATOM     14  C   UNL     1       7.712   6.042  19.499  0.00  0.00    +0.000 C 
BRANCH  14  15
ATOM     15  C   UNL     1       8.151   6.900  18.310  0.00  0.00    +0.000 C 
BRANCH  15  16
ATOM     16  C   UNL     1       7.282   6.640  17.077  0.00  0.00    +0.000 C 
BRANCH  16  17
ATOM     17  C   UNL     1       5.945   7.376  17.174  0.00  0.00    +0.000 C 
BRANCH  17  18
ATOM     18  C   UNL     1       4.819   6.587  16.503  0.00  0.00    +0.000 C 
BRANCH  18  19
ATOM     19  C   UNL     1       5.297   5.956  15.195  0.00  0.00    +0.000 C 
BRANCH  19  21
ATOM     20  C   UNL     1       6.259   3.814  14.298  0.00  0.00    +0.000 C 
ATOM     21  C   UNL     1       5.261   4.430  15.265  0.00  0.00    +0.000 C 
ENDBRANCH  19  21
ENDBRANCH  18  19
ENDBRANCH  17  18
ENDBRANCH  16  17
ENDBRANCH  15  16
ENDBRANCH  14  15
ENDBRANCH   1  14
TORSDOF 8
ENDMDL
MODEL 6
REMARK VINA RESULT:      -6.4      4.657      6.845
REMARK  Name = 
REMARK  9 active torsions:
REMARK  status: ('A' for Active; 'I' for Inactive)
REMARK    1  A    between atoms: C_1  and  C_2
REMARK    2  A    between atoms: C_2  and  C_3
REMARK    3  A    between atoms: C_3  and  C_4
REMARK    4  A    between atoms: C_4  and  C_5
REMARK    5  A    between atoms: C_5  and  C_6
REMARK    6  A    between atoms: C_6  and  C_7
REMARK    7  A    between atoms: C_7  and  C_8
REMARK    8  A    between atoms: C_8  and  N_9
REMARK    9  A    between atoms: N_12  and  C_13
REMARK                            x       y       z     vdW  Elec       q    Type
REMARK                         _______ _______ _______ _____ _____    ______ ____
ROOT
ATOM      1  N   UNL     1       5.039   3.888  15.766  0.00  0.00    +0.000 N 
ATOM      2  C   UNL     1       4.691   3.963  17.095  0.00  0.00    +0.000 C 
ATOM      3  O   UNL     1       5.548   4.212  17.934  0.00  0.00    +0.000 OA
ATOM      4  N   UNL     1       3.363   3.713  17.344  0.00  0.00    +0.000 N 
ATOM      5  H   UNL     1       4.327   3.775  15.051  0.00  0.00    +0.000 HD
ATOM      6  H   UNL     1       2.833   3.235  16.632  0.00  0.00    +0.000 HD
ENDROOT
BRANCH   4   7
ATOM      7  C   UNL     1       2.795   3.782  18.652  0.00  0.00    +0.000 A 
ATOM      8  C   UNL     1       2.564   2.631  19.418  0.00  0.00    +0.000 A 
ATOM      9  C   UNL     1       1.924   2.689  20.652  0.00  0.00    +0.000 A 
ATOM     10  C   UNL     1       1.521   3.917  21.160  0.00  0.00    +0.000 A 
ATOM     11  C   UNL     1       1.783   5.078  20.431  0.00  0.00    +0.000 A 
ATOM     12 CL   UNL     1       1.257   6.589  21.064  0.00  0.00    +0.000 Cl
ATOM     13  C   UNL     1       2.432   5.022  19.191  0.00  0.00    +0.000 A 
ENDBRANCH   4   7
BRANCH   1  14
ATOM     14  C   UNL     1       6.407   4.159  15.371  0.00  0.00    +0.000 C 
BRANCH  14  15
ATOM     15  C   UNL     1       6.544   4.310  13.854  0.00  0.00    +0.000 C 
BRANCH  15  16
ATOM     16  C   UNL     1       5.248   3.933  13.132  0.00  0.00    +0.000 C 
BRANCH  16  17
ATOM     17  C   UNL     1       5.535   3.231  11.803  0.00  0.00    +0.000 C 
BRANCH  17  18
ATOM     18  C   UNL     1       7.027   2.943  11.631  0.00  0.00    +0.000 C 
BRANCH  18  19
ATOM     19  C   UNL     1       7.255   1.526  11.107  0.00  0.00    +0.000 C 
BRANCH  19  21
ATOM     20  C   UNL     1       6.118  -0.702  11.362  0.00  0.00    +0.000 C 
ATOM     21  C   UNL     1       5.939   0.758  10.980  0.00  0.00    +0.000 C 
ENDBRANCH  19  21
ENDBRANCH  18  19
ENDBRANCH  17  18
ENDBRANCH  16  17
ENDBRANCH  15  16
ENDBRANCH  14  15
ENDBRANCH   1  14
TORSDOF 8
ENDMDL
MODEL 7
REMARK VINA RESULT:      -6.4      4.441      6.996
REMARK  Name = 
REMARK  9 active torsions:
REMARK  status: ('A' for Active; 'I' for Inactive)
REMARK    1  A    between atoms: C_1  and  C_2
REMARK    2  A    between atoms: C_2  and  C_3
REMARK    3  A    between atoms: C_3  and  C_4
REMARK    4  A    between atoms: C_4  and  C_5
REMARK    5  A    between atoms: C_5  and  C_6
REMARK    6  A    between atoms: C_6  and  C_7
REMARK    7  A    between atoms: C_7  and  C_8
REMARK    8  A    between atoms: C_8  and  N_9
REMARK    9  A    between atoms: N_12  and  C_13
REMARK                            x       y       z     vdW  Elec       q    Type
REMARK                         _______ _______ _______ _____ _____    ______ ____
ROOT
ATOM      1  N   UNL     1       2.612   2.226  18.577  0.00  0.00    +0.000 N 
ATOM      2  C   UNL     1       3.220   2.981  17.601  0.00  0.00    +0.000 C 
ATOM      3  O   UNL     1       2.535   3.631  16.820  0.00  0.00    +0.000 OA
ATOM      4  N   UNL     1       4.592   2.898  17.597  0.00  0.00    +0.000 N 
ATOM      5  H   UNL     1       3.166   1.758  19.288  0.00  0.00    +0.000 HD
ATOM      6  H   UNL     1       5.017   2.120  18.077  0.00  0.00    +0.000 HD
ENDROOT
BRANCH   4   7
ATOM      7  C   UNL     1       5.410   3.638  16.691  0.00  0.00    +0.000 A 
ATOM      8  C   UNL     1       6.127   4.770  17.100  0.00  0.00    +0.000 A 
ATOM      9  C   UNL     1       6.850   5.545  16.198  0.00  0.00    +0.000 A 
ATOM     10  C   UNL     1       6.888   5.184  14.858  0.00  0.00    +0.000 A 
ATOM     11  C   UNL     1       6.216   4.034  14.441  0.00  0.00    +0.000 A 
ATOM     12 CL   UNL     1       6.255   3.612  12.773  0.00  0.00    +0.000 Cl
ATOM     13  C   UNL     1       5.493   3.249  15.348  0.00  0.00    +0.000 A 
ENDBRANCH   4   7
BRANCH   1  14
ATOM     14  C   UNL     1       1.169   2.251  18.702  0.00  0.00    +0.000 C 
BRANCH  14  15
ATOM     15  C   UNL     1       0.709   3.169  19.837  0.00  0.00    +0.000 C 
BRANCH  15  16
ATOM     16  C   UNL     1       1.839   3.442  20.832  0.00  0.00    +0.000 C 
BRANCH  16  17
ATOM     17  C   UNL     1       2.006   4.941  21.087  0.00  0.00    +0.000 C 
BRANCH  17  18
ATOM     18  C   UNL     1       2.538   5.666  19.849  0.00  0.00    +0.000 C 
BRANCH  18  19
ATOM     19  C   UNL     1       2.135   7.140  19.861  0.00  0.00    +0.000 C 
BRANCH  19  21
ATOM     20  C   UNL     1       3.469   7.073  17.732  0.00  0.00    +0.000 C 
ATOM     21  C   UNL     1       2.379   7.798  18.504  0.00  0.00    +0.000 C 
ENDBRANCH  19  21
ENDBRANCH  18  19
ENDBRANCH  17  18
ENDBRANCH  16  17
ENDBRANCH  15  16
ENDBRANCH  14  15
ENDBRANCH   1  14
TORSDOF 8
ENDMDL
MODEL 8
REMARK VINA RESULT:      -6.4      4.320      6.545
REMARK  Name = 
REMARK  9 active torsions:
REMARK  status: ('A' for Active; 'I' for Inactive)
REMARK    1  A    between atoms: C_1  and  C_2
REMARK    2  A    between atoms: C_2  and  C_3
REMARK    3  A    between atoms: C_3  and  C_4
REMARK    4  A    between atoms: C_4  and  C_5
REMARK    5  A    between atoms: C_5  and  C_6
REMARK    6  A    between atoms: C_6  and  C_7
REMARK    7  A    between atoms: C_7  and  C_8
REMARK    8  A    between atoms: C_8  and  N_9
REMARK    9  A    between atoms: N_12  and  C_13
REMARK                            x       y       z     vdW  Elec       q    Type
REMARK                         _______ _______ _______ _____ _____    ______ ____
ROOT
ATOM      1  N   UNL     1       6.811   4.451  16.925  0.00  0.00    +0.000 N 
ATOM      2  C   UNL     1       5.521   4.599  17.380  0.00  0.00    +0.000 C 
ATOM      3  O   UNL     1       4.732   5.294  16.752  0.00  0.00    +0.000 OA
ATOM      4  N   UNL     1       5.259   3.939  18.556  0.00  0.00    +0.000 N 
ATOM      5  H   UNL     1       7.449   3.806  17.381  0.00  0.00    +0.000 HD
ATOM      6  H   UNL     1       6.045   3.657  19.122  0.00  0.00    +0.000 HD
ENDROOT
BRANCH   4   7
ATOM      7  C   UNL     1       3.971   3.933  19.171  0.00  0.00    +0.000 A 
ATOM      8  C   UNL     1       3.197   2.768  19.250  0.00  0.00    +0.000 A 
ATOM      9  C   UNL     1       1.904   2.781  19.764  0.00  0.00    +0.000 A 
ATOM     10  C   UNL     1       1.364   3.970  20.237  0.00  0.00    +0.000 A 
ATOM     11  C   UNL     1       2.138   5.131  20.207  0.00  0.00    +0.000 A 
ATOM     12 CL   UNL     1       1.447   6.601  20.776  0.00  0.00    +0.000 Cl
ATOM     13  C   UNL     1       3.442   5.118  19.695  0.00  0.00    +0.000 A 
ENDBRANCH   4   7
BRANCH   1  14
ATOM     14  C   UNL     1       7.204   5.077  15.679  0.00  0.00    +0.000 C 
BRANCH  14  15
ATOM     15  C   UNL     1       6.537   4.415  14.470  0.00  0.00    +0.000 C 
BRANCH  15  16
ATOM     16  C   UNL     1       7.230   4.806  13.163  0.00  0.00    +0.000 C 
BRANCH  16  17
ATOM     17  C   UNL     1       6.813   3.884  12.015  0.00  0.00    +0.000 C 
BRANCH  17  18
ATOM     18  C   UNL     1       5.536   3.112  12.351  0.00  0.00    +0.000 C 
BRANCH  18  19
ATOM     19  C   UNL     1       5.269   2.019  11.316  0.00  0.00    +0.000 C 
BRANCH  19  21
ATOM     20  C   UNL     1       6.098  -0.353  11.261  0.00  0.00    +0.000 C 
ATOM     21  C   UNL     1       6.484   1.112  11.135  0.00  0.00    +0.000 C 
ENDBRANCH  19  21
ENDBRANCH  18  19
ENDBRANCH  17  18
ENDBRANCH  16  17
ENDBRANCH  15  16
ENDBRANCH  14  15
ENDBRANCH   1  14
TORSDOF 8
ENDMDL
MODEL 9
REMARK VINA RESULT:      -6.4      3.245      4.778
REMARK  Name = 
REMARK  9 active torsions:
REMARK  status: ('A' for Active; 'I' for Inactive)
REMARK    1  A    between atoms: C_1  and  C_2
REMARK    2  A    between atoms: C_2  and  C_3
REMARK    3  A    between atoms: C_3  and  C_4
REMARK    4  A    between atoms: C_4  and  C_5
REMARK    5  A    between atoms: C_5  and  C_6
REMARK    6  A    between atoms: C_6  and  C_7
REMARK    7  A    between atoms: C_7  and  C_8
REMARK    8  A    between atoms: C_8  and  N_9
REMARK    9  A    between atoms: N_12  and  C_13
REMARK                            x       y       z     vdW  Elec       q    Type
REMARK                         _______ _______ _______ _____ _____    ______ ____
ROOT
ATOM      1  N   UNL     1       8.160   9.166  17.912  0.00  0.00    +0.000 N 
ATOM      2  C   UNL     1       7.744   7.856  17.880  0.00  0.00    +0.000 C 
ATOM      3  O   UNL     1       8.192   7.056  18.692  0.00  0.00    +0.000 OA
ATOM      4  N   UNL     1       6.847   7.574  16.877  0.00  0.00    +0.000 N 
ATOM      5  H   UNL     1       7.730   9.860  17.308  0.00  0.00    +0.000 HD
ATOM      6  H   UNL     1       6.785   8.221  16.106  0.00  0.00    +0.000 HD
ENDROOT
BRANCH   4   7
ATOM      7  C   UNL     1       6.264   6.283  16.700  0.00  0.00    +0.000 A 
ATOM      8  C   UNL     1       6.870   5.302  15.904  0.00  0.00    +0.000 A 
ATOM      9  C   UNL     1       6.256   4.078  15.655  0.00  0.00    +0.000 A 
ATOM     10  C   UNL     1       5.021   3.800  16.226  0.00  0.00    +0.000 A 
ATOM     11  C   UNL     1       4.424   4.749  17.058  0.00  0.00    +0.000 A 
ATOM     12 CL   UNL     1       2.883   4.398  17.739  0.00  0.00    +0.000 Cl
ATOM     13  C   UNL     1       5.043   5.979  17.313  0.00  0.00    +0.000 A 
ENDBRANCH   4   7
BRANCH   1  14
ATOM     14  C   UNL     1       9.086   9.596  18.941  0.00  0.00    +0.000 C 
BRANCH  14  15
ATOM     15  C   UNL     1       9.419  11.085  18.825  0.00  0.00    +0.000 C 
BRANCH  15  16
ATOM     16  C   UNL     1      10.469  11.507  19.855  0.00  0.00    +0.000 C 
BRANCH  16  17
ATOM     17  C   UNL     1      11.868  11.554  19.237  0.00  0.00    +0.000 C 
BRANCH  17  18
ATOM     18  C   UNL     1      12.223  12.962  18.757  0.00  0.00    +0.000 C 
BRANCH  18  19
ATOM     19  C   UNL     1      12.132  13.061  17.235  0.00  0.00    +0.000 C 
BRANCH  19  21
ATOM     20  C   UNL     1      10.484  14.796  18.008  0.00  0.00    +0.000 C 
ATOM     21  C   UNL     1      11.111  14.114  16.803  0.00  0.00    +0.000 C 
ENDBRANCH  19  21
ENDBRANCH  18  19
ENDBRANCH  17  18
ENDBRANCH  16  17
ENDBRANCH  15  16
ENDBRANCH  14  15
ENDBRANCH   1  14
TORSDOF 8
ENDMDL
