MODEL 1
REMARK VINA RESULT:      -7.4      0.000      0.000
REMARK  Name = 
REMARK  8 active torsions:
REMARK  status: ('A' for Active; 'I' for Inactive)
REMARK    1  A    between atoms: C_1  and  O_2
REMARK    2  A    between atoms: O_2  and  C_3
REMARK    3  A    between atoms: C_8  and  O_9
REMARK    4  A    between atoms: O_9  and  C_10
REMARK    5  A    between atoms: C_10  and  C_11
REMARK    6  A    between atoms: C_11  and  S_12
REMARK    7  A    between atoms: S_12  and  C_13
REMARK    8  A    between atoms: C_18  and  N_19
REMARK                            x       y       z     vdW  Elec       q    Type
REMARK                         _______ _______ _______ _____ _____    ______ ____
ROOT
ATOM      1  S   UNL     1       3.024   3.283  20.468  0.00  0.00    +0.000 S 
ENDROOT
BRANCH   1   2
ATOM      2  C   UNL     1       4.031   3.522  19.050  0.00  0.00    +0.000 A 
ATOM      3  N   UNL     1       5.284   3.886  19.176  0.00  0.00    +0.000 NA
ATOM      4  C   UNL     1       5.829   4.132  17.932  0.00  0.00    +0.000 A 
ATOM      5  C   UNL     1       7.145   4.574  17.692  0.00  0.00    +0.000 A 
ATOM      6  C   UNL     1       7.579   4.803  16.383  0.00  0.00    +0.000 A 
ATOM      7  C   UNL     1       6.706   4.590  15.313  0.00  0.00    +0.000 A 
ATOM      8  C   UNL     1       5.384   4.150  15.518  0.00  0.00    +0.000 A 
ATOM      9  C   UNL     1       4.972   3.927  16.847  0.00  0.00    +0.000 A 
ATOM     10  S   UNL     1       3.441   3.400  17.448  0.00  0.00    +0.000 S 
BRANCH   7  11
ATOM     11  N   UNL     1       7.177   4.836  13.942  0.00  0.00    +0.000 N 
ATOM     12  O   UNL     1       8.062   5.688  13.781  0.00  0.00    +0.000 OA
ATOM     13  O   UNL     1       6.657   4.181  13.029  0.00  0.00    +0.000 OA
ENDBRANCH   7  11
ENDBRANCH   1   2
BRANCH   1  14
ATOM     14  C   UNL     1       1.532   4.228  19.963  0.00  0.00    +0.000 C 
BRANCH  14  15
ATOM     15  C   UNL     1       1.466   5.561  20.708  0.00  0.00    +0.000 C 
BRANCH  15  16
ATOM     16  O   UNL     1       2.426   6.492  20.216  0.00  0.00    +0.000 OA
BRANCH  16  22
ATOM     17  C   UNL     1       1.273   8.713  20.501  0.00  0.00    +0.000 A 
ATOM     18  C   UNL     1       0.918   9.914  19.867  0.00  0.00    +0.000 A 
ATOM     19  C   UNL     1       1.102  10.081  18.495  0.00  0.00    +0.000 A 
ATOM     20  C   UNL     1       1.678   9.058  17.753  0.00  0.00    +0.000 A 
ATOM     21  C   UNL     1       2.107   7.889  18.388  0.00  0.00    +0.000 A 
ATOM     22  C   UNL     1       1.925   7.698  19.766  0.00  0.00    +0.000 A 
BRANCH  17  24
ATOM     23  C   UNL     1      -0.123   9.230  22.343  0.00  0.00    +0.000 C 
ATOM     24  O   UNL     1       1.037   8.567  21.842  0.00  0.00    +0.000 OA
ENDBRANCH  17  24
ENDBRANCH  16  22
ENDBRANCH  15  16
ENDBRANCH  14  15
ENDBRANCH   1  14
TORSDOF 7
ENDMDL
MODEL 2
REMARK VINA RESULT:      -7.4      1.015      2.178
REMARK  Name = 
REMARK  8 active torsions:
REMARK  status: ('A' for Active; 'I' for Inactive)
REMARK    1  A    between atoms: C_1  and  O_2
REMARK    2  A    between atoms: O_2  and  C_3
REMARK    3  A    between atoms: C_8  and  O_9
REMARK    4  A    between atoms: O_9  and  C_10
REMARK    5  A    between atoms: C_10  and  C_11
REMARK    6  A    between atoms: C_11  and  S_12
REMARK    7  A    between atoms: S_12  and  C_13
REMARK    8  A    between atoms: C_18  and  N_19
REMARK                            x       y       z     vdW  Elec       q    Type
REMARK                         _______ _______ _______ _____ _____    ______ ____
ROOT
ATOM      1  S   UNL     1       3.281   3.100  20.815  0.00  0.00    +0.000 S 
ENDROOT
BRANCH   1   2
ATOM      2  C   UNL     1       4.212   3.365  19.351  0.00  0.00    +0.000 A 
ATOM      3  N   UNL     1       5.390   3.937  19.404  0.00  0.00    +0.000 NA
ATOM      4  C   UNL     1       5.867   4.150  18.126  0.00  0.00    +0.000 A 
ATOM      5  C   UNL     1       7.088   4.775  17.806  0.00  0.00    +0.000 A 
ATOM      6  C   UNL     1       7.457   4.947  16.469  0.00  0.00    +0.000 A 
ATOM      7  C   UNL     1       6.613   4.495  15.450  0.00  0.00    +0.000 A 
ATOM      8  C   UNL     1       5.386   3.868  15.736  0.00  0.00    +0.000 A 
ATOM      9  C   UNL     1       5.038   3.708  17.091  0.00  0.00    +0.000 A 
ATOM     10  S   UNL     1       3.624   2.998  17.786  0.00  0.00    +0.000 S 
BRANCH   7  11
ATOM     11  N   UNL     1       7.016   4.684  14.048  0.00  0.00    +0.000 N 
ATOM     12  O   UNL     1       6.478   3.967  13.193  0.00  0.00    +0.000 OA
ATOM     13  O   UNL     1       7.872   5.546  13.807  0.00  0.00    +0.000 OA
ENDBRANCH   7  11
ENDBRANCH   1   2
BRANCH   1  14
ATOM     14  C   UNL     1       1.579   3.170  20.128  0.00  0.00    +0.000 C 
BRANCH  14  15
ATOM     15  C   UNL     1       1.002   4.578  20.270  0.00  0.00    +0.000 C 
BRANCH  15  16
ATOM     16  O   UNL     1       1.993   5.518  20.676  0.00  0.00    +0.000 OA
BRANCH  16  22
ATOM     17  C   UNL     1       2.320   7.299  18.925  0.00  0.00    +0.000 A 
ATOM     18  C   UNL     1       2.005   8.614  18.550  0.00  0.00    +0.000 A 
ATOM     19  C   UNL     1       1.338   9.469  19.426  0.00  0.00    +0.000 A 
ATOM     20  C   UNL     1       0.949   9.000  20.675  0.00  0.00    +0.000 A 
ATOM     21  C   UNL     1       1.188   7.669  21.028  0.00  0.00    +0.000 A 
ATOM     22  C   UNL     1       1.863   6.794  20.163  0.00  0.00    +0.000 A 
BRANCH  17  24
ATOM     23  C   UNL     1       4.040   7.150  17.303  0.00  0.00    +0.000 C 
ATOM     24  O   UNL     1       3.015   6.501  18.055  0.00  0.00    +0.000 OA
ENDBRANCH  17  24
ENDBRANCH  16  22
ENDBRANCH  15  16
ENDBRANCH  14  15
ENDBRANCH   1  14
TORSDOF 7
ENDMDL
MODEL 3
REMARK VINA RESULT:      -7.0      3.083      4.833
REMARK  Name = 
REMARK  8 active torsions:
REMARK  status: ('A' for Active; 'I' for Inactive)
REMARK    1  A    between atoms: C_1  and  O_2
REMARK    2  A    between atoms: O_2  and  C_3
REMARK    3  A    between atoms: C_8  and  O_9
REMARK    4  A    between atoms: O_9  and  C_10
REMARK    5  A    between atoms: C_10  and  C_11
REMARK    6  A    between atoms: C_11  and  S_12
REMARK    7  A    between atoms: S_12  and  C_13
REMARK    8  A    between atoms: C_18  and  N_19
REMARK                            x       y       z     vdW  Elec       q    Type
REMARK                         _______ _______ _______ _____ _____    ______ ____
ROOT
ATOM      1  S   UNL     1       7.201   6.634  17.687  0.00  0.00    +0.000 S 
ENDROOT
BRANCH   1   2
ATOM      2  C   UNL     1       6.858   5.634  16.286  0.00  0.00    +0.000 A 
ATOM      3  N   UNL     1       7.616   5.700  15.218  0.00  0.00    +0.000 NA
ATOM      4  C   UNL     1       7.079   4.923  14.212  0.00  0.00    +0.000 A 
ATOM      5  C   UNL     1       7.613   4.787  12.915  0.00  0.00    +0.000 A 
ATOM      6  C   UNL     1       6.968   3.978  11.975  0.00  0.00    +0.000 A 
ATOM      7  C   UNL     1       5.795   3.303  12.324  0.00  0.00    +0.000 A 
ATOM      8  C   UNL     1       5.235   3.419  13.611  0.00  0.00    +0.000 A 
ATOM      9  C   UNL     1       5.903   4.240  14.539  0.00  0.00    +0.000 A 
ATOM     10  S   UNL     1       5.494   4.605  16.177  0.00  0.00    +0.000 S 
BRANCH   7  11
ATOM     11  N   UNL     1       5.128   2.457  11.322  0.00  0.00    +0.000 N 
ATOM     12  O   UNL     1       5.674   1.388  11.015  0.00  0.00    +0.000 OA
ATOM     13  O   UNL     1       4.063   2.866  10.842  0.00  0.00    +0.000 OA
ENDBRANCH   7  11
ENDBRANCH   1   2
BRANCH   1  14
ATOM     14  C   UNL     1       7.158   5.358  19.008  0.00  0.00    +0.000 C 
BRANCH  14  15
ATOM     15  C   UNL     1       5.757   5.259  19.612  0.00  0.00    +0.000 C 
BRANCH  15  16
ATOM     16  O   UNL     1       5.156   3.993  19.351  0.00  0.00    +0.000 OA
BRANCH  16  22
ATOM     17  C   UNL     1       2.708   4.562  19.188  0.00  0.00    +0.000 A 
ATOM     18  C   UNL     1       1.417   4.221  19.622  0.00  0.00    +0.000 A 
ATOM     19  C   UNL     1       1.226   3.284  20.635  0.00  0.00    +0.000 A 
ATOM     20  C   UNL     1       2.328   2.651  21.198  0.00  0.00    +0.000 A 
ATOM     21  C   UNL     1       3.612   2.925  20.719  0.00  0.00    +0.000 A 
ATOM     22  C   UNL     1       3.827   3.870  19.704  0.00  0.00    +0.000 A 
BRANCH  17  24
ATOM     23  C   UNL     1       2.587   6.860  18.627  0.00  0.00    +0.000 C 
ATOM     24  O   UNL     1       2.861   5.520  18.220  0.00  0.00    +0.000 OA
ENDBRANCH  17  24
ENDBRANCH  16  22
ENDBRANCH  15  16
ENDBRANCH  14  15
ENDBRANCH   1  14
TORSDOF 7
ENDMDL
MODEL 4
REMARK VINA RESULT:      -7.0      0.941      1.027
REMARK  Name = 
REMARK  8 active torsions:
REMARK  status: ('A' for Active; 'I' for Inactive)
REMARK    1  A    between atoms: C_1  and  O_2
REMARK    2  A    between atoms: O_2  and  C_3
REMARK    3  A    between atoms: C_8  and  O_9
REMARK    4  A    between atoms: O_9  and  C_10
REMARK    5  A    between atoms: C_10  and  C_11
REMARK    6  A    between atoms: C_11  and  S_12
REMARK    7  A    between atoms: S_12  and  C_13
REMARK    8  A    between atoms: C_18  and  N_19
REMARK                            x       y       z     vdW  Elec       q    Type
REMARK                         _______ _______ _______ _____ _____    ______ ____
ROOT
ATOM      1  S   UNL     1       1.780   2.723  20.284  0.00  0.00    +0.000 S 
ENDROOT
BRANCH   1   2
ATOM      2  C   UNL     1       3.013   3.103  19.094  0.00  0.00    +0.000 A 
ATOM      3  N   UNL     1       4.161   3.617  19.464  0.00  0.00    +0.000 NA
ATOM      4  C   UNL     1       4.909   3.945  18.352  0.00  0.00    +0.000 A 
ATOM      5  C   UNL     1       6.182   4.549  18.376  0.00  0.00    +0.000 A 
ATOM      6  C   UNL     1       6.837   4.848  17.177  0.00  0.00    +0.000 A 
ATOM      7  C   UNL     1       6.229   4.545  15.956  0.00  0.00    +0.000 A 
ATOM      8  C   UNL     1       4.957   3.943  15.898  0.00  0.00    +0.000 A 
ATOM      9  C   UNL     1       4.318   3.653  17.119  0.00  0.00    +0.000 A 
ATOM     10  S   UNL     1       2.775   2.933  17.407  0.00  0.00    +0.000 S 
BRANCH   7  11
ATOM     11  N   UNL     1       6.931   4.867  14.705  0.00  0.00    +0.000 N 
ATOM     12  O   UNL     1       7.856   5.689  14.758  0.00  0.00    +0.000 OA
ATOM     13  O   UNL     1       6.552   4.300  13.671  0.00  0.00    +0.000 OA
ENDBRANCH   7  11
ENDBRANCH   1   2
BRANCH   1  14
ATOM     14  C   UNL     1       1.070   4.395  20.555  0.00  0.00    +0.000 C 
BRANCH  14  15
ATOM     15  C   UNL     1       2.132   5.470  20.322  0.00  0.00    +0.000 C 
BRANCH  15  16
ATOM     16  O   UNL     1       1.704   6.747  20.790  0.00  0.00    +0.000 OA
BRANCH  16  22
ATOM     17  C   UNL     1       1.124   9.045  19.938  0.00  0.00    +0.000 A 
ATOM     18  C   UNL     1       1.349   9.984  18.919  0.00  0.00    +0.000 A 
ATOM     19  C   UNL     1       2.075   9.644  17.779  0.00  0.00    +0.000 A 
ATOM     20  C   UNL     1       2.614   8.369  17.666  0.00  0.00    +0.000 A 
ATOM     21  C   UNL     1       2.463   7.451  18.710  0.00  0.00    +0.000 A 
ATOM     22  C   UNL     1       1.731   7.771  19.863  0.00  0.00    +0.000 A 
BRANCH  17  24
ATOM     23  C   UNL     1       0.145  10.800  21.191  0.00  0.00    +0.000 C 
ATOM     24  O   UNL     1       0.369   9.401  21.024  0.00  0.00    +0.000 OA
ENDBRANCH  17  24
ENDBRANCH  16  22
ENDBRANCH  15  16
ENDBRANCH  14  15
ENDBRANCH   1  14
TORSDOF 7
ENDMDL
MODEL 5
REMARK VINA RESULT:      -7.0      2.941      4.807
REMARK  Name = 
REMARK  8 active torsions:
REMARK  status: ('A' for Active; 'I' for Inactive)
REMARK    1  A    between atoms: C_1  and  O_2
REMARK    2  A    between atoms: O_2  and  C_3
REMARK    3  A    between atoms: C_8  and  O_9
REMARK    4  A    between atoms: O_9  and  C_10
REMARK    5  A    between atoms: C_10  and  C_11
REMARK    6  A    between atoms: C_11  and  S_12
REMARK    7  A    between atoms: S_12  and  C_13
REMARK    8  A    between atoms: C_18  and  N_19
REMARK                            x       y       z     vdW  Elec       q    Type
REMARK                         _______ _______ _______ _____ _____    ______ ____
ROOT
ATOM      1  S   UNL     1       7.192   6.789  17.578  0.00  0.00    +0.000 S 
ENDROOT
BRANCH   1   2
ATOM      2  C   UNL     1       6.820   5.755  16.209  0.00  0.00    +0.000 A 
ATOM      3  N   UNL     1       7.630   5.693  15.180  0.00  0.00    +0.000 NA
ATOM      4  C   UNL     1       7.067   4.920  14.185  0.00  0.00    +0.000 A 
ATOM      5  C   UNL     1       7.646   4.666  12.925  0.00  0.00    +0.000 A 
ATOM      6  C   UNL     1       6.970   3.875  11.991  0.00  0.00    +0.000 A 
ATOM      7  C   UNL     1       5.721   3.335  12.310  0.00  0.00    +0.000 A 
ATOM      8  C   UNL     1       5.115   3.570  13.559  0.00  0.00    +0.000 A 
ATOM      9  C   UNL     1       5.817   4.371  14.482  0.00  0.00    +0.000 A 
ATOM     10  S   UNL     1       5.368   4.857  16.077  0.00  0.00    +0.000 S 
BRANCH   7  11
ATOM     11  N   UNL     1       5.023   2.506  11.316  0.00  0.00    +0.000 N 
ATOM     12  O   UNL     1       3.935   2.914  10.888  0.00  0.00    +0.000 OA
ATOM     13  O   UNL     1       5.562   1.446  10.972  0.00  0.00    +0.000 OA
ENDBRANCH   7  11
ENDBRANCH   1   2
BRANCH   1  14
ATOM     14  C   UNL     1       7.220   5.539  18.923  0.00  0.00    +0.000 C 
BRANCH  14  15
ATOM     15  C   UNL     1       5.817   5.337  19.495  0.00  0.00    +0.000 C 
BRANCH  15  16
ATOM     16  O   UNL     1       5.434   3.964  19.487  0.00  0.00    +0.000 OA
BRANCH  16  22
ATOM     17  C   UNL     1       2.977   4.518  19.489  0.00  0.00    +0.000 A 
ATOM     18  C   UNL     1       1.706   4.111  19.053  0.00  0.00    +0.000 A 
ATOM     19  C   UNL     1       1.520   2.867  18.452  0.00  0.00    +0.000 A 
ATOM     20  C   UNL     1       2.613   2.035  18.249  0.00  0.00    +0.000 A 
ATOM     21  C   UNL     1       3.894   2.463  18.608  0.00  0.00    +0.000 A 
ATOM     22  C   UNL     1       4.103   3.708  19.220  0.00  0.00    +0.000 A 
BRANCH  17  24
ATOM     23  C   UNL     1       2.214   6.751  19.693  0.00  0.00    +0.000 C 
ATOM     24  O   UNL     1       3.116   5.728  20.115  0.00  0.00    +0.000 OA
ENDBRANCH  17  24
ENDBRANCH  16  22
ENDBRANCH  15  16
ENDBRANCH  14  15
ENDBRANCH   1  14
TORSDOF 7
ENDMDL
MODEL 6
REMARK VINA RESULT:      -6.9      1.210      2.144
REMARK  Name = 
REMARK  8 active torsions:
REMARK  status: ('A' for Active; 'I' for Inactive)
REMARK    1  A    between atoms: C_1  and  O_2
REMARK    2  A    between atoms: O_2  and  C_3
REMARK    3  A    between atoms: C_8  and  O_9
REMARK    4  A    between atoms: O_9  and  C_10
REMARK    5  A    between atoms: C_10  and  C_11
REMARK    6  A    between atoms: C_11  and  S_12
REMARK    7  A    between atoms: S_12  and  C_13
REMARK    8  A    between atoms: C_18  and  N_19
REMARK                            x       y       z     vdW  Elec       q    Type
REMARK                         _______ _______ _______ _____ _____    ______ ____
ROOT
ATOM      1  S   UNL     1       2.483   3.974  20.654  0.00  0.00    +0.000 S 
ENDROOT
BRANCH   1   2
ATOM      2  C   UNL     1       3.560   4.021  19.268  0.00  0.00    +0.000 A 
ATOM      3  N   UNL     1       4.835   4.286  19.423  0.00  0.00    +0.000 NA
ATOM      4  C   UNL     1       5.445   4.392  18.190  0.00  0.00    +0.000 A 
ATOM      5  C   UNL     1       6.804   4.702  17.978  0.00  0.00    +0.000 A 
ATOM      6  C   UNL     1       7.305   4.796  16.677  0.00  0.00    +0.000 A 
ATOM      7  C   UNL     1       6.458   4.579  15.587  0.00  0.00    +0.000 A 
ATOM      8  C   UNL     1       5.096   4.268  15.764  0.00  0.00    +0.000 A 
ATOM      9  C   UNL     1       4.616   4.180  17.085  0.00  0.00    +0.000 A 
ATOM     10  S   UNL     1       3.023   3.831  17.654  0.00  0.00    +0.000 S 
BRANCH   7  11
ATOM     11  N   UNL     1       7.000   4.681  14.223  0.00  0.00    +0.000 N 
ATOM     12  O   UNL     1       7.930   5.478  14.032  0.00  0.00    +0.000 OA
ATOM     13  O   UNL     1       6.492   3.970  13.347  0.00  0.00    +0.000 OA
ENDBRANCH   7  11
ENDBRANCH   1   2
BRANCH   1  14
ATOM     14  C   UNL     1       1.464   5.464  20.316  0.00  0.00    +0.000 C 
BRANCH  14  15
ATOM     15  C   UNL     1       2.250   6.735  20.639  0.00  0.00    +0.000 C 
BRANCH  15  16
ATOM     16  O   UNL     1       1.775   7.855  19.898  0.00  0.00    +0.000 OA
BRANCH  16  22
ATOM     17  C   UNL     1       0.172   9.786  20.106  0.00  0.00    +0.000 A 
ATOM     18  C   UNL     1      -0.583  10.562  21.000  0.00  0.00    +0.000 A 
ATOM     19  C   UNL     1      -0.428  10.422  22.378  0.00  0.00    +0.000 A 
ATOM     20  C   UNL     1       0.459   9.475  22.873  0.00  0.00    +0.000 A 
ATOM     21  C   UNL     1       1.157   8.643  21.994  0.00  0.00    +0.000 A 
ATOM     22  C   UNL     1       1.021   8.772  20.603  0.00  0.00    +0.000 A 
BRANCH  17  24
ATOM     23  C   UNL     1      -1.237  10.500  18.341  0.00  0.00    +0.000 C 
ATOM     24  O   UNL     1       0.026   9.982  18.758  0.00  0.00    +0.000 OA
ENDBRANCH  17  24
ENDBRANCH  16  22
ENDBRANCH  15  16
ENDBRANCH  14  15
ENDBRANCH   1  14
TORSDOF 7
ENDMDL
MODEL 7
REMARK VINA RESULT:      -6.8      4.119      5.797
REMARK  Name = 
REMARK  8 active torsions:
REMARK  status: ('A' for Active; 'I' for Inactive)
REMARK    1  A    between atoms: C_1  and  O_2
REMARK    2  A    between atoms: O_2  and  C_3
REMARK    3  A    between atoms: C_8  and  O_9
REMARK    4  A    between atoms: O_9  and  C_10
REMARK    5  A    between atoms: C_10  and  C_11
REMARK    6  A    between atoms: C_11  and  S_12
REMARK    7  A    between atoms: S_12  and  C_13
REMARK    8  A    between atoms: C_18  and  N_19
REMARK                            x       y       z     vdW  Elec       q    Type
REMARK                         _______ _______ _______ _____ _____    ______ ____
ROOT
ATOM      1  S   UNL     1       2.054   9.585  18.107  0.00  0.00    +0.000 S 
ENDROOT
BRANCH   1   2
ATOM      2  C   UNL     1       2.399   7.895  18.434  0.00  0.00    +0.000 A 
ATOM      3  N   UNL     1       1.861   7.292  19.466  0.00  0.00    +0.000 NA
ATOM      4  C   UNL     1       2.377   6.017  19.587  0.00  0.00    +0.000 A 
ATOM      5  C   UNL     1       2.049   5.099  20.604  0.00  0.00    +0.000 A 
ATOM      6  C   UNL     1       2.650   3.837  20.628  0.00  0.00    +0.000 A 
ATOM      7  C   UNL     1       3.575   3.488  19.640  0.00  0.00    +0.000 A 
ATOM      8  C   UNL     1       3.925   4.382  18.611  0.00  0.00    +0.000 A 
ATOM      9  C   UNL     1       3.306   5.647  18.610  0.00  0.00    +0.000 A 
ATOM     10  S   UNL     1       3.507   6.968  17.515  0.00  0.00    +0.000 S 
BRANCH   7  11
ATOM     11  N   UNL     1       4.200   2.156  19.680  0.00  0.00    +0.000 N 
ATOM     12  O   UNL     1       5.064   1.951  20.543  0.00  0.00    +0.000 OA
ATOM     13  O   UNL     1       3.828   1.322  18.844  0.00  0.00    +0.000 OA
ENDBRANCH   7  11
ENDBRANCH   1   2
BRANCH   1  14
ATOM     14  C   UNL     1       0.783   9.905  19.394  0.00  0.00    +0.000 C 
BRANCH  14  15
ATOM     15  C   UNL     1      -0.247  10.916  18.889  0.00  0.00    +0.000 C 
BRANCH  15  16
ATOM     16  O   UNL     1      -1.581  10.460  19.096  0.00  0.00    +0.000 OA
BRANCH  16  22
ATOM     17  C   UNL     1      -3.670  11.292  17.962  0.00  0.00    +0.000 A 
ATOM     18  C   UNL     1      -4.354  11.389  16.740  0.00  0.00    +0.000 A 
ATOM     19  C   UNL     1      -3.896  10.719  15.607  0.00  0.00    +0.000 A 
ATOM     20  C   UNL     1      -2.725   9.976  15.680  0.00  0.00    +0.000 A 
ATOM     21  C   UNL     1      -1.994   9.937  16.871  0.00  0.00    +0.000 A 
ATOM     22  C   UNL     1      -2.441  10.599  18.024  0.00  0.00    +0.000 A 
BRANCH  17  24
ATOM     23  C   UNL     1      -5.468  12.510  18.909  0.00  0.00    +0.000 C 
ATOM     24  O   UNL     1      -4.174  11.929  19.066  0.00  0.00    +0.000 OA
ENDBRANCH  17  24
ENDBRANCH  16  22
ENDBRANCH  15  16
ENDBRANCH  14  15
ENDBRANCH   1  14
TORSDOF 7
ENDMDL
MODEL 8
REMARK VINA RESULT:      -6.8      3.244      7.995
REMARK  Name = 
REMARK  8 active torsions:
REMARK  status: ('A' for Active; 'I' for Inactive)
REMARK    1  A    between atoms: C_1  and  O_2
REMARK    2  A    between atoms: O_2  and  C_3
REMARK    3  A    between atoms: C_8  and  O_9
REMARK    4  A    between atoms: O_9  and  C_10
REMARK    5  A    between atoms: C_10  and  C_11
REMARK    6  A    between atoms: C_11  and  S_12
REMARK    7  A    between atoms: S_12  and  C_13
REMARK    8  A    between atoms: C_18  and  N_19
REMARK                            x       y       z     vdW  Elec       q    Type
REMARK                         _______ _______ _______ _____ _____    ______ ____
ROOT
ATOM      1  S   UNL     1       3.805   6.578  17.207  0.00  0.00    +0.000 S 
ENDROOT
BRANCH   1   2
ATOM      2  C   UNL     1       2.756   7.387  18.359  0.00  0.00    +0.000 A 
ATOM      3  N   UNL     1       2.210   8.543  18.067  0.00  0.00    +0.000 NA
ATOM      4  C   UNL     1       1.538   9.036  19.167  0.00  0.00    +0.000 A 
ATOM      5  C   UNL     1       0.862  10.271  19.221  0.00  0.00    +0.000 A 
ATOM      6  C   UNL     1       0.227  10.670  20.402  0.00  0.00    +0.000 A 
ATOM      7  C   UNL     1       0.263   9.840  21.526  0.00  0.00    +0.000 A 
ATOM      8  C   UNL     1       0.930   8.600  21.505  0.00  0.00    +0.000 A 
ATOM      9  C   UNL     1       1.562   8.223  20.304  0.00  0.00    +0.000 A 
ATOM     10  S   UNL     1       2.462   6.794  19.938  0.00  0.00    +0.000 S 
BRANCH   7  11
ATOM     11  N   UNL     1      -0.409  10.274  22.760  0.00  0.00    +0.000 N 
ATOM     12  O   UNL     1       0.012   9.824  23.835  0.00  0.00    +0.000 OA
ATOM     13  O   UNL     1      -1.360  11.060  22.651  0.00  0.00    +0.000 OA
ENDBRANCH   7  11
ENDBRANCH   1   2
BRANCH   1  14
ATOM     14  C   UNL     1       4.802   5.546  18.353  0.00  0.00    +0.000 C 
BRANCH  14  15
ATOM     15  C   UNL     1       4.913   4.115  17.826  0.00  0.00    +0.000 C 
BRANCH  15  16
ATOM     16  O   UNL     1       3.636   3.491  17.715  0.00  0.00    +0.000 OA
BRANCH  16  22
ATOM     17  C   UNL     1       3.529   2.690  20.101  0.00  0.00    +0.000 A 
ATOM     18  C   UNL     1       2.714   2.571  21.238  0.00  0.00    +0.000 A 
ATOM     19  C   UNL     1       1.353   2.862  21.177  0.00  0.00    +0.000 A 
ATOM     20  C   UNL     1       0.802   3.313  19.984  0.00  0.00    +0.000 A 
ATOM     21  C   UNL     1       1.620   3.511  18.868  0.00  0.00    +0.000 A 
ATOM     22  C   UNL     1       2.991   3.217  18.906  0.00  0.00    +0.000 A 
BRANCH  17  24
ATOM     23  C   UNL     1       5.156   1.231  21.016  0.00  0.00    +0.000 C 
ATOM     24  O   UNL     1       4.854   2.352  20.186  0.00  0.00    +0.000 OA
ENDBRANCH  17  24
ENDBRANCH  16  22
ENDBRANCH  15  16
ENDBRANCH  14  15
ENDBRANCH   1  14
TORSDOF 7
ENDMDL
MODEL 9
REMARK VINA RESULT:      -6.7      2.621      4.350
REMARK  Name = 
REMARK  8 active torsions:
REMARK  status: ('A' for Active; 'I' for Inactive)
REMARK    1  A    between atoms: C_1  and  O_2
REMARK    2  A    between atoms: O_2  and  C_3
REMARK    3  A    between atoms: C_8  and  O_9
REMARK    4  A    between atoms: O_9  and  C_10
REMARK    5  A    between atoms: C_10  and  C_11
REMARK    6  A    between atoms: C_11  and  S_12
REMARK    7  A    between atoms: S_12  and  C_13
REMARK    8  A    between atoms: C_18  and  N_19
REMARK                            x       y       z     vdW  Elec       q    Type
REMARK                         _______ _______ _______ _____ _____    ______ ____
ROOT
ATOM      1  S   UNL     1       7.012   6.810  17.731  0.00  0.00    +0.000 S 
ENDROOT
BRANCH   1   2
ATOM      2  C   UNL     1       6.743   5.766  16.346  0.00  0.00    +0.000 A 
ATOM      3  N   UNL     1       7.550   5.807  15.313  0.00  0.00    +0.000 NA
ATOM      4  C   UNL     1       7.066   4.996  14.307  0.00  0.00    +0.000 A 
ATOM      5  C   UNL     1       7.661   4.826  13.040  0.00  0.00    +0.000 A 
ATOM      6  C   UNL     1       7.067   3.985  12.095  0.00  0.00    +0.000 A 
ATOM      7  C   UNL     1       5.884   3.311  12.409  0.00  0.00    +0.000 A 
ATOM      8  C   UNL     1       5.263   3.459  13.664  0.00  0.00    +0.000 A 
ATOM      9  C   UNL     1       5.882   4.313  14.598  0.00  0.00    +0.000 A 
ATOM     10  S   UNL     1       5.393   4.723  16.204  0.00  0.00    +0.000 S 
BRANCH   7  11
ATOM     11  N   UNL     1       5.271   2.430  11.404  0.00  0.00    +0.000 N 
ATOM     12  O   UNL     1       4.183   2.774  10.922  0.00  0.00    +0.000 OA
ATOM     13  O   UNL     1       5.877   1.393  11.102  0.00  0.00    +0.000 OA
ENDBRANCH   7  11
ENDBRANCH   1   2
BRANCH   1  14
ATOM     14  C   UNL     1       7.282   5.545  19.036  0.00  0.00    +0.000 C 
BRANCH  14  15
ATOM     15  C   UNL     1       5.957   4.892  19.430  0.00  0.00    +0.000 C 
BRANCH  15  16
ATOM     16  O   UNL     1       4.858   5.786  19.271  0.00  0.00    +0.000 OA
BRANCH  16  22
ATOM     17  C   UNL     1       2.464   6.047  20.009  0.00  0.00    +0.000 A 
ATOM     18  C   UNL     1       1.279   5.367  20.329  0.00  0.00    +0.000 A 
ATOM     19  C   UNL     1       1.258   3.978  20.442  0.00  0.00    +0.000 A 
ATOM     20  C   UNL     1       2.419   3.255  20.199  0.00  0.00    +0.000 A 
ATOM     21  C   UNL     1       3.585   3.917  19.802  0.00  0.00    +0.000 A 
ATOM     22  C   UNL     1       3.629   5.315  19.689  0.00  0.00    +0.000 A 
BRANCH  17  24
ATOM     23  C   UNL     1       1.950   7.981  18.741  0.00  0.00    +0.000 C 
ATOM     24  O   UNL     1       2.457   7.416  19.949  0.00  0.00    +0.000 OA
ENDBRANCH  17  24
ENDBRANCH  16  22
ENDBRANCH  15  16
ENDBRANCH  14  15
ENDBRANCH   1  14
TORSDOF 7
ENDMDL
