MODEL 1
REMARK VINA RESULT:      -6.9      0.000      0.000
REMARK  Name = 
REMARK  6 active torsions:
REMARK  status: ('A' for Active; 'I' for Inactive)
REMARK    1  A    between atoms: C_1  and  C_2
REMARK    2  A    between atoms: C_2  and  O_3
REMARK    3  A    between atoms: O_3  and  C_4
REMARK    4  A    between atoms: C_9  and  C_10
REMARK    5  A    between atoms: N_12  and  C_13
REMARK    6  A    between atoms: C_15  and  C_16
REMARK                            x       y       z     vdW  Elec       q    Type
REMARK                         _______ _______ _______ _____ _____    ______ ____
ROOT
ATOM      1  C   UNL     1       2.264   7.234  19.184  0.00  0.00    +0.000 C 
ATOM      2  O   UNL     1       2.161   8.238  18.481  0.00  0.00    +0.000 OA
ATOM      3  N   UNL     1       1.842   7.148  20.494  0.00  0.00    +0.000 N 
ATOM      4  H   UNL     1       1.902   6.255  20.972  0.00  0.00    +0.000 HD
ENDROOT
BRANCH   1  10
ATOM      5  C   UNL     1       2.335   4.695  18.703  0.00  0.00    +0.000 A 
ATOM      6  C   UNL     1       2.943   3.641  17.996  0.00  0.00    +0.000 A 
ATOM      7  C   UNL     1       4.081   3.857  17.218  0.00  0.00    +0.000 A 
ATOM      8  C   UNL     1       4.612   5.133  17.109  0.00  0.00    +0.000 A 
ATOM      9  C   UNL     1       3.982   6.197  17.753  0.00  0.00    +0.000 A 
ATOM     10  C   UNL     1       2.834   6.000  18.547  0.00  0.00    +0.000 A 
BRANCH   5  11
ATOM     11  O   UNL     1       1.266   4.489  19.543  0.00  0.00    +0.000 OA
BRANCH  11  13
ATOM     12  C   UNL     1       2.046   3.518  21.592  0.00  0.00    +0.000 C 
ATOM     13  C   UNL     1       1.308   3.265  20.290  0.00  0.00    +0.000 C 
ENDBRANCH  11  13
ENDBRANCH   5  11
ENDBRANCH   1  10
BRANCH   3  14
ATOM     14  C   UNL     1       1.271   8.224  21.142  0.00  0.00    +0.000 A 
ATOM     15  C   UNL     1       0.100   8.903  20.909  0.00  0.00    +0.000 A 
ATOM     16  C   UNL     1       0.095   9.935  21.880  0.00  0.00    +0.000 A 
ATOM     17  N   UNL     1       1.158   9.852  22.686  0.00  0.00    +0.000 NA
ATOM     18  O   UNL     1       1.897   8.785  22.214  0.00  0.00    +0.000 OA
BRANCH  16  19
ATOM     19  C   UNL     1      -0.911  10.998  22.005  0.00  0.00    +0.000 A 
ATOM     20  C   UNL     1      -1.577  11.280  23.241  0.00  0.00    +0.000 A 
ATOM     21  C   UNL     1      -2.458  12.334  23.135  0.00  0.00    +0.000 A 
ATOM     22  S   UNL     1      -2.490  12.984  21.554  0.00  0.00    +0.000 S 
ATOM     23  C   UNL     1      -1.320  11.856  21.005  0.00  0.00    +0.000 A 
ENDBRANCH  16  19
ENDBRANCH   3  14
TORSDOF 5
ENDMDL
MODEL 2
REMARK VINA RESULT:      -6.7      2.439      4.100
REMARK  Name = 
REMARK  6 active torsions:
REMARK  status: ('A' for Active; 'I' for Inactive)
REMARK    1  A    between atoms: C_1  and  C_2
REMARK    2  A    between atoms: C_2  and  O_3
REMARK    3  A    between atoms: O_3  and  C_4
REMARK    4  A    between atoms: C_9  and  C_10
REMARK    5  A    between atoms: N_12  and  C_13
REMARK    6  A    between atoms: C_15  and  C_16
REMARK                            x       y       z     vdW  Elec       q    Type
REMARK                         _______ _______ _______ _____ _____    ______ ____
ROOT
ATOM      1  C   UNL     1       4.413   5.829  18.290  0.00  0.00    +0.000 C 
ATOM      2  O   UNL     1       4.896   5.671  19.411  0.00  0.00    +0.000 OA
ATOM      3  N   UNL     1       3.229   6.488  18.034  0.00  0.00    +0.000 N 
ATOM      4  H   UNL     1       2.946   6.632  17.069  0.00  0.00    +0.000 HD
ENDROOT
BRANCH   1  10
ATOM      5  C   UNL     1       6.247   6.004  16.477  0.00  0.00    +0.000 A 
ATOM      6  C   UNL     1       6.935   5.374  15.424  0.00  0.00    +0.000 A 
ATOM      7  C   UNL     1       6.536   4.123  14.952  0.00  0.00    +0.000 A 
ATOM      8  C   UNL     1       5.467   3.468  15.543  0.00  0.00    +0.000 A 
ATOM      9  C   UNL     1       4.818   4.054  16.628  0.00  0.00    +0.000 A 
ATOM     10  C   UNL     1       5.202   5.319  17.119  0.00  0.00    +0.000 A 
BRANCH   5  11
ATOM     11  O   UNL     1       6.567   7.273  16.901  0.00  0.00    +0.000 OA
BRANCH  11  13
ATOM     12  C   UNL     1       8.112   8.809  17.902  0.00  0.00    +0.000 C 
ATOM     13  C   UNL     1       7.704   7.353  17.772  0.00  0.00    +0.000 C 
ENDBRANCH  11  13
ENDBRANCH   5  11
ENDBRANCH   1  10
BRANCH   3  14
ATOM     14  C   UNL     1       2.463   7.021  19.049  0.00  0.00    +0.000 A 
ATOM     15  C   UNL     1       1.920   8.273  19.212  0.00  0.00    +0.000 A 
ATOM     16  C   UNL     1       1.285   8.217  20.478  0.00  0.00    +0.000 A 
ATOM     17  N   UNL     1       1.382   6.999  21.019  0.00  0.00    +0.000 NA
ATOM     18  O   UNL     1       2.129   6.256  20.125  0.00  0.00    +0.000 OA
BRANCH  16  19
ATOM     19  C   UNL     1       0.619   9.335  21.160  0.00  0.00    +0.000 A 
ATOM     20  C   UNL     1       0.011   9.192  22.448  0.00  0.00    +0.000 A 
ATOM     21  C   UNL     1      -0.529  10.374  22.909  0.00  0.00    +0.000 A 
ATOM     22  S   UNL     1      -0.310  11.652  21.795  0.00  0.00    +0.000 S 
ATOM     23  C   UNL     1       0.512  10.629  20.692  0.00  0.00    +0.000 A 
ENDBRANCH  16  19
ENDBRANCH   3  14
TORSDOF 5
ENDMDL
MODEL 3
REMARK VINA RESULT:      -6.6      2.589      4.058
REMARK  Name = 
REMARK  6 active torsions:
REMARK  status: ('A' for Active; 'I' for Inactive)
REMARK    1  A    between atoms: C_1  and  C_2
REMARK    2  A    between atoms: C_2  and  O_3
REMARK    3  A    between atoms: O_3  and  C_4
REMARK    4  A    between atoms: C_9  and  C_10
REMARK    5  A    between atoms: N_12  and  C_13
REMARK    6  A    between atoms: C_15  and  C_16
REMARK                            x       y       z     vdW  Elec       q    Type
REMARK                         _______ _______ _______ _____ _____    ______ ____
ROOT
ATOM      1  C   UNL     1       3.747   5.922  17.477  0.00  0.00    +0.000 C 
ATOM      2  O   UNL     1       2.870   5.156  17.875  0.00  0.00    +0.000 OA
ATOM      3  N   UNL     1       3.736   7.288  17.663  0.00  0.00    +0.000 N 
ATOM      4  H   UNL     1       4.539   7.831  17.363  0.00  0.00    +0.000 HD
ENDROOT
BRANCH   1  10
ATOM      5  C   UNL     1       6.263   5.370  17.260  0.00  0.00    +0.000 A 
ATOM      6  C   UNL     1       7.270   4.704  16.539  0.00  0.00    +0.000 A 
ATOM      7  C   UNL     1       6.989   4.069  15.328  0.00  0.00    +0.000 A 
ATOM      8  C   UNL     1       5.693   4.062  14.835  0.00  0.00    +0.000 A 
ATOM      9  C   UNL     1       4.675   4.664  15.572  0.00  0.00    +0.000 A 
ATOM     10  C   UNL     1       4.938   5.315  16.794  0.00  0.00    +0.000 A 
BRANCH   5  11
ATOM     11  O   UNL     1       6.533   6.077  18.409  0.00  0.00    +0.000 OA
BRANCH  11  13
ATOM     12  C   UNL     1       7.722   8.016  17.652  0.00  0.00    +0.000 C 
ATOM     13  C   UNL     1       7.814   6.721  18.438  0.00  0.00    +0.000 C 
ENDBRANCH  11  13
ENDBRANCH   5  11
ENDBRANCH   1  10
BRANCH   3  14
ATOM     14  C   UNL     1       2.699   7.922  18.316  0.00  0.00    +0.000 A 
ATOM     15  C   UNL     1       1.772   8.834  17.871  0.00  0.00    +0.000 A 
ATOM     16  C   UNL     1       1.005   9.143  19.023  0.00  0.00    +0.000 A 
ATOM     17  N   UNL     1       1.398   8.424  20.079  0.00  0.00    +0.000 NA
ATOM     18  O   UNL     1       2.466   7.668  19.634  0.00  0.00    +0.000 OA
BRANCH  16  19
ATOM     19  C   UNL     1      -0.072  10.138  19.101  0.00  0.00    +0.000 A 
ATOM     20  C   UNL     1      -0.322  10.904  20.285  0.00  0.00    +0.000 A 
ATOM     21  C   UNL     1      -1.361  11.795  20.125  0.00  0.00    +0.000 A 
ATOM     22  S   UNL     1      -2.038  11.712  18.557  0.00  0.00    +0.000 S 
ATOM     23  C   UNL     1      -0.940  10.482  18.085  0.00  0.00    +0.000 A 
ENDBRANCH  16  19
ENDBRANCH   3  14
TORSDOF 5
ENDMDL
MODEL 4
REMARK VINA RESULT:      -6.5      1.366      2.613
REMARK  Name = 
REMARK  6 active torsions:
REMARK  status: ('A' for Active; 'I' for Inactive)
REMARK    1  A    between atoms: C_1  and  C_2
REMARK    2  A    between atoms: C_2  and  O_3
REMARK    3  A    between atoms: O_3  and  C_4
REMARK    4  A    between atoms: C_9  and  C_10
REMARK    5  A    between atoms: N_12  and  C_13
REMARK    6  A    between atoms: C_15  and  C_16
REMARK                            x       y       z     vdW  Elec       q    Type
REMARK                         _______ _______ _______ _____ _____    ______ ____
ROOT
ATOM      1  C   UNL     1       2.347   7.258  18.959  0.00  0.00    +0.000 C 
ATOM      2  O   UNL     1       2.267   8.291  18.296  0.00  0.00    +0.000 OA
ATOM      3  N   UNL     1       1.924   7.132  20.266  0.00  0.00    +0.000 N 
ATOM      4  H   UNL     1       1.963   6.220  20.709  0.00  0.00    +0.000 HD
ENDROOT
BRANCH   1  10
ATOM      5  C   UNL     1       4.178   5.911  17.729  0.00  0.00    +0.000 A 
ATOM      6  C   UNL     1       4.566   4.681  17.166  0.00  0.00    +0.000 A 
ATOM      7  C   UNL     1       3.665   3.621  17.062  0.00  0.00    +0.000 A 
ATOM      8  C   UNL     1       2.373   3.760  17.546  0.00  0.00    +0.000 A 
ATOM      9  C   UNL     1       1.996   4.952  18.163  0.00  0.00    +0.000 A 
ATOM     10  C   UNL     1       2.889   6.037  18.275  0.00  0.00    +0.000 A 
BRANCH   5  11
ATOM     11  O   UNL     1       5.022   6.997  17.762  0.00  0.00    +0.000 OA
BRANCH  11  13
ATOM     12  C   UNL     1       7.416   6.939  17.849  0.00  0.00    +0.000 C 
ATOM     13  C   UNL     1       6.197   6.878  16.948  0.00  0.00    +0.000 C 
ENDBRANCH  11  13
ENDBRANCH   5  11
ENDBRANCH   1  10
BRANCH   3  14
ATOM     14  C   UNL     1       1.377   8.195  20.955  0.00  0.00    +0.000 A 
ATOM     15  C   UNL     1       0.240   8.932  20.728  0.00  0.00    +0.000 A 
ATOM     16  C   UNL     1       0.248   9.911  21.752  0.00  0.00    +0.000 A 
ATOM     17  N   UNL     1       1.285   9.744  22.580  0.00  0.00    +0.000 NA
ATOM     18  O   UNL     1       1.995   8.674  22.070  0.00  0.00    +0.000 OA
BRANCH  16  19
ATOM     19  C   UNL     1      -0.718  11.006  21.908  0.00  0.00    +0.000 A 
ATOM     20  C   UNL     1      -1.427  11.234  23.132  0.00  0.00    +0.000 A 
ATOM     21  C   UNL     1      -2.259  12.329  23.061  0.00  0.00    +0.000 A 
ATOM     22  S   UNL     1      -2.196  13.083  21.528  0.00  0.00    +0.000 S 
ATOM     23  C   UNL     1      -1.049  11.945  20.953  0.00  0.00    +0.000 A 
ENDBRANCH  16  19
ENDBRANCH   3  14
TORSDOF 5
ENDMDL
MODEL 5
REMARK VINA RESULT:      -6.5      2.465      3.549
REMARK  Name = 
REMARK  6 active torsions:
REMARK  status: ('A' for Active; 'I' for Inactive)
REMARK    1  A    between atoms: C_1  and  C_2
REMARK    2  A    between atoms: C_2  and  O_3
REMARK    3  A    between atoms: O_3  and  C_4
REMARK    4  A    between atoms: C_9  and  C_10
REMARK    5  A    between atoms: N_12  and  C_13
REMARK    6  A    between atoms: C_15  and  C_16
REMARK                            x       y       z     vdW  Elec       q    Type
REMARK                         _______ _______ _______ _____ _____    ______ ____
ROOT
ATOM      1  C   UNL     1       2.380   7.368  18.627  0.00  0.00    +0.000 C 
ATOM      2  O   UNL     1       2.301   7.453  19.852  0.00  0.00    +0.000 OA
ATOM      3  N   UNL     1       2.075   8.387  17.749  0.00  0.00    +0.000 N 
ATOM      4  H   UNL     1       2.241   8.247  16.757  0.00  0.00    +0.000 HD
ENDROOT
BRANCH   1  10
ATOM      5  C   UNL     1       4.190   5.884  17.528  0.00  0.00    +0.000 A 
ATOM      6  C   UNL     1       4.557   4.603  17.078  0.00  0.00    +0.000 A 
ATOM      7  C   UNL     1       3.637   3.553  17.066  0.00  0.00    +0.000 A 
ATOM      8  C   UNL     1       2.348   3.758  17.531  0.00  0.00    +0.000 A 
ATOM      9  C   UNL     1       1.990   5.006  18.038  0.00  0.00    +0.000 A 
ATOM     10  C   UNL     1       2.902   6.081  18.056  0.00  0.00    +0.000 A 
BRANCH   5  11
ATOM     11  O   UNL     1       5.053   6.954  17.468  0.00  0.00    +0.000 OA
BRANCH  11  13
ATOM     12  C   UNL     1       7.418   7.323  17.591  0.00  0.00    +0.000 C 
ATOM     13  C   UNL     1       6.291   6.697  16.791  0.00  0.00    +0.000 C 
ENDBRANCH  11  13
ENDBRANCH   5  11
ENDBRANCH   1  10
BRANCH   3  14
ATOM     14  C   UNL     1       1.628   9.614  18.193  0.00  0.00    +0.000 A 
ATOM     15  C   UNL     1       0.468   9.976  18.835  0.00  0.00    +0.000 A 
ATOM     16  C   UNL     1       0.573  11.382  18.979  0.00  0.00    +0.000 A 
ATOM     17  N   UNL     1       1.741  11.835  18.513  0.00  0.00    +0.000 NA
ATOM     18  O   UNL     1       2.394  10.725  18.012  0.00  0.00    +0.000 OA
BRANCH  16  19
ATOM     19  C   UNL     1      -0.454  12.272  19.536  0.00  0.00    +0.000 A 
ATOM     20  C   UNL     1      -1.825  11.875  19.661  0.00  0.00    +0.000 A 
ATOM     21  C   UNL     1      -2.605  12.856  20.234  0.00  0.00    +0.000 A 
ATOM     22  S   UNL     1      -1.698  14.253  20.617  0.00  0.00    +0.000 S 
ATOM     23  C   UNL     1      -0.253  13.548  20.020  0.00  0.00    +0.000 A 
ENDBRANCH  16  19
ENDBRANCH   3  14
TORSDOF 5
ENDMDL
MODEL 6
REMARK VINA RESULT:      -6.4      1.334      1.440
REMARK  Name = 
REMARK  6 active torsions:
REMARK  status: ('A' for Active; 'I' for Inactive)
REMARK    1  A    between atoms: C_1  and  C_2
REMARK    2  A    between atoms: C_2  and  O_3
REMARK    3  A    between atoms: O_3  and  C_4
REMARK    4  A    between atoms: C_9  and  C_10
REMARK    5  A    between atoms: N_12  and  C_13
REMARK    6  A    between atoms: C_15  and  C_16
REMARK                            x       y       z     vdW  Elec       q    Type
REMARK                         _______ _______ _______ _____ _____    ______ ____
ROOT
ATOM      1  C   UNL     1       2.425   7.403  18.564  0.00  0.00    +0.000 C 
ATOM      2  O   UNL     1       1.874   8.202  17.808  0.00  0.00    +0.000 OA
ATOM      3  N   UNL     1       2.213   7.340  19.926  0.00  0.00    +0.000 N 
ATOM      4  H   UNL     1       2.659   6.599  20.458  0.00  0.00    +0.000 HD
ENDROOT
BRANCH   1  10
ATOM      5  C   UNL     1       3.251   4.998  18.099  0.00  0.00    +0.000 A 
ATOM      6  C   UNL     1       4.158   4.170  17.414  0.00  0.00    +0.000 A 
ATOM      7  C   UNL     1       5.202   4.713  16.663  0.00  0.00    +0.000 A 
ATOM      8  C   UNL     1       5.338   6.089  16.560  0.00  0.00    +0.000 A 
ATOM      9  C   UNL     1       4.408   6.919  17.183  0.00  0.00    +0.000 A 
ATOM     10  C   UNL     1       3.348   6.392  17.948  0.00  0.00    +0.000 A 
BRANCH   5  11
ATOM     11  O   UNL     1       2.268   4.487  18.914  0.00  0.00    +0.000 OA
BRANCH  11  13
ATOM     12  C   UNL     1       1.252   2.316  18.949  0.00  0.00    +0.000 C 
ATOM     13  C   UNL     1       1.298   3.663  18.252  0.00  0.00    +0.000 C 
ENDBRANCH  11  13
ENDBRANCH   5  11
ENDBRANCH   1  10
BRANCH   3  14
ATOM     14  C   UNL     1       1.350   8.205  20.565  0.00  0.00    +0.000 A 
ATOM     15  C   UNL     1       1.268   9.577  20.548  0.00  0.00    +0.000 A 
ATOM     16  C   UNL     1       0.209   9.874  21.443  0.00  0.00    +0.000 A 
ATOM     17  N   UNL     1      -0.352   8.760  21.922  0.00  0.00    +0.000 NA
ATOM     18  O   UNL     1       0.373   7.717  21.378  0.00  0.00    +0.000 OA
BRANCH  16  19
ATOM     19  C   UNL     1      -0.231  11.217  21.844  0.00  0.00    +0.000 A 
ATOM     20  C   UNL     1      -1.145  11.431  22.925  0.00  0.00    +0.000 A 
ATOM     21  C   UNL     1      -1.396  12.769  23.143  0.00  0.00    +0.000 A 
ATOM     22  S   UNL     1      -0.539  13.766  22.051  0.00  0.00    +0.000 S 
ATOM     23  C   UNL     1       0.174  12.410  21.282  0.00  0.00    +0.000 A 
ENDBRANCH  16  19
ENDBRANCH   3  14
TORSDOF 5
ENDMDL
MODEL 7
REMARK VINA RESULT:      -6.4      3.242      4.203
REMARK  Name = 
REMARK  6 active torsions:
REMARK  status: ('A' for Active; 'I' for Inactive)
REMARK    1  A    between atoms: C_1  and  C_2
REMARK    2  A    between atoms: C_2  and  O_3
REMARK    3  A    between atoms: O_3  and  C_4
REMARK    4  A    between atoms: C_9  and  C_10
REMARK    5  A    between atoms: N_12  and  C_13
REMARK    6  A    between atoms: C_15  and  C_16
REMARK                            x       y       z     vdW  Elec       q    Type
REMARK                         _______ _______ _______ _____ _____    ______ ____
ROOT
ATOM      1  C   UNL     1       2.364   7.418  18.562  0.00  0.00    +0.000 C 
ATOM      2  O   UNL     1       2.256   7.540  19.782  0.00  0.00    +0.000 OA
ATOM      3  N   UNL     1       2.088   8.413  17.648  0.00  0.00    +0.000 N 
ATOM      4  H   UNL     1       2.277   8.242  16.665  0.00  0.00    +0.000 HD
ENDROOT
BRANCH   1  10
ATOM      5  C   UNL     1       4.180   5.894  17.533  0.00  0.00    +0.000 A 
ATOM      6  C   UNL     1       4.550   4.597  17.133  0.00  0.00    +0.000 A 
ATOM      7  C   UNL     1       3.629   3.548  17.151  0.00  0.00    +0.000 A 
ATOM      8  C   UNL     1       2.336   3.771  17.598  0.00  0.00    +0.000 A 
ATOM      9  C   UNL     1       1.976   5.037  18.056  0.00  0.00    +0.000 A 
ATOM     10  C   UNL     1       2.889   6.111  18.043  0.00  0.00    +0.000 A 
BRANCH   5  11
ATOM     11  O   UNL     1       5.045   6.960  17.441  0.00  0.00    +0.000 OA
BRANCH  11  13
ATOM     12  C   UNL     1       7.423   7.200  17.623  0.00  0.00    +0.000 C 
ATOM     13  C   UNL     1       6.281   6.683  16.768  0.00  0.00    +0.000 C 
ENDBRANCH  11  13
ENDBRANCH   5  11
ENDBRANCH   1  10
BRANCH   3  14
ATOM     14  C   UNL     1       1.640   9.655  18.044  0.00  0.00    +0.000 A 
ATOM     15  C   UNL     1       2.285  10.866  18.130  0.00  0.00    +0.000 A 
ATOM     16  C   UNL     1       1.304  11.749  18.647  0.00  0.00    +0.000 A 
ATOM     17  N   UNL     1       0.129  11.133  18.807  0.00  0.00    +0.000 NA
ATOM     18  O   UNL     1       0.346   9.819  18.437  0.00  0.00    +0.000 OA
BRANCH  16  19
ATOM     19  C   UNL     1       1.514  13.157  19.004  0.00  0.00    +0.000 A 
ATOM     20  C   UNL     1       0.490  14.147  18.850  0.00  0.00    +0.000 A 
ATOM     21  C   UNL     1       0.896  15.394  19.273  0.00  0.00    +0.000 A 
ATOM     22  S   UNL     1       2.505  15.380  19.851  0.00  0.00    +0.000 S 
ATOM     23  C   UNL     1       2.663  13.701  19.540  0.00  0.00    +0.000 A 
ENDBRANCH  16  19
ENDBRANCH   3  14
TORSDOF 5
ENDMDL
MODEL 8
REMARK VINA RESULT:      -6.4      1.809      2.116
REMARK  Name = 
REMARK  6 active torsions:
REMARK  status: ('A' for Active; 'I' for Inactive)
REMARK    1  A    between atoms: C_1  and  C_2
REMARK    2  A    between atoms: C_2  and  O_3
REMARK    3  A    between atoms: O_3  and  C_4
REMARK    4  A    between atoms: C_9  and  C_10
REMARK    5  A    between atoms: N_12  and  C_13
REMARK    6  A    between atoms: C_15  and  C_16
REMARK                            x       y       z     vdW  Elec       q    Type
REMARK                         _______ _______ _______ _____ _____    ______ ____
ROOT
ATOM      1  C   UNL     1       2.557   7.184  18.585  0.00  0.00    +0.000 C 
ATOM      2  O   UNL     1       2.412   7.152  19.806  0.00  0.00    +0.000 OA
ATOM      3  N   UNL     1       2.196   8.245  17.781  0.00  0.00    +0.000 N 
ATOM      4  H   UNL     1       2.421   8.211  16.792  0.00  0.00    +0.000 HD
ENDROOT
BRANCH   1  10
ATOM      5  C   UNL     1       2.662   4.733  17.771  0.00  0.00    +0.000 A 
ATOM      6  C   UNL     1       3.394   3.741  17.092  0.00  0.00    +0.000 A 
ATOM      7  C   UNL     1       4.701   3.978  16.663  0.00  0.00    +0.000 A 
ATOM      8  C   UNL     1       5.286   5.217  16.877  0.00  0.00    +0.000 A 
ATOM      9  C   UNL     1       4.549   6.227  17.492  0.00  0.00    +0.000 A 
ATOM     10  C   UNL     1       3.229   6.008  17.937  0.00  0.00    +0.000 A 
BRANCH   5  11
ATOM     11  O   UNL     1       1.407   4.494  18.280  0.00  0.00    +0.000 OA
BRANCH  11  13
ATOM     12  C   UNL     1       1.189   3.849  20.578  0.00  0.00    +0.000 C 
ATOM     13  C   UNL     1       1.311   3.356  19.148  0.00  0.00    +0.000 C 
ENDBRANCH  11  13
ENDBRANCH   5  11
ENDBRANCH   1  10
BRANCH   3  14
ATOM     14  C   UNL     1       1.609   9.380  18.302  0.00  0.00    +0.000 A 
ATOM     15  C   UNL     1       0.488   9.545  19.079  0.00  0.00    +0.000 A 
ATOM     16  C   UNL     1       0.380  10.948  19.244  0.00  0.00    +0.000 A 
ATOM     17  N   UNL     1       1.398  11.588  18.660  0.00  0.00    +0.000 NA
ATOM     18  O   UNL     1       2.160  10.603  18.062  0.00  0.00    +0.000 OA
BRANCH  16  19
ATOM     19  C   UNL     1      -0.706  11.655  19.934  0.00  0.00    +0.000 A 
ATOM     20  C   UNL     1      -0.728  11.823  21.357  0.00  0.00    +0.000 A 
ATOM     21  C   UNL     1      -1.825  12.540  21.784  0.00  0.00    +0.000 A 
ATOM     22  S   UNL     1      -2.829  13.009  20.483  0.00  0.00    +0.000 S 
ATOM     23  C   UNL     1      -1.797  12.256  19.339  0.00  0.00    +0.000 A 
ENDBRANCH  16  19
ENDBRANCH   3  14
TORSDOF 5
ENDMDL
MODEL 9
REMARK VINA RESULT:      -6.4      6.402      7.991
REMARK  Name = 
REMARK  6 active torsions:
REMARK  status: ('A' for Active; 'I' for Inactive)
REMARK    1  A    between atoms: C_1  and  C_2
REMARK    2  A    between atoms: C_2  and  O_3
REMARK    3  A    between atoms: O_3  and  C_4
REMARK    4  A    between atoms: C_9  and  C_10
REMARK    5  A    between atoms: N_12  and  C_13
REMARK    6  A    between atoms: C_15  and  C_16
REMARK                            x       y       z     vdW  Elec       q    Type
REMARK                         _______ _______ _______ _____ _____    ______ ____
ROOT
ATOM      1  C   UNL     1       7.465   6.870  17.924  0.00  0.00    +0.000 C 
ATOM      2  O   UNL     1       8.126   6.542  18.909  0.00  0.00    +0.000 OA
ATOM      3  N   UNL     1       7.439   8.139  17.385  0.00  0.00    +0.000 N 
ATOM      4  H   UNL     1       6.921   8.298  16.527  0.00  0.00    +0.000 HD
ENDROOT
BRANCH   1  10
ATOM      5  C   UNL     1       5.507   5.194  17.720  0.00  0.00    +0.000 A 
ATOM      6  C   UNL     1       4.847   4.236  16.929  0.00  0.00    +0.000 A 
ATOM      7  C   UNL     1       5.384   3.812  15.713  0.00  0.00    +0.000 A 
ATOM      8  C   UNL     1       6.572   4.360  15.253  0.00  0.00    +0.000 A 
ATOM      9  C   UNL     1       7.203   5.355  15.997  0.00  0.00    +0.000 A 
ATOM     10  C   UNL     1       6.679   5.795  17.230  0.00  0.00    +0.000 A 
BRANCH   5  11
ATOM     11  O   UNL     1       5.042   5.563  18.961  0.00  0.00    +0.000 OA
BRANCH  11  13
ATOM     12  C   UNL     1       2.791   6.091  19.594  0.00  0.00    +0.000 C 
ATOM     13  C   UNL     1       3.788   4.976  19.337  0.00  0.00    +0.000 C 
ENDBRANCH  11  13
ENDBRANCH   5  11
ENDBRANCH   1  10
BRANCH   3  14
ATOM     14  C   UNL     1       8.164   9.175  17.938  0.00  0.00    +0.000 A 
ATOM     15  C   UNL     1       8.301  10.488  17.556  0.00  0.00    +0.000 A 
ATOM     16  C   UNL     1       9.213  11.031  18.496  0.00  0.00    +0.000 A 
ATOM     17  N   UNL     1       9.558  10.129  19.420  0.00  0.00    +0.000 NA
ATOM     18  O   UNL     1       8.906   8.964  19.060  0.00  0.00    +0.000 OA
BRANCH  16  19
ATOM     19  C   UNL     1       9.759  12.394  18.481  0.00  0.00    +0.000 A 
ATOM     20  C   UNL     1      10.582  12.877  17.413  0.00  0.00    +0.000 A 
ATOM     21  C   UNL     1      10.959  14.191  17.592  0.00  0.00    +0.000 A 
ATOM     22  S   UNL     1      10.328  14.844  19.041  0.00  0.00    +0.000 S 
ATOM     23  C   UNL     1       9.546  13.369  19.433  0.00  0.00    +0.000 A 
ENDBRANCH  16  19
ENDBRANCH   3  14
TORSDOF 5
ENDMDL
