MODEL 1
REMARK VINA RESULT:      -9.1      0.000      0.000
REMARK  Name = 
REMARK  4 active torsions:
REMARK  status: ('A' for Active; 'I' for Inactive)
REMARK    1  A    between atoms: C_2  and  C_10
REMARK    2  A    between atoms: N_3  and  C_4
REMARK    3  A    between atoms: C_12  and  C_13
REMARK    4  A    between atoms: C_22  and  C_23
REMARK                            x       y       z     vdW  Elec       q    Type
REMARK                         _______ _______ _______ _____ _____    ______ ____
ROOT
ATOM      1  C   UNL     1      -0.115  12.332  20.618  0.00  0.00    +0.000 A 
ATOM      2  C   UNL     1      -1.069  12.988  21.457  0.00  0.00    +0.000 A 
ATOM      3  C   UNL     1      -1.657  12.239  22.451  0.00  0.00    +0.000 A 
ATOM      4  N   UNL     1      -1.302  10.962  22.643  0.00  0.00    +0.000 NA
ATOM      5  C   UNL     1      -0.393  10.357  21.862  0.00  0.00    +0.000 A 
ATOM      6  C   UNL     1      -0.029   9.126  22.337  0.00  0.00    +0.000 A 
ATOM      7  C   UNL     1       1.060   8.407  21.829  0.00  0.00    +0.000 A 
ATOM      8  C   UNL     1       1.455   8.506  20.516  0.00  0.00    +0.000 A 
ATOM      9  C   UNL     1       1.125   9.817  20.002  0.00  0.00    +0.000 A 
ATOM     10  C   UNL     1       0.251  10.877  20.743  0.00  0.00    +0.000 A 
ENDROOT
BRANCH   8  11
ATOM     11  C   UNL     1       2.034   7.200  19.865  0.00  0.00    +0.000 A 
ATOM     12  C   UNL     1       2.647   7.236  18.609  0.00  0.00    +0.000 A 
ATOM     13  C   UNL     1       2.847   6.081  17.824  0.00  0.00    +0.000 A 
ATOM     14  C   UNL     1       2.443   4.799  18.263  0.00  0.00    +0.000 A 
ATOM     15  C   UNL     1       2.379   3.521  17.642  0.00  0.00    +0.000 A 
ATOM     16  C   UNL     1       1.955   2.620  18.588  0.00  0.00    +0.000 A 
ATOM     17  N   UNL     1       1.802   3.298  19.784  0.00  0.00    +0.000 N 
ATOM     18  C   UNL     1       1.987   4.692  19.582  0.00  0.00    +0.000 A 
ATOM     19  C   UNL     1       1.807   5.858  20.396  0.00  0.00    +0.000 A 
ATOM     20  H   UNL     1       1.544   2.856  20.640  0.00  0.00    +0.000 HD
ENDBRANCH   8  11
BRANCH   3  21
ATOM     21  C   UNL     1      -2.652  12.708  23.431  0.00  0.00    +0.000 A 
ATOM     22  C   UNL     1      -2.854  13.941  24.039  0.00  0.00    +0.000 A 
ATOM     23  C   UNL     1      -3.962  13.842  24.913  0.00  0.00    +0.000 A 
ATOM     24  C   UNL     1      -4.375  12.542  24.791  0.00  0.00    +0.000 A 
ATOM     25  O   UNL     1      -3.601  11.838  23.896  0.00  0.00    +0.000 OA
ENDBRANCH   3  21
BRANCH   1  27
ATOM     26  O   UNL     1       0.218  12.844  18.401  0.00  0.00    +0.000 OA
ATOM     27  C   UNL     1       0.507  13.168  19.555  0.00  0.00    +0.000 C 
ATOM     28  N   UNL     1       1.385  14.228  19.880  0.00  0.00    +0.000 N 
ATOM     29  H   UNL     1       1.742  14.305  20.827  0.00  0.00    +0.000 HD
BRANCH  28  30
ATOM     30  C   UNL     1       2.003  15.069  18.890  0.00  0.00    +0.000 A 
ATOM     31  C   UNL     1       3.078  14.644  18.106  0.00  0.00    +0.000 A 
ATOM     32  C   UNL     1       3.715  15.520  17.242  0.00  0.00    +0.000 A 
ATOM     33  C   UNL     1       3.257  16.822  17.151  0.00  0.00    +0.000 A 
ATOM     34  N   UNL     1       2.186  17.271  17.839  0.00  0.00    +0.000 NA
ATOM     35  C   UNL     1       1.575  16.381  18.673  0.00  0.00    +0.000 A 
ENDBRANCH  28  30
ENDBRANCH   1  27
TORSDOF 4
ENDMDL
MODEL 2
REMARK VINA RESULT:      -8.8      1.095      1.477
REMARK  Name = 
REMARK  4 active torsions:
REMARK  status: ('A' for Active; 'I' for Inactive)
REMARK    1  A    between atoms: C_2  and  C_10
REMARK    2  A    between atoms: N_3  and  C_4
REMARK    3  A    between atoms: C_12  and  C_13
REMARK    4  A    between atoms: C_22  and  C_23
REMARK                            x       y       z     vdW  Elec       q    Type
REMARK                         _______ _______ _______ _____ _____    ______ ____
ROOT
ATOM      1  C   UNL     1      -0.149  12.366  20.557  0.00  0.00    +0.000 A 
ATOM      2  C   UNL     1      -1.097  13.003  21.416  0.00  0.00    +0.000 A 
ATOM      3  C   UNL     1      -1.671  12.237  22.404  0.00  0.00    +0.000 A 
ATOM      4  N   UNL     1      -1.308  10.958  22.573  0.00  0.00    +0.000 NA
ATOM      5  C   UNL     1      -0.405  10.370  21.772  0.00  0.00    +0.000 A 
ATOM      6  C   UNL     1      -0.031   9.134  22.224  0.00  0.00    +0.000 A 
ATOM      7  C   UNL     1       1.057   8.428  21.693  0.00  0.00    +0.000 A 
ATOM      8  C   UNL     1       1.437   8.549  20.377  0.00  0.00    +0.000 A 
ATOM      9  C   UNL     1       1.096   9.866  19.888  0.00  0.00    +0.000 A 
ATOM     10  C   UNL     1       0.225  10.910  20.655  0.00  0.00    +0.000 A 
ENDROOT
BRANCH   8  11
ATOM     11  C   UNL     1       2.014   7.255  19.701  0.00  0.00    +0.000 A 
ATOM     12  C   UNL     1       2.043   6.038  20.389  0.00  0.00    +0.000 A 
ATOM     13  C   UNL     1       2.861   4.959  19.997  0.00  0.00    +0.000 A 
ATOM     14  C   UNL     1       3.709   5.035  18.867  0.00  0.00    +0.000 A 
ATOM     15  C   UNL     1       4.724   4.189  18.340  0.00  0.00    +0.000 A 
ATOM     16  C   UNL     1       5.170   4.755  17.171  0.00  0.00    +0.000 A 
ATOM     17  N   UNL     1       4.426   5.899  16.940  0.00  0.00    +0.000 N 
ATOM     18  C   UNL     1       3.582   6.164  18.050  0.00  0.00    +0.000 A 
ATOM     19  C   UNL     1       2.731   7.254  18.428  0.00  0.00    +0.000 A 
ATOM     20  H   UNL     1       4.527   6.468  16.127  0.00  0.00    +0.000 HD
ENDBRANCH   8  11
BRANCH   3  21
ATOM     21  C   UNL     1      -2.657  12.686  23.402  0.00  0.00    +0.000 A 
ATOM     22  C   UNL     1      -2.869  13.912  24.019  0.00  0.00    +0.000 A 
ATOM     23  C   UNL     1      -3.961  13.793  24.910  0.00  0.00    +0.000 A 
ATOM     24  C   UNL     1      -4.356  12.487  24.788  0.00  0.00    +0.000 A 
ATOM     25  O   UNL     1      -3.585  11.799  23.878  0.00  0.00    +0.000 OA
ENDBRANCH   3  21
BRANCH   1  27
ATOM     26  O   UNL     1       0.125  12.940  18.346  0.00  0.00    +0.000 OA
ATOM     27  C   UNL     1       0.458  13.221  19.500  0.00  0.00    +0.000 C 
ATOM     28  N   UNL     1       1.370  14.250  19.828  0.00  0.00    +0.000 N 
ATOM     29  H   UNL     1       1.759  14.290  20.766  0.00  0.00    +0.000 HD
BRANCH  28  30
ATOM     30  C   UNL     1       1.975  15.108  18.846  0.00  0.00    +0.000 A 
ATOM     31  C   UNL     1       3.067  14.712  18.070  0.00  0.00    +0.000 A 
ATOM     32  C   UNL     1       3.690  15.605  17.213  0.00  0.00    +0.000 A 
ATOM     33  C   UNL     1       3.200  16.896  17.121  0.00  0.00    +0.000 A 
ATOM     34  N   UNL     1       2.112  17.316  17.800  0.00  0.00    +0.000 NA
ATOM     35  C   UNL     1       1.517  16.410  18.627  0.00  0.00    +0.000 A 
ENDBRANCH  28  30
ENDBRANCH   1  27
TORSDOF 4
ENDMDL
MODEL 3
REMARK VINA RESULT:      -8.5      1.754      5.865
REMARK  Name = 
REMARK  4 active torsions:
REMARK  status: ('A' for Active; 'I' for Inactive)
REMARK    1  A    between atoms: C_2  and  C_10
REMARK    2  A    between atoms: N_3  and  C_4
REMARK    3  A    between atoms: C_12  and  C_13
REMARK    4  A    between atoms: C_22  and  C_23
REMARK                            x       y       z     vdW  Elec       q    Type
REMARK                         _______ _______ _______ _____ _____    ______ ____
ROOT
ATOM      1  C   UNL     1       0.153  12.218  20.214  0.00  0.00    +0.000 A 
ATOM      2  C   UNL     1       0.467  13.564  19.850  0.00  0.00    +0.000 A 
ATOM      3  C   UNL     1       1.485  13.753  18.943  0.00  0.00    +0.000 A 
ATOM      4  N   UNL     1       2.114  12.704  18.396  0.00  0.00    +0.000 NA
ATOM      5  C   UNL     1       1.803  11.442  18.730  0.00  0.00    +0.000 A 
ATOM      6  C   UNL     1       2.416  10.520  17.926  0.00  0.00    +0.000 A 
ATOM      7  C   UNL     1       2.073   9.162  17.929  0.00  0.00    +0.000 A 
ATOM      8  C   UNL     1       1.612   8.525  19.057  0.00  0.00    +0.000 A 
ATOM      9  C   UNL     1       0.916   9.468  19.903  0.00  0.00    +0.000 A 
ATOM     10  C   UNL     1       0.889  11.014  19.689  0.00  0.00    +0.000 A 
ENDROOT
BRANCH   8  11
ATOM     11  C   UNL     1       2.030   7.020  19.223  0.00  0.00    +0.000 A 
ATOM     12  C   UNL     1       2.279   6.218  18.104  0.00  0.00    +0.000 A 
ATOM     13  C   UNL     1       2.291   4.809  18.163  0.00  0.00    +0.000 A 
ATOM     14  C   UNL     1       2.057   4.109  19.370  0.00  0.00    +0.000 A 
ATOM     15  C   UNL     1       1.864   2.736  19.689  0.00  0.00    +0.000 A 
ATOM     16  C   UNL     1       1.738   2.642  21.054  0.00  0.00    +0.000 A 
ATOM     17  N   UNL     1       1.896   3.909  21.586  0.00  0.00    +0.000 N 
ATOM     18  C   UNL     1       1.979   4.869  20.542  0.00  0.00    +0.000 A 
ATOM     19  C   UNL     1       1.994   6.301  20.494  0.00  0.00    +0.000 A 
ATOM     20  H   UNL     1       1.893   4.101  22.564  0.00  0.00    +0.000 HD
ENDBRANCH   8  11
BRANCH   3  21
ATOM     21  C   UNL     1       1.968  15.043  18.420  0.00  0.00    +0.000 A 
ATOM     22  C   UNL     1       3.129  15.403  17.750  0.00  0.00    +0.000 A 
ATOM     23  C   UNL     1       3.088  16.791  17.478  0.00  0.00    +0.000 A 
ATOM     24  C   UNL     1       1.894  17.204  18.005  0.00  0.00    +0.000 A 
ATOM     25  O   UNL     1       1.196  16.163  18.576  0.00  0.00    +0.000 OA
ENDBRANCH   3  21
BRANCH   1  27
ATOM     26  O   UNL     1      -0.942  10.981  21.815  0.00  0.00    +0.000 OA
ATOM     27  C   UNL     1      -0.956  12.046  21.193  0.00  0.00    +0.000 C 
ATOM     28  N   UNL     1      -1.952  13.036  21.348  0.00  0.00    +0.000 N 
ATOM     29  H   UNL     1      -2.023  13.783  20.664  0.00  0.00    +0.000 HD
BRANCH  28  30
ATOM     30  C   UNL     1      -3.037  12.921  22.286  0.00  0.00    +0.000 A 
ATOM     31  C   UNL     1      -2.851  13.015  23.668  0.00  0.00    +0.000 A 
ATOM     32  C   UNL     1      -3.901  12.790  24.542  0.00  0.00    +0.000 A 
ATOM     33  C   UNL     1      -5.150  12.491  24.025  0.00  0.00    +0.000 A 
ATOM     34  N   UNL     1      -5.402  12.447  22.699  0.00  0.00    +0.000 NA
ATOM     35  C   UNL     1      -4.348  12.683  21.866  0.00  0.00    +0.000 A 
ENDBRANCH  28  30
ENDBRANCH   1  27
TORSDOF 4
ENDMDL
MODEL 4
REMARK VINA RESULT:      -8.4      1.085      1.204
REMARK  Name = 
REMARK  4 active torsions:
REMARK  status: ('A' for Active; 'I' for Inactive)
REMARK    1  A    between atoms: C_2  and  C_10
REMARK    2  A    between atoms: N_3  and  C_4
REMARK    3  A    between atoms: C_12  and  C_13
REMARK    4  A    between atoms: C_22  and  C_23
REMARK                            x       y       z     vdW  Elec       q    Type
REMARK                         _______ _______ _______ _____ _____    ______ ____
ROOT
ATOM      1  C   UNL     1       0.294  12.385  21.051  0.00  0.00    +0.000 A 
ATOM      2  C   UNL     1      -0.721  13.059  21.798  0.00  0.00    +0.000 A 
ATOM      3  C   UNL     1      -1.556  12.285  22.571  0.00  0.00    +0.000 A 
ATOM      4  N   UNL     1      -1.382  10.959  22.647  0.00  0.00    +0.000 NA
ATOM      5  C   UNL     1      -0.417  10.334  21.954  0.00  0.00    +0.000 A 
ATOM      6  C   UNL     1      -0.280   9.021  22.314  0.00  0.00    +0.000 A 
ATOM      7  C   UNL     1       0.801   8.229  21.903  0.00  0.00    +0.000 A 
ATOM      8  C   UNL     1       1.436   8.424  20.699  0.00  0.00    +0.000 A 
ATOM      9  C   UNL     1       1.348   9.816  20.318  0.00  0.00    +0.000 A 
ATOM     10  C   UNL     1       0.473  10.889  21.039  0.00  0.00    +0.000 A 
ENDROOT
BRANCH   8  11
ATOM     11  C   UNL     1       1.979   7.136  19.985  0.00  0.00    +0.000 A 
ATOM     12  C   UNL     1       2.574   7.213  18.722  0.00  0.00    +0.000 A 
ATOM     13  C   UNL     1       2.740   6.090  17.886  0.00  0.00    +0.000 A 
ATOM     14  C   UNL     1       2.317   4.797  18.278  0.00  0.00    +0.000 A 
ATOM     15  C   UNL     1       2.220   3.548  17.604  0.00  0.00    +0.000 A 
ATOM     16  C   UNL     1       1.793   2.617  18.519  0.00  0.00    +0.000 A 
ATOM     17  N   UNL     1       1.672   3.246  19.745  0.00  0.00    +0.000 N 
ATOM     18  C   UNL     1       1.880   4.643  19.598  0.00  0.00    +0.000 A 
ATOM     19  C   UNL     1       1.735   5.777  20.463  0.00  0.00    +0.000 A 
ATOM     20  H   UNL     1       1.419   2.773  20.585  0.00  0.00    +0.000 HD
ENDBRANCH   8  11
BRANCH   3  21
ATOM     21  C   UNL     1      -2.657  12.765  23.425  0.00  0.00    +0.000 A 
ATOM     22  C   UNL     1      -3.011  14.033  23.867  0.00  0.00    +0.000 A 
ATOM     23  C   UNL     1      -4.165  13.929  24.678  0.00  0.00    +0.000 A 
ATOM     24  C   UNL     1      -4.452  12.589  24.687  0.00  0.00    +0.000 A 
ATOM     25  O   UNL     1      -3.557  11.866  23.933  0.00  0.00    +0.000 OA
ENDBRANCH   3  21
BRANCH   1  27
ATOM     26  O   UNL     1       0.658  13.737  19.226  0.00  0.00    +0.000 OA
ATOM     27  C   UNL     1       1.185  13.248  20.228  0.00  0.00    +0.000 C 
ATOM     28  N   UNL     1       2.539  13.445  20.581  0.00  0.00    +0.000 N 
ATOM     29  H   UNL     1       2.960  12.852  21.290  0.00  0.00    +0.000 HD
BRANCH  28  30
ATOM     30  C   UNL     1       3.437  14.276  19.826  0.00  0.00    +0.000 A 
ATOM     31  C   UNL     1       3.391  14.362  18.432  0.00  0.00    +0.000 A 
ATOM     32  C   UNL     1       4.342  15.088  17.734  0.00  0.00    +0.000 A 
ATOM     33  C   UNL     1       5.332  15.748  18.441  0.00  0.00    +0.000 A 
ATOM     34  N   UNL     1       5.389  15.751  19.790  0.00  0.00    +0.000 NA
ATOM     35  C   UNL     1       4.433  15.035  20.447  0.00  0.00    +0.000 A 
ENDBRANCH  28  30
ENDBRANCH   1  27
TORSDOF 4
ENDMDL
MODEL 5
REMARK VINA RESULT:      -8.2      1.414      1.723
REMARK  Name = 
REMARK  4 active torsions:
REMARK  status: ('A' for Active; 'I' for Inactive)
REMARK    1  A    between atoms: C_2  and  C_10
REMARK    2  A    between atoms: N_3  and  C_4
REMARK    3  A    between atoms: C_12  and  C_13
REMARK    4  A    between atoms: C_22  and  C_23
REMARK                            x       y       z     vdW  Elec       q    Type
REMARK                         _______ _______ _______ _____ _____    ______ ____
ROOT
ATOM      1  C   UNL     1       0.450  12.281  20.839  0.00  0.00    +0.000 A 
ATOM      2  C   UNL     1      -0.521  12.980  21.622  0.00  0.00    +0.000 A 
ATOM      3  C   UNL     1      -1.342  12.227  22.430  0.00  0.00    +0.000 A 
ATOM      4  N   UNL     1      -1.193  10.898  22.506  0.00  0.00    +0.000 NA
ATOM      5  C   UNL     1      -0.268  10.250  21.780  0.00  0.00    +0.000 A 
ATOM      6  C   UNL     1      -0.145   8.936  22.142  0.00  0.00    +0.000 A 
ATOM      7  C   UNL     1       0.902   8.119  21.694  0.00  0.00    +0.000 A 
ATOM      8  C   UNL     1       1.495   8.295  20.466  0.00  0.00    +0.000 A 
ATOM      9  C   UNL     1       1.421   9.687  20.081  0.00  0.00    +0.000 A 
ATOM     10  C   UNL     1       0.597  10.782  20.829  0.00  0.00    +0.000 A 
ENDROOT
BRANCH   8  11
ATOM     11  C   UNL     1       1.983   6.993  19.739  0.00  0.00    +0.000 A 
ATOM     12  C   UNL     1       1.840   5.739  20.342  0.00  0.00    +0.000 A 
ATOM     13  C   UNL     1       2.570   4.605  19.928  0.00  0.00    +0.000 A 
ATOM     14  C   UNL     1       3.497   4.661  18.861  0.00  0.00    +0.000 A 
ATOM     15  C   UNL     1       4.455   3.747  18.341  0.00  0.00    +0.000 A 
ATOM     16  C   UNL     1       5.036   4.335  17.245  0.00  0.00    +0.000 A 
ATOM     17  N   UNL     1       4.431   5.563  17.047  0.00  0.00    +0.000 N 
ATOM     18  C   UNL     1       3.543   5.846  18.119  0.00  0.00    +0.000 A 
ATOM     19  C   UNL     1       2.783   6.994  18.516  0.00  0.00    +0.000 A 
ATOM     20  H   UNL     1       4.646   6.167  16.284  0.00  0.00    +0.000 HD
ENDBRANCH   8  11
BRANCH   3  21
ATOM     21  C   UNL     1      -2.399  12.734  23.323  0.00  0.00    +0.000 A 
ATOM     22  C   UNL     1      -2.641  13.990  23.863  0.00  0.00    +0.000 A 
ATOM     23  C   UNL     1      -3.803  13.925  24.668  0.00  0.00    +0.000 A 
ATOM     24  C   UNL     1      -4.206  12.620  24.575  0.00  0.00    +0.000 A 
ATOM     25  O   UNL     1      -3.375  11.881  23.763  0.00  0.00    +0.000 OA
ENDBRANCH   3  21
BRANCH   1  27
ATOM     26  O   UNL     1       0.958  13.231  18.807  0.00  0.00    +0.000 OA
ATOM     27  C   UNL     1       1.327  13.122  19.978  0.00  0.00    +0.000 C 
ATOM     28  N   UNL     1       2.506  13.708  20.491  0.00  0.00    +0.000 N 
ATOM     29  H   UNL     1       2.859  13.408  21.395  0.00  0.00    +0.000 HD
BRANCH  28  30
ATOM     30  C   UNL     1       3.381  14.535  19.704  0.00  0.00    +0.000 A 
ATOM     31  C   UNL     1       3.941  14.105  18.498  0.00  0.00    +0.000 A 
ATOM     32  C   UNL     1       4.863  14.889  17.825  0.00  0.00    +0.000 A 
ATOM     33  C   UNL     1       5.209  16.120  18.355  0.00  0.00    +0.000 A 
ATOM     34  N   UNL     1       4.655  16.613  19.483  0.00  0.00    +0.000 NA
ATOM     35  C   UNL     1       3.743  15.821  20.116  0.00  0.00    +0.000 A 
ENDBRANCH  28  30
ENDBRANCH   1  27
TORSDOF 4
ENDMDL
MODEL 6
REMARK VINA RESULT:      -8.2      1.734      5.844
REMARK  Name = 
REMARK  4 active torsions:
REMARK  status: ('A' for Active; 'I' for Inactive)
REMARK    1  A    between atoms: C_2  and  C_10
REMARK    2  A    between atoms: N_3  and  C_4
REMARK    3  A    between atoms: C_12  and  C_13
REMARK    4  A    between atoms: C_22  and  C_23
REMARK                            x       y       z     vdW  Elec       q    Type
REMARK                         _______ _______ _______ _____ _____    ______ ____
ROOT
ATOM      1  C   UNL     1       0.591  12.541  20.521  0.00  0.00    +0.000 A 
ATOM      2  C   UNL     1       0.874  13.866  20.066  0.00  0.00    +0.000 A 
ATOM      3  C   UNL     1       1.679  13.994  18.957  0.00  0.00    +0.000 A 
ATOM      4  N   UNL     1       2.130  12.911  18.312  0.00  0.00    +0.000 NA
ATOM      5  C   UNL     1       1.847  11.669  18.736  0.00  0.00    +0.000 A 
ATOM      6  C   UNL     1       2.233  10.708  17.841  0.00  0.00    +0.000 A 
ATOM      7  C   UNL     1       1.843   9.367  17.950  0.00  0.00    +0.000 A 
ATOM      8  C   UNL     1       1.612   8.768  19.165  0.00  0.00    +0.000 A 
ATOM      9  C   UNL     1       1.155   9.754  20.119  0.00  0.00    +0.000 A 
ATOM     10  C   UNL     1       1.146  11.297  19.879  0.00  0.00    +0.000 A 
ENDROOT
BRANCH   8  11
ATOM     11  C   UNL     1       1.993   7.249  19.273  0.00  0.00    +0.000 A 
ATOM     12  C   UNL     1       2.406   6.532  18.146  0.00  0.00    +0.000 A 
ATOM     13  C   UNL     1       2.404   5.122  18.094  0.00  0.00    +0.000 A 
ATOM     14  C   UNL     1       1.986   4.335  19.193  0.00  0.00    +0.000 A 
ATOM     15  C   UNL     1       1.741   2.945  19.369  0.00  0.00    +0.000 A 
ATOM     16  C   UNL     1       1.408   2.747  20.687  0.00  0.00    +0.000 A 
ATOM     17  N   UNL     1       1.488   3.967  21.335  0.00  0.00    +0.000 N 
ATOM     18  C   UNL     1       1.733   5.003  20.396  0.00  0.00    +0.000 A 
ATOM     19  C   UNL     1       1.761   6.434  20.464  0.00  0.00    +0.000 A 
ATOM     20  H   UNL     1       1.337   4.082  22.314  0.00  0.00    +0.000 HD
ENDBRANCH   8  11
BRANCH   3  21
ATOM     21  C   UNL     1       2.089  15.254  18.312  0.00  0.00    +0.000 A 
ATOM     22  C   UNL     1       3.209  15.600  17.568  0.00  0.00    +0.000 A 
ATOM     23  C   UNL     1       3.103  16.957  17.186  0.00  0.00    +0.000 A 
ATOM     24  C   UNL     1       1.913  17.368  17.726  0.00  0.00    +0.000 A 
ATOM     25  O   UNL     1       1.279  16.354  18.407  0.00  0.00    +0.000 OA
ENDBRANCH   3  21
BRANCH   1  27
ATOM     26  O   UNL     1       0.019  11.536  22.510  0.00  0.00    +0.000 OA
ATOM     27  C   UNL     1      -0.286  12.433  21.721  0.00  0.00    +0.000 C 
ATOM     28  N   UNL     1      -1.396  13.290  21.892  0.00  0.00    +0.000 N 
ATOM     29  H   UNL     1      -1.711  13.859  21.112  0.00  0.00    +0.000 HD
BRANCH  28  30
ATOM     30  C   UNL     1      -2.266  13.233  23.036  0.00  0.00    +0.000 A 
ATOM     31  C   UNL     1      -3.184  12.198  23.232  0.00  0.00    +0.000 A 
ATOM     32  C   UNL     1      -4.079  12.234  24.289  0.00  0.00    +0.000 A 
ATOM     33  C   UNL     1      -4.038  13.306  25.164  0.00  0.00    +0.000 A 
ATOM     34  N   UNL     1      -3.134  14.302  25.058  0.00  0.00    +0.000 NA
ATOM     35  C   UNL     1      -2.260  14.231  24.013  0.00  0.00    +0.000 A 
ENDBRANCH  28  30
ENDBRANCH   1  27
TORSDOF 4
ENDMDL
MODEL 7
REMARK VINA RESULT:      -8.2      2.980      5.990
REMARK  Name = 
REMARK  4 active torsions:
REMARK  status: ('A' for Active; 'I' for Inactive)
REMARK    1  A    between atoms: C_2  and  C_10
REMARK    2  A    between atoms: N_3  and  C_4
REMARK    3  A    between atoms: C_12  and  C_13
REMARK    4  A    between atoms: C_22  and  C_23
REMARK                            x       y       z     vdW  Elec       q    Type
REMARK                         _______ _______ _______ _____ _____    ______ ____
ROOT
ATOM      1  C   UNL     1      -1.073  12.861  19.435  0.00  0.00    +0.000 A 
ATOM      2  C   UNL     1      -0.925  14.282  19.374  0.00  0.00    +0.000 A 
ATOM      3  C   UNL     1       0.313  14.774  19.029  0.00  0.00    +0.000 A 
ATOM      4  N   UNL     1       1.316  13.943  18.718  0.00  0.00    +0.000 NA
ATOM      5  C   UNL     1       1.165  12.610  18.761  0.00  0.00    +0.000 A 
ATOM      6  C   UNL     1       2.234  11.944  18.225  0.00  0.00    +0.000 A 
ATOM      7  C   UNL     1       2.214  10.571  17.949  0.00  0.00    +0.000 A 
ATOM      8  C   UNL     1       1.472   9.685  18.695  0.00  0.00    +0.000 A 
ATOM      9  C   UNL     1       0.308  10.352  19.234  0.00  0.00    +0.000 A 
ATOM     10  C   UNL     1       0.049  11.890  19.176  0.00  0.00    +0.000 A 
ENDROOT
BRANCH   8  11
ATOM     11  C   UNL     1       2.088   8.253  18.885  0.00  0.00    +0.000 A 
ATOM     12  C   UNL     1       2.571   7.529  17.790  0.00  0.00    +0.000 A 
ATOM     13  C   UNL     1       2.786   6.136  17.831  0.00  0.00    +0.000 A 
ATOM     14  C   UNL     1       2.532   5.374  18.995  0.00  0.00    +0.000 A 
ATOM     15  C   UNL     1       2.512   3.979  19.272  0.00  0.00    +0.000 A 
ATOM     16  C   UNL     1       2.257   3.827  20.613  0.00  0.00    +0.000 A 
ATOM     17  N   UNL     1       2.167   5.088  21.177  0.00  0.00    +0.000 N 
ATOM     18  C   UNL     1       2.217   6.079  20.162  0.00  0.00    +0.000 A 
ATOM     19  C   UNL     1       2.025   7.500  20.135  0.00  0.00    +0.000 A 
ATOM     20  H   UNL     1       2.032   5.248  22.152  0.00  0.00    +0.000 HD
ENDBRANCH   8  11
BRANCH   3  21
ATOM     21  C   UNL     1       0.686  16.194  18.896  0.00  0.00    +0.000 A 
ATOM     22  C   UNL     1       0.210  17.211  18.080  0.00  0.00    +0.000 A 
ATOM     23  C   UNL     1       0.932  18.396  18.359  0.00  0.00    +0.000 A 
ATOM     24  C   UNL     1       1.817  18.030  19.337  0.00  0.00    +0.000 A 
ATOM     25  O   UNL     1       1.685  16.704  19.682  0.00  0.00    +0.000 OA
ENDBRANCH   3  21
BRANCH   1  27
ATOM     26  O   UNL     1      -2.496  11.830  20.919  0.00  0.00    +0.000 OA
ATOM     27  C   UNL     1      -2.424  12.358  19.806  0.00  0.00    +0.000 C 
ATOM     28  N   UNL     1      -3.513  12.463  18.912  0.00  0.00    +0.000 N 
ATOM     29  H   UNL     1      -3.339  12.713  17.943  0.00  0.00    +0.000 HD
BRANCH  28  30
ATOM     30  C   UNL     1      -4.838  12.001  19.227  0.00  0.00    +0.000 A 
ATOM     31  C   UNL     1      -5.491  11.018  18.480  0.00  0.00    +0.000 A 
ATOM     32  C   UNL     1      -6.806  10.678  18.748  0.00  0.00    +0.000 A 
ATOM     33  C   UNL     1      -7.463  11.315  19.787  0.00  0.00    +0.000 A 
ATOM     34  N   UNL     1      -6.864  12.228  20.581  0.00  0.00    +0.000 NA
ATOM     35  C   UNL     1      -5.566  12.533  20.295  0.00  0.00    +0.000 A 
ENDBRANCH  28  30
ENDBRANCH   1  27
TORSDOF 4
ENDMDL
MODEL 8
REMARK VINA RESULT:      -8.1      1.530      2.038
REMARK  Name = 
REMARK  4 active torsions:
REMARK  status: ('A' for Active; 'I' for Inactive)
REMARK    1  A    between atoms: C_2  and  C_10
REMARK    2  A    between atoms: N_3  and  C_4
REMARK    3  A    between atoms: C_12  and  C_13
REMARK    4  A    between atoms: C_22  and  C_23
REMARK                            x       y       z     vdW  Elec       q    Type
REMARK                         _______ _______ _______ _____ _____    ______ ____
ROOT
ATOM      1  C   UNL     1      -0.453  12.636  20.318  0.00  0.00    +0.000 A 
ATOM      2  C   UNL     1      -1.483  13.170  21.153  0.00  0.00    +0.000 A 
ATOM      3  C   UNL     1      -2.047  12.324  22.080  0.00  0.00    +0.000 A 
ATOM      4  N   UNL     1      -1.605  11.067  22.215  0.00  0.00    +0.000 NA
ATOM      5  C   UNL     1      -0.627  10.577  21.437  0.00  0.00    +0.000 A 
ATOM      6  C   UNL     1      -0.189   9.350  21.857  0.00  0.00    +0.000 A 
ATOM      7  C   UNL     1       0.968   8.743  21.353  0.00  0.00    +0.000 A 
ATOM      8  C   UNL     1       1.400   8.947  20.063  0.00  0.00    +0.000 A 
ATOM      9  C   UNL     1       0.992  10.258  19.611  0.00  0.00    +0.000 A 
ATOM     10  C   UNL     1       0.016  11.206  20.376  0.00  0.00    +0.000 A 
ENDROOT
BRANCH   8  11
ATOM     11  C   UNL     1       2.097   7.726  19.364  0.00  0.00    +0.000 A 
ATOM     12  C   UNL     1       2.228   6.500  20.026  0.00  0.00    +0.000 A 
ATOM     13  C   UNL     1       3.143   5.507  19.619  0.00  0.00    +0.000 A 
ATOM     14  C   UNL     1       3.992   5.685  18.501  0.00  0.00    +0.000 A 
ATOM     15  C   UNL     1       5.083   4.945  17.966  0.00  0.00    +0.000 A 
ATOM     16  C   UNL     1       5.487   5.577  16.816  0.00  0.00    +0.000 A 
ATOM     17  N   UNL     1       4.647   6.655  16.602  0.00  0.00    +0.000 N 
ATOM     18  C   UNL     1       3.772   6.817  17.708  0.00  0.00    +0.000 A 
ATOM     19  C   UNL     1       2.823   7.818  18.100  0.00  0.00    +0.000 A 
ATOM     20  H   UNL     1       4.705   7.249  15.803  0.00  0.00    +0.000 HD
ENDBRANCH   8  11
BRANCH   3  21
ATOM     21  C   UNL     1      -3.108  12.662  23.046  0.00  0.00    +0.000 A 
ATOM     22  C   UNL     1      -3.603  11.997  24.160  0.00  0.00    +0.000 A 
ATOM     23  C   UNL     1      -4.637  12.773  24.734  0.00  0.00    +0.000 A 
ATOM     24  C   UNL     1      -4.717  13.878  23.928  0.00  0.00    +0.000 A 
ATOM     25  O   UNL     1      -3.799  13.836  22.904  0.00  0.00    +0.000 OA
ENDBRANCH   3  21
BRANCH   1  27
ATOM     26  O   UNL     1      -0.341  13.514  18.195  0.00  0.00    +0.000 OA
ATOM     27  C   UNL     1       0.141  13.576  19.328  0.00  0.00    +0.000 C 
ATOM     28  N   UNL     1       1.201  14.439  19.687  0.00  0.00    +0.000 N 
ATOM     29  H   UNL     1       1.687  14.292  20.567  0.00  0.00    +0.000 HD
BRANCH  28  30
ATOM     30  C   UNL     1       1.803  15.371  18.771  0.00  0.00    +0.000 A 
ATOM     31  C   UNL     1       1.268  16.638  18.527  0.00  0.00    +0.000 A 
ATOM     32  C   UNL     1       1.814  17.464  17.557  0.00  0.00    +0.000 A 
ATOM     33  C   UNL     1       2.915  17.022  16.845  0.00  0.00    +0.000 A 
ATOM     34  N   UNL     1       3.510  15.833  17.080  0.00  0.00    +0.000 NA
ATOM     35  C   UNL     1       2.954  15.049  18.047  0.00  0.00    +0.000 A 
ENDBRANCH  28  30
ENDBRANCH   1  27
TORSDOF 4
ENDMDL
MODEL 9
REMARK VINA RESULT:      -7.9      2.278      5.939
REMARK  Name = 
REMARK  4 active torsions:
REMARK  status: ('A' for Active; 'I' for Inactive)
REMARK    1  A    between atoms: C_2  and  C_10
REMARK    2  A    between atoms: N_3  and  C_4
REMARK    3  A    between atoms: C_12  and  C_13
REMARK    4  A    between atoms: C_22  and  C_23
REMARK                            x       y       z     vdW  Elec       q    Type
REMARK                         _______ _______ _______ _____ _____    ______ ____
ROOT
ATOM      1  C   UNL     1      -0.295  12.403  19.667  0.00  0.00    +0.000 A 
ATOM      2  C   UNL     1       0.013  13.773  19.403  0.00  0.00    +0.000 A 
ATOM      3  C   UNL     1       1.191  14.040  18.742  0.00  0.00    +0.000 A 
ATOM      4  N   UNL     1       1.981  13.042  18.327  0.00  0.00    +0.000 NA
ATOM      5  C   UNL     1       1.678  11.756  18.565  0.00  0.00    +0.000 A 
ATOM      6  C   UNL     1       2.502  10.891  17.898  0.00  0.00    +0.000 A 
ATOM      7  C   UNL     1       2.245   9.517  17.803  0.00  0.00    +0.000 A 
ATOM      8  C   UNL     1       1.588   8.824  18.794  0.00  0.00    +0.000 A 
ATOM      9  C   UNL     1       0.673   9.706  19.484  0.00  0.00    +0.000 A 
ATOM     10  C   UNL     1       0.605  11.254  19.295  0.00  0.00    +0.000 A 
ENDROOT
BRANCH   8  11
ATOM     11  C   UNL     1       2.045   7.340  19.021  0.00  0.00    +0.000 A 
ATOM     12  C   UNL     1       2.481   6.552  17.951  0.00  0.00    +0.000 A 
ATOM     13  C   UNL     1       2.548   5.145  18.016  0.00  0.00    +0.000 A 
ATOM     14  C   UNL     1       2.181   4.432  19.182  0.00  0.00    +0.000 A 
ATOM     15  C   UNL     1       2.007   3.052  19.477  0.00  0.00    +0.000 A 
ATOM     16  C   UNL     1       1.699   2.949  20.812  0.00  0.00    +0.000 A 
ATOM     17  N   UNL     1       1.726   4.221  21.355  0.00  0.00    +0.000 N 
ATOM     18  C   UNL     1       1.909   5.185  20.330  0.00  0.00    +0.000 A 
ATOM     19  C   UNL     1       1.867   6.617  20.278  0.00  0.00    +0.000 A 
ATOM     20  H   UNL     1       1.579   4.410  22.324  0.00  0.00    +0.000 HD
ENDBRANCH   8  11
BRANCH   3  21
ATOM     21  C   UNL     1       1.700  15.368  18.359  0.00  0.00    +0.000 A 
ATOM     22  C   UNL     1       1.173  16.646  18.496  0.00  0.00    +0.000 A 
ATOM     23  C   UNL     1       2.084  17.577  17.947  0.00  0.00    +0.000 A 
ATOM     24  C   UNL     1       3.125  16.808  17.498  0.00  0.00    +0.000 A 
ATOM     25  O   UNL     1       2.918  15.470  17.741  0.00  0.00    +0.000 OA
ENDBRANCH   3  21
BRANCH   1  27
ATOM     26  O   UNL     1      -1.512  11.312  21.286  0.00  0.00    +0.000 OA
ATOM     27  C   UNL     1      -1.577  12.145  20.379  0.00  0.00    +0.000 C 
ATOM     28  N   UNL     1      -2.770  12.800  19.995  0.00  0.00    +0.000 N 
ATOM     29  H   UNL     1      -2.798  13.307  19.116  0.00  0.00    +0.000 HD
BRANCH  28  30
ATOM     30  C   UNL     1      -4.030  12.592  20.656  0.00  0.00    +0.000 A 
ATOM     31  C   UNL     1      -5.189  12.221  19.969  0.00  0.00    +0.000 A 
ATOM     32  C   UNL     1      -6.406  12.137  20.625  0.00  0.00    +0.000 A 
ATOM     33  C   UNL     1      -6.455  12.408  21.981  0.00  0.00    +0.000 A 
ATOM     34  N   UNL     1      -5.359  12.711  22.708  0.00  0.00    +0.000 NA
ATOM     35  C   UNL     1      -4.175  12.776  22.034  0.00  0.00    +0.000 A 
ENDBRANCH  28  30
ENDBRANCH   1  27
TORSDOF 4
ENDMDL
