MODEL 1
REMARK VINA RESULT:      -8.1      0.000      0.000
REMARK  Name = 
REMARK  17 active torsions:
REMARK  status: ('A' for Active; 'I' for Inactive)
REMARK    1  A    between atoms: C_1  and  N_2
REMARK    2  A    between atoms: C_3  and  C_5
REMARK    3  A    between atoms: C_5  and  N_6
REMARK    4  A    between atoms: C_5  and  C_31
REMARK    5  A    between atoms: C_7  and  C_9
REMARK    6  A    between atoms: C_9  and  C_10
REMARK    7  A    between atoms: C_9  and  C_26
REMARK    8  A    between atoms: C_10  and  C_11
REMARK    9  A    between atoms: C_11  and  C_12
REMARK   10  A    between atoms: C_12  and  C_13
REMARK   11  A    between atoms: C_16  and  C_17
REMARK   12  A    between atoms: C_23  and  C_24
REMARK   13  A    between atoms: C_26  and  C_27
REMARK   14  A    between atoms: N_29  and  O_30
REMARK   15  A    between atoms: C_31  and  C_32
REMARK   16  A    between atoms: C_31  and  C_33
REMARK   17  A    between atoms: C_31  and  C_34
REMARK                            x       y       z     vdW  Elec       q    Type
REMARK                         _______ _______ _______ _____ _____    ______ ____
ROOT
ATOM      1  C   UNL     1       6.807   5.967  17.605  0.00  0.00    +0.000 C 
ENDROOT
BRANCH   1   3
ATOM      2  N   UNL     1       4.703   5.176  18.572  0.00  0.00    +0.000 N 
ATOM      3  C   UNL     1       6.037   5.413  18.805  0.00  0.00    +0.000 C 
ATOM      4  O   UNL     1       6.565   5.218  19.897  0.00  0.00    +0.000 OA
ATOM      5  H   UNL     1       4.427   5.023  17.611  0.00  0.00    +0.000 HD
BRANCH   2   6
ATOM      6  C   UNL     1       3.794   4.648  19.610  0.00  0.00    +0.000 C 
BRANCH   6   9
ATOM      7  C   UNL     1       4.002   1.089  18.200  0.00  0.00    +0.000 C 
ATOM      8  N   UNL     1       3.874   2.512  18.366  0.00  0.00    +0.000 N 
ATOM      9  C   UNL     1       3.856   3.089  19.618  0.00  0.00    +0.000 C 
ATOM     10  O   UNL     1       3.961   2.408  20.636  0.00  0.00    +0.000 OA
ATOM     11  H   UNL     1       3.928   3.118  17.549  0.00  0.00    +0.000 HD
ENDBRANCH   6   9
BRANCH   6  12
ATOM     12  C   UNL     1       2.351   5.247  19.465  0.00  0.00    +0.000 C 
ATOM     13  C   UNL     1       1.382   4.585  20.469  0.00  0.00    +0.000 C 
ATOM     14  C   UNL     1       2.382   6.757  19.800  0.00  0.00    +0.000 C 
ATOM     15  C   UNL     1       1.781   5.093  18.042  0.00  0.00    +0.000 C 
ENDBRANCH   6  12
ENDBRANCH   2   6
ENDBRANCH   1   3
BRANCH   1  16
ATOM     16  C   UNL     1       7.862   6.970  18.110  0.00  0.00    +0.000 C 
BRANCH  16  17
ATOM     17  C   UNL     1       7.561   8.423  17.707  0.00  0.00    +0.000 C 
BRANCH  17  18
ATOM     18  C   UNL     1       8.806   9.288  17.497  0.00  0.00    +0.000 C 
BRANCH  18  19
ATOM     19  C   UNL     1       8.942  10.458  18.440  0.00  0.00    +0.000 A 
ATOM     20  C   UNL     1       9.414  10.307  19.742  0.00  0.00    +0.000 A 
ATOM     21  C   UNL     1       9.580  11.427  20.571  0.00  0.00    +0.000 A 
ATOM     22  C   UNL     1       9.327  12.746  20.129  0.00  0.00    +0.000 A 
ATOM     23  C   UNL     1       8.905  12.889  18.781  0.00  0.00    +0.000 A 
ATOM     24  C   UNL     1       8.791  14.196  18.034  0.00  0.00    +0.000 C 
ATOM     25  C   UNL     1       8.661  11.747  17.987  0.00  0.00    +0.000 A 
BRANCH  22  26
ATOM     26  C   UNL     1       9.508  13.892  21.067  0.00  0.00    +0.000 A 
ATOM     27  C   UNL     1      10.684  14.666  21.080  0.00  0.00    +0.000 A 
ATOM     28  C   UNL     1      10.830  15.767  21.938  0.00  0.00    +0.000 A 
ATOM     29  C   UNL     1       9.787  16.142  22.778  0.00  0.00    +0.000 A 
ATOM     30  C   UNL     1       8.626  15.381  22.807  0.00  0.00    +0.000 A 
ATOM     31  C   UNL     1       8.515  14.247  21.996  0.00  0.00    +0.000 A 
ENDBRANCH  22  26
ENDBRANCH  18  19
ENDBRANCH  17  18
ENDBRANCH  16  17
ENDBRANCH   1  16
BRANCH   1  32
ATOM     32  C   UNL     1       7.454   4.802  16.833  0.00  0.00    +0.000 C 
BRANCH  32  33
ATOM     33  C   UNL     1       6.551   4.244  15.767  0.00  0.00    +0.000 C 
ATOM     34  O   UNL     1       5.506   3.628  16.015  0.00  0.00    +0.000 OA
ATOM     35  N   UNL     1       6.943   4.575  14.482  0.00  0.00    +0.000 N 
ATOM     36  H   UNL     1       7.924   4.715  14.261  0.00  0.00    +0.000 HD
BRANCH  35  37
ATOM     37  O   UNL     1       6.130   4.032  13.452  0.00  0.00    +0.000 OA
ATOM     38  H   UNL     1       5.710   4.831  13.064  0.00  0.00    +0.000 HD
ENDBRANCH  35  37
ENDBRANCH  32  33
ENDBRANCH   1  32
TORSDOF 12
ENDMDL
MODEL 2
REMARK VINA RESULT:      -8.0      4.681      8.359
REMARK  Name = 
REMARK  17 active torsions:
REMARK  status: ('A' for Active; 'I' for Inactive)
REMARK    1  A    between atoms: C_1  and  N_2
REMARK    2  A    between atoms: C_3  and  C_5
REMARK    3  A    between atoms: C_5  and  N_6
REMARK    4  A    between atoms: C_5  and  C_31
REMARK    5  A    between atoms: C_7  and  C_9
REMARK    6  A    between atoms: C_9  and  C_10
REMARK    7  A    between atoms: C_9  and  C_26
REMARK    8  A    between atoms: C_10  and  C_11
REMARK    9  A    between atoms: C_11  and  C_12
REMARK   10  A    between atoms: C_12  and  C_13
REMARK   11  A    between atoms: C_16  and  C_17
REMARK   12  A    between atoms: C_23  and  C_24
REMARK   13  A    between atoms: C_26  and  C_27
REMARK   14  A    between atoms: N_29  and  O_30
REMARK   15  A    between atoms: C_31  and  C_32
REMARK   16  A    between atoms: C_31  and  C_33
REMARK   17  A    between atoms: C_31  and  C_34
REMARK                            x       y       z     vdW  Elec       q    Type
REMARK                         _______ _______ _______ _____ _____    ______ ____
ROOT
ATOM      1  C   UNL     1       2.685   5.554  19.161  0.00  0.00    +0.000 C 
ENDROOT
BRANCH   1   3
ATOM      2  N   UNL     1       4.753   5.596  17.855  0.00  0.00    +0.000 N 
ATOM      3  C   UNL     1       4.086   5.001  18.899  0.00  0.00    +0.000 C 
ATOM      4  O   UNL     1       4.567   4.081  19.557  0.00  0.00    +0.000 OA
ATOM      5  H   UNL     1       4.466   6.532  17.602  0.00  0.00    +0.000 HD
BRANCH   2   6
ATOM      6  C   UNL     1       6.114   5.193  17.445  0.00  0.00    +0.000 C 
BRANCH   6   9
ATOM      7  C   UNL     1       7.870   8.585  17.777  0.00  0.00    +0.000 C 
ATOM      8  N   UNL     1       7.038   7.485  17.367  0.00  0.00    +0.000 N 
ATOM      9  C   UNL     1       7.149   6.244  17.955  0.00  0.00    +0.000 C 
ATOM     10  O   UNL     1       7.954   6.036  18.859  0.00  0.00    +0.000 OA
ATOM     11  H   UNL     1       6.266   7.654  16.724  0.00  0.00    +0.000 HD
ENDBRANCH   6   9
BRANCH   6  12
ATOM     12  C   UNL     1       6.184   4.895  15.906  0.00  0.00    +0.000 C 
ATOM     13  C   UNL     1       5.602   3.499  15.593  0.00  0.00    +0.000 C 
ATOM     14  C   UNL     1       5.320   5.924  15.141  0.00  0.00    +0.000 C 
ATOM     15  C   UNL     1       7.618   4.978  15.347  0.00  0.00    +0.000 C 
ENDBRANCH   6  12
ENDBRANCH   2   6
ENDBRANCH   1   3
BRANCH   1  16
ATOM     16  C   UNL     1       2.615   7.001  18.637  0.00  0.00    +0.000 C 
BRANCH  16  17
ATOM     17  C   UNL     1       2.322   8.033  19.739  0.00  0.00    +0.000 C 
BRANCH  17  18
ATOM     18  C   UNL     1       1.204   7.626  20.701  0.00  0.00    +0.000 C 
BRANCH  18  19
ATOM     19  C   UNL     1       0.415   8.770  21.291  0.00  0.00    +0.000 A 
ATOM     20  C   UNL     1       0.241   8.917  22.665  0.00  0.00    +0.000 A 
ATOM     21  C   UNL     1      -0.451  10.025  23.178  0.00  0.00    +0.000 A 
ATOM     22  C   UNL     1      -0.958  11.054  22.353  0.00  0.00    +0.000 A 
ATOM     23  C   UNL     1      -0.720  10.922  20.959  0.00  0.00    +0.000 A 
ATOM     24  C   UNL     1      -0.971  11.990  19.923  0.00  0.00    +0.000 C 
ATOM     25  C   UNL     1      -0.098   9.759  20.452  0.00  0.00    +0.000 A 
BRANCH  22  26
ATOM     26  C   UNL     1      -1.699  12.197  22.962  0.00  0.00    +0.000 A 
ATOM     27  C   UNL     1      -3.075  12.125  23.254  0.00  0.00    +0.000 A 
ATOM     28  C   UNL     1      -3.754  13.190  23.862  0.00  0.00    +0.000 A 
ATOM     29  C   UNL     1      -3.065  14.342  24.228  0.00  0.00    +0.000 A 
ATOM     30  C   UNL     1      -1.714  14.454  23.927  0.00  0.00    +0.000 A 
ATOM     31  C   UNL     1      -1.060  13.413  23.261  0.00  0.00    +0.000 A 
ENDBRANCH  22  26
ENDBRANCH  18  19
ENDBRANCH  17  18
ENDBRANCH  16  17
ENDBRANCH   1  16
BRANCH   1  32
ATOM     32  C   UNL     1       1.643   4.650  18.474  0.00  0.00    +0.000 C 
BRANCH  32  33
ATOM     33  C   UNL     1       1.165   3.539  19.367  0.00  0.00    +0.000 C 
ATOM     34  O   UNL     1       0.740   2.457  18.939  0.00  0.00    +0.000 OA
ATOM     35  N   UNL     1       1.345   3.797  20.715  0.00  0.00    +0.000 N 
ATOM     36  H   UNL     1       1.313   4.749  21.067  0.00  0.00    +0.000 HD
BRANCH  35  37
ATOM     37  O   UNL     1       0.870   2.780  21.586  0.00  0.00    +0.000 OA
ATOM     38  H   UNL     1       0.757   2.014  20.981  0.00  0.00    +0.000 HD
ENDBRANCH  35  37
ENDBRANCH  32  33
ENDBRANCH   1  32
TORSDOF 12
ENDMDL
MODEL 3
REMARK VINA RESULT:      -8.0      5.399      6.337
REMARK  Name = 
REMARK  17 active torsions:
REMARK  status: ('A' for Active; 'I' for Inactive)
REMARK    1  A    between atoms: C_1  and  N_2
REMARK    2  A    between atoms: C_3  and  C_5
REMARK    3  A    between atoms: C_5  and  N_6
REMARK    4  A    between atoms: C_5  and  C_31
REMARK    5  A    between atoms: C_7  and  C_9
REMARK    6  A    between atoms: C_9  and  C_10
REMARK    7  A    between atoms: C_9  and  C_26
REMARK    8  A    between atoms: C_10  and  C_11
REMARK    9  A    between atoms: C_11  and  C_12
REMARK   10  A    between atoms: C_12  and  C_13
REMARK   11  A    between atoms: C_16  and  C_17
REMARK   12  A    between atoms: C_23  and  C_24
REMARK   13  A    between atoms: C_26  and  C_27
REMARK   14  A    between atoms: N_29  and  O_30
REMARK   15  A    between atoms: C_31  and  C_32
REMARK   16  A    between atoms: C_31  and  C_33
REMARK   17  A    between atoms: C_31  and  C_34
REMARK                            x       y       z     vdW  Elec       q    Type
REMARK                         _______ _______ _______ _____ _____    ______ ____
ROOT
ATOM      1  C   UNL     1       4.784   4.782  16.401  0.00  0.00    +0.000 C 
ENDROOT
BRANCH   1   3
ATOM      2  N   UNL     1       3.739   3.840  18.403  0.00  0.00    +0.000 N 
ATOM      3  C   UNL     1       4.913   4.282  17.840  0.00  0.00    +0.000 C 
ATOM      4  O   UNL     1       5.979   4.296  18.452  0.00  0.00    +0.000 OA
ATOM      5  H   UNL     1       3.014   3.534  17.767  0.00  0.00    +0.000 HD
BRANCH   2   6
ATOM      6  C   UNL     1       3.662   3.327  19.786  0.00  0.00    +0.000 C 
BRANCH   6   9
ATOM      7  C   UNL     1       5.672   0.370  21.170  0.00  0.00    +0.000 C 
ATOM      8  N   UNL     1       5.091   1.664  20.928  0.00  0.00    +0.000 N 
ATOM      9  C   UNL     1       4.267   1.891  19.847  0.00  0.00    +0.000 C 
ATOM     10  O   UNL     1       3.990   0.991  19.057  0.00  0.00    +0.000 OA
ATOM     11  H   UNL     1       5.183   2.393  21.634  0.00  0.00    +0.000 HD
ENDBRANCH   6   9
BRANCH   6  12
ATOM     12  C   UNL     1       2.207   3.452  20.361  0.00  0.00    +0.000 C 
ATOM     13  C   UNL     1       2.048   2.591  21.634  0.00  0.00    +0.000 C 
ATOM     14  C   UNL     1       1.938   4.918  20.775  0.00  0.00    +0.000 C 
ATOM     15  C   UNL     1       1.125   3.045  19.342  0.00  0.00    +0.000 C 
ENDBRANCH   6  12
ENDBRANCH   2   6
ENDBRANCH   1   3
BRANCH   1  16
ATOM     16  C   UNL     1       4.986   6.309  16.384  0.00  0.00    +0.000 C 
BRANCH  16  17
ATOM     17  C   UNL     1       4.389   7.015  17.613  0.00  0.00    +0.000 C 
BRANCH  17  18
ATOM     18  C   UNL     1       2.863   6.948  17.697  0.00  0.00    +0.000 C 
BRANCH  18  19
ATOM     19  C   UNL     1       2.202   8.139  18.346  0.00  0.00    +0.000 A 
ATOM     20  C   UNL     1       1.944   9.314  17.645  0.00  0.00    +0.000 A 
ATOM     21  C   UNL     1       1.276  10.380  18.268  0.00  0.00    +0.000 A 
ATOM     22  C   UNL     1       0.799  10.307  19.596  0.00  0.00    +0.000 A 
ATOM     23  C   UNL     1       1.015   9.081  20.278  0.00  0.00    +0.000 A 
ATOM     24  C   UNL     1       0.408   8.700  21.606  0.00  0.00    +0.000 C 
ATOM     25  C   UNL     1       1.764   8.050  19.667  0.00  0.00    +0.000 A 
BRANCH  22  26
ATOM     26  C   UNL     1       0.111  11.483  20.204  0.00  0.00    +0.000 A 
ATOM     27  C   UNL     1      -1.262  11.728  20.009  0.00  0.00    +0.000 A 
ATOM     28  C   UNL     1      -1.908  12.815  20.617  0.00  0.00    +0.000 A 
ATOM     29  C   UNL     1      -1.204  13.662  21.466  0.00  0.00    +0.000 A 
ATOM     30  C   UNL     1       0.156  13.462  21.656  0.00  0.00    +0.000 A 
ATOM     31  C   UNL     1       0.806  12.416  20.994  0.00  0.00    +0.000 A 
ENDBRANCH  22  26
ENDBRANCH  18  19
ENDBRANCH  17  18
ENDBRANCH  16  17
ENDBRANCH   1  16
BRANCH   1  32
ATOM     32  C   UNL     1       5.820   4.062  15.516  0.00  0.00    +0.000 C 
BRANCH  32  33
ATOM     33  C   UNL     1       6.972   4.952  15.137  0.00  0.00    +0.000 C 
ATOM     34  O   UNL     1       7.685   5.533  15.967  0.00  0.00    +0.000 OA
ATOM     35  N   UNL     1       7.228   4.976  13.777  0.00  0.00    +0.000 N 
ATOM     36  H   UNL     1       6.475   4.846  13.108  0.00  0.00    +0.000 HD
BRANCH  35  37
ATOM     37  O   UNL     1       8.288   5.836  13.384  0.00  0.00    +0.000 OA
ATOM     38  H   UNL     1       8.547   6.260  14.232  0.00  0.00    +0.000 HD
ENDBRANCH  35  37
ENDBRANCH  32  33
ENDBRANCH   1  32
TORSDOF 12
ENDMDL
MODEL 4
REMARK VINA RESULT:      -8.0      5.515      6.775
REMARK  Name = 
REMARK  17 active torsions:
REMARK  status: ('A' for Active; 'I' for Inactive)
REMARK    1  A    between atoms: C_1  and  N_2
REMARK    2  A    between atoms: C_3  and  C_5
REMARK    3  A    between atoms: C_5  and  N_6
REMARK    4  A    between atoms: C_5  and  C_31
REMARK    5  A    between atoms: C_7  and  C_9
REMARK    6  A    between atoms: C_9  and  C_10
REMARK    7  A    between atoms: C_9  and  C_26
REMARK    8  A    between atoms: C_10  and  C_11
REMARK    9  A    between atoms: C_11  and  C_12
REMARK   10  A    between atoms: C_12  and  C_13
REMARK   11  A    between atoms: C_16  and  C_17
REMARK   12  A    between atoms: C_23  and  C_24
REMARK   13  A    between atoms: C_26  and  C_27
REMARK   14  A    between atoms: N_29  and  O_30
REMARK   15  A    between atoms: C_31  and  C_32
REMARK   16  A    between atoms: C_31  and  C_33
REMARK   17  A    between atoms: C_31  and  C_34
REMARK                            x       y       z     vdW  Elec       q    Type
REMARK                         _______ _______ _______ _____ _____    ______ ____
ROOT
ATOM      1  C   UNL     1       4.418   6.258  17.179  0.00  0.00    +0.000 C 
ENDROOT
BRANCH   1   3
ATOM      2  N   UNL     1       3.508   4.474  18.585  0.00  0.00    +0.000 N 
ATOM      3  C   UNL     1       4.426   5.494  18.503  0.00  0.00    +0.000 C 
ATOM      4  O   UNL     1       5.179   5.785  19.430  0.00  0.00    +0.000 OA
ATOM      5  H   UNL     1       3.188   4.076  17.712  0.00  0.00    +0.000 HD
BRANCH   2   6
ATOM      6  C   UNL     1       3.361   3.628  19.787  0.00  0.00    +0.000 C 
BRANCH   6   9
ATOM      7  C   UNL     1       5.418   0.442  20.348  0.00  0.00    +0.000 C 
ATOM      8  N   UNL     1       4.850   1.761  20.428  0.00  0.00    +0.000 N 
ATOM      9  C   UNL     1       3.933   2.205  19.500  0.00  0.00    +0.000 C 
ATOM     10  O   UNL     1       3.559   1.485  18.578  0.00  0.00    +0.000 OA
ATOM     11  H   UNL     1       5.027   2.333  21.253  0.00  0.00    +0.000 HD
ENDBRANCH   6   9
BRANCH   6  12
ATOM     12  C   UNL     1       1.886   3.648  20.323  0.00  0.00    +0.000 C 
ATOM     13  C   UNL     1       1.763   2.808  21.614  0.00  0.00    +0.000 C 
ATOM     14  C   UNL     1       1.488   5.097  20.690  0.00  0.00    +0.000 C 
ATOM     15  C   UNL     1       0.869   3.129  19.288  0.00  0.00    +0.000 C 
ENDBRANCH   6  12
ENDBRANCH   2   6
ENDBRANCH   1   3
BRANCH   1  16
ATOM     16  C   UNL     1       3.809   7.654  17.412  0.00  0.00    +0.000 C 
BRANCH  16  17
ATOM     17  C   UNL     1       2.471   7.615  18.169  0.00  0.00    +0.000 C 
BRANCH  17  18
ATOM     18  C   UNL     1       1.435   8.622  17.667  0.00  0.00    +0.000 C 
BRANCH  18  19
ATOM     19  C   UNL     1       0.808   9.485  18.735  0.00  0.00    +0.000 A 
ATOM     20  C   UNL     1       1.189   9.400  20.072  0.00  0.00    +0.000 A 
ATOM     21  C   UNL     1       0.624  10.259  21.027  0.00  0.00    +0.000 A 
ATOM     22  C   UNL     1      -0.308  11.266  20.688  0.00  0.00    +0.000 A 
ATOM     23  C   UNL     1      -0.642  11.381  19.312  0.00  0.00    +0.000 A 
ATOM     24  C   UNL     1      -1.433  12.508  18.695  0.00  0.00    +0.000 C 
ATOM     25  C   UNL     1      -0.130  10.454  18.377  0.00  0.00    +0.000 A 
BRANCH  22  26
ATOM     26  C   UNL     1      -0.884  12.136  21.755  0.00  0.00    +0.000 A 
ATOM     27  C   UNL     1      -0.295  13.363  22.116  0.00  0.00    +0.000 A 
ATOM     28  C   UNL     1      -0.865  14.193  23.093  0.00  0.00    +0.000 A 
ATOM     29  C   UNL     1      -2.060  13.832  23.707  0.00  0.00    +0.000 A 
ATOM     30  C   UNL     1      -2.649  12.615  23.392  0.00  0.00    +0.000 A 
ATOM     31  C   UNL     1      -2.039  11.764  22.465  0.00  0.00    +0.000 A 
ENDBRANCH  22  26
ENDBRANCH  18  19
ENDBRANCH  17  18
ENDBRANCH  16  17
ENDBRANCH   1  16
BRANCH   1  32
ATOM     32  C   UNL     1       5.856   6.350  16.634  0.00  0.00    +0.000 C 
BRANCH  32  33
ATOM     33  C   UNL     1       6.603   5.050  16.757  0.00  0.00    +0.000 C 
ATOM     34  O   UNL     1       6.310   4.033  16.113  0.00  0.00    +0.000 OA
ATOM     35  N   UNL     1       7.715   5.127  17.578  0.00  0.00    +0.000 N 
ATOM     36  H   UNL     1       7.735   5.773  18.360  0.00  0.00    +0.000 HD
BRANCH  35  37
ATOM     37  O   UNL     1       8.421   3.905  17.742  0.00  0.00    +0.000 OA
ATOM     38  H   UNL     1       8.031   3.540  18.567  0.00  0.00    +0.000 HD
ENDBRANCH  35  37
ENDBRANCH  32  33
ENDBRANCH   1  32
TORSDOF 12
ENDMDL
MODEL 5
REMARK VINA RESULT:      -7.9      4.629      8.282
REMARK  Name = 
REMARK  17 active torsions:
REMARK  status: ('A' for Active; 'I' for Inactive)
REMARK    1  A    between atoms: C_1  and  N_2
REMARK    2  A    between atoms: C_3  and  C_5
REMARK    3  A    between atoms: C_5  and  N_6
REMARK    4  A    between atoms: C_5  and  C_31
REMARK    5  A    between atoms: C_7  and  C_9
REMARK    6  A    between atoms: C_9  and  C_10
REMARK    7  A    between atoms: C_9  and  C_26
REMARK    8  A    between atoms: C_10  and  C_11
REMARK    9  A    between atoms: C_11  and  C_12
REMARK   10  A    between atoms: C_12  and  C_13
REMARK   11  A    between atoms: C_16  and  C_17
REMARK   12  A    between atoms: C_23  and  C_24
REMARK   13  A    between atoms: C_26  and  C_27
REMARK   14  A    between atoms: N_29  and  O_30
REMARK   15  A    between atoms: C_31  and  C_32
REMARK   16  A    between atoms: C_31  and  C_33
REMARK   17  A    between atoms: C_31  and  C_34
REMARK                            x       y       z     vdW  Elec       q    Type
REMARK                         _______ _______ _______ _____ _____    ______ ____
ROOT
ATOM      1  C   UNL     1       2.734   5.488  19.169  0.00  0.00    +0.000 C 
ENDROOT
BRANCH   1   3
ATOM      2  N   UNL     1       4.779   5.597  17.830  0.00  0.00    +0.000 N 
ATOM      3  C   UNL     1       4.133   4.953  18.858  0.00  0.00    +0.000 C 
ATOM      4  O   UNL     1       4.629   4.007  19.466  0.00  0.00    +0.000 OA
ATOM      5  H   UNL     1       4.484   6.543  17.625  0.00  0.00    +0.000 HD
BRANCH   2   6
ATOM      6  C   UNL     1       6.134   5.219  17.379  0.00  0.00    +0.000 C 
BRANCH   6   9
ATOM      7  C   UNL     1       7.830   8.647  17.647  0.00  0.00    +0.000 C 
ATOM      8  N   UNL     1       7.008   7.530  17.267  0.00  0.00    +0.000 N 
ATOM      9  C   UNL     1       7.163   6.292  17.853  0.00  0.00    +0.000 C 
ATOM     10  O   UNL     1       8.003   6.102  18.730  0.00  0.00    +0.000 OA
ATOM     11  H   UNL     1       6.212   7.682  16.649  0.00  0.00    +0.000 HD
ENDBRANCH   6   9
BRANCH   6  12
ATOM     12  C   UNL     1       6.161   4.917  15.840  0.00  0.00    +0.000 C 
ATOM     13  C   UNL     1       5.311   5.949  15.066  0.00  0.00    +0.000 C 
ATOM     14  C   UNL     1       7.610   5.045  15.313  0.00  0.00    +0.000 C 
ATOM     15  C   UNL     1       5.661   3.500  15.501  0.00  0.00    +0.000 C 
ENDBRANCH   6  12
ENDBRANCH   2   6
ENDBRANCH   1   3
BRANCH   1  16
ATOM     16  C   UNL     1       2.513   6.792  18.379  0.00  0.00    +0.000 C 
BRANCH  16  17
ATOM     17  C   UNL     1       2.218   8.005  19.278  0.00  0.00    +0.000 C 
BRANCH  17  18
ATOM     18  C   UNL     1       1.225   9.003  18.680  0.00  0.00    +0.000 C 
BRANCH  18  19
ATOM     19  C   UNL     1       0.548   9.911  19.678  0.00  0.00    +0.000 A 
ATOM     20  C   UNL     1      -0.190  11.024  19.282  0.00  0.00    +0.000 A 
ATOM     21  C   UNL     1      -0.853  11.812  20.237  0.00  0.00    +0.000 A 
ATOM     22  C   UNL     1      -0.847  11.502  21.616  0.00  0.00    +0.000 A 
ATOM     23  C   UNL     1      -0.141  10.331  21.997  0.00  0.00    +0.000 A 
ATOM     24  C   UNL     1      -0.183   9.690  23.363  0.00  0.00    +0.000 C 
ATOM     25  C   UNL     1       0.591   9.598  21.036  0.00  0.00    +0.000 A 
BRANCH  22  26
ATOM     26  C   UNL     1      -1.559  12.391  22.580  0.00  0.00    +0.000 A 
ATOM     27  C   UNL     1      -0.970  13.565  23.087  0.00  0.00    +0.000 A 
ATOM     28  C   UNL     1      -1.661  14.416  23.963  0.00  0.00    +0.000 A 
ATOM     29  C   UNL     1      -2.974  14.131  24.323  0.00  0.00    +0.000 A 
ATOM     30  C   UNL     1      -3.572  12.966  23.861  0.00  0.00    +0.000 A 
ATOM     31  C   UNL     1      -2.852  12.091  23.042  0.00  0.00    +0.000 A 
ENDBRANCH  22  26
ENDBRANCH  18  19
ENDBRANCH  17  18
ENDBRANCH  16  17
ENDBRANCH   1  16
BRANCH   1  32
ATOM     32  C   UNL     1       1.687   4.418  18.805  0.00  0.00    +0.000 C 
BRANCH  32  33
ATOM     33  C   UNL     1       1.576   3.342  19.850  0.00  0.00    +0.000 C 
ATOM     34  O   UNL     1       1.397   2.146  19.578  0.00  0.00    +0.000 OA
ATOM     35  N   UNL     1       1.798   3.796  21.138  0.00  0.00    +0.000 N 
ATOM     36  H   UNL     1       1.561   4.749  21.397  0.00  0.00    +0.000 HD
BRANCH  35  37
ATOM     37  O   UNL     1       1.664   2.809  22.151  0.00  0.00    +0.000 OA
ATOM     38  H   UNL     1       0.944   2.238  21.802  0.00  0.00    +0.000 HD
ENDBRANCH  35  37
ENDBRANCH  32  33
ENDBRANCH   1  32
TORSDOF 12
ENDMDL
MODEL 6
REMARK VINA RESULT:      -7.9      1.544      2.007
REMARK  Name = 
REMARK  17 active torsions:
REMARK  status: ('A' for Active; 'I' for Inactive)
REMARK    1  A    between atoms: C_1  and  N_2
REMARK    2  A    between atoms: C_3  and  C_5
REMARK    3  A    between atoms: C_5  and  N_6
REMARK    4  A    between atoms: C_5  and  C_31
REMARK    5  A    between atoms: C_7  and  C_9
REMARK    6  A    between atoms: C_9  and  C_10
REMARK    7  A    between atoms: C_9  and  C_26
REMARK    8  A    between atoms: C_10  and  C_11
REMARK    9  A    between atoms: C_11  and  C_12
REMARK   10  A    between atoms: C_12  and  C_13
REMARK   11  A    between atoms: C_16  and  C_17
REMARK   12  A    between atoms: C_23  and  C_24
REMARK   13  A    between atoms: C_26  and  C_27
REMARK   14  A    between atoms: N_29  and  O_30
REMARK   15  A    between atoms: C_31  and  C_32
REMARK   16  A    between atoms: C_31  and  C_33
REMARK   17  A    between atoms: C_31  and  C_34
REMARK                            x       y       z     vdW  Elec       q    Type
REMARK                         _______ _______ _______ _____ _____    ______ ____
ROOT
ATOM      1  C   UNL     1       6.389   5.797  17.602  0.00  0.00    +0.000 C 
ENDROOT
BRANCH   1   3
ATOM      2  N   UNL     1       4.751   4.293  18.621  0.00  0.00    +0.000 N 
ATOM      3  C   UNL     1       4.985   5.567  18.161  0.00  0.00    +0.000 C 
ATOM      4  O   UNL     1       4.126   6.447  18.176  0.00  0.00    +0.000 OA
ATOM      5  H   UNL     1       5.558   3.751  18.898  0.00  0.00    +0.000 HD
BRANCH   2   6
ATOM      6  C   UNL     1       3.452   3.877  19.191  0.00  0.00    +0.000 C 
BRANCH   6   9
ATOM      7  C   UNL     1       5.228   1.111  21.165  0.00  0.00    +0.000 C 
ATOM      8  N   UNL     1       4.829   2.072  20.171  0.00  0.00    +0.000 N 
ATOM      9  C   UNL     1       3.688   2.830  20.323  0.00  0.00    +0.000 C 
ATOM     10  O   UNL     1       2.977   2.721  21.320  0.00  0.00    +0.000 OA
ATOM     11  H   UNL     1       5.463   2.291  19.405  0.00  0.00    +0.000 HD
ENDBRANCH   6   9
BRANCH   6  12
ATOM     12  C   UNL     1       2.456   3.418  18.069  0.00  0.00    +0.000 C 
ATOM     13  C   UNL     1       1.461   4.549  17.726  0.00  0.00    +0.000 C 
ATOM     14  C   UNL     1       3.243   3.105  16.774  0.00  0.00    +0.000 C 
ATOM     15  C   UNL     1       1.664   2.153  18.455  0.00  0.00    +0.000 C 
ENDBRANCH   6  12
ENDBRANCH   2   6
ENDBRANCH   1   3
BRANCH   1  16
ATOM     16  C   UNL     1       7.373   5.959  18.776  0.00  0.00    +0.000 C 
BRANCH  16  17
ATOM     17  C   UNL     1       8.405   7.078  18.555  0.00  0.00    +0.000 C 
BRANCH  17  18
ATOM     18  C   UNL     1       7.851   8.312  17.841  0.00  0.00    +0.000 C 
BRANCH  18  19
ATOM     19  C   UNL     1       8.410   9.632  18.313  0.00  0.00    +0.000 A 
ATOM     20  C   UNL     1       9.418   9.707  19.271  0.00  0.00    +0.000 A 
ATOM     21  C   UNL     1       9.952  10.951  19.643  0.00  0.00    +0.000 A 
ATOM     22  C   UNL     1       9.539  12.165  19.049  0.00  0.00    +0.000 A 
ATOM     23  C   UNL     1       8.554  12.067  18.031  0.00  0.00    +0.000 A 
ATOM     24  C   UNL     1       8.127  13.189  17.115  0.00  0.00    +0.000 C 
ATOM     25  C   UNL     1       7.966  10.819  17.729  0.00  0.00    +0.000 A 
BRANCH  22  26
ATOM     26  C   UNL     1      10.136  13.455  19.503  0.00  0.00    +0.000 A 
ATOM     27  C   UNL     1      11.224  14.050  18.836  0.00  0.00    +0.000 A 
ATOM     28  C   UNL     1      11.753  15.282  19.246  0.00  0.00    +0.000 A 
ATOM     29  C   UNL     1      11.181  15.969  20.312  0.00  0.00    +0.000 A 
ATOM     30  C   UNL     1      10.125  15.396  21.006  0.00  0.00    +0.000 A 
ATOM     31  C   UNL     1       9.647  14.136  20.632  0.00  0.00    +0.000 A 
ENDBRANCH  22  26
ENDBRANCH  18  19
ENDBRANCH  17  18
ENDBRANCH  16  17
ENDBRANCH   1  16
BRANCH   1  32
ATOM     32  C   UNL     1       6.777   4.613  16.695  0.00  0.00    +0.000 C 
BRANCH  32  33
ATOM     33  C   UNL     1       6.623   4.932  15.233  0.00  0.00    +0.000 C 
ATOM     34  O   UNL     1       5.539   4.884  14.637  0.00  0.00    +0.000 OA
ATOM     35  N   UNL     1       7.789   5.387  14.641  0.00  0.00    +0.000 N 
ATOM     36  H   UNL     1       8.694   5.073  14.976  0.00  0.00    +0.000 HD
BRANCH  35  37
ATOM     37  O   UNL     1       7.684   5.662  13.252  0.00  0.00    +0.000 OA
ATOM     38  H   UNL     1       7.862   4.786  12.844  0.00  0.00    +0.000 HD
ENDBRANCH  35  37
ENDBRANCH  32  33
ENDBRANCH   1  32
TORSDOF 12
ENDMDL
MODEL 7
REMARK VINA RESULT:      -7.8      4.596     10.730
REMARK  Name = 
REMARK  17 active torsions:
REMARK  status: ('A' for Active; 'I' for Inactive)
REMARK    1  A    between atoms: C_1  and  N_2
REMARK    2  A    between atoms: C_3  and  C_5
REMARK    3  A    between atoms: C_5  and  N_6
REMARK    4  A    between atoms: C_5  and  C_31
REMARK    5  A    between atoms: C_7  and  C_9
REMARK    6  A    between atoms: C_9  and  C_10
REMARK    7  A    between atoms: C_9  and  C_26
REMARK    8  A    between atoms: C_10  and  C_11
REMARK    9  A    between atoms: C_11  and  C_12
REMARK   10  A    between atoms: C_12  and  C_13
REMARK   11  A    between atoms: C_16  and  C_17
REMARK   12  A    between atoms: C_23  and  C_24
REMARK   13  A    between atoms: C_26  and  C_27
REMARK   14  A    between atoms: N_29  and  O_30
REMARK   15  A    between atoms: C_31  and  C_32
REMARK   16  A    between atoms: C_31  and  C_33
REMARK   17  A    between atoms: C_31  and  C_34
REMARK                            x       y       z     vdW  Elec       q    Type
REMARK                         _______ _______ _______ _____ _____    ______ ____
ROOT
ATOM      1  C   UNL     1       8.555  10.867  18.560  0.00  0.00    +0.000 C 
ENDROOT
BRANCH   1   3
ATOM      2  N   UNL     1       8.579  13.314  18.576  0.00  0.00    +0.000 N 
ATOM      3  C   UNL     1       8.218  12.190  17.871  0.00  0.00    +0.000 C 
ATOM      4  O   UNL     1       7.649  12.243  16.783  0.00  0.00    +0.000 OA
ATOM      5  H   UNL     1       9.322  13.210  19.254  0.00  0.00    +0.000 HD
BRANCH   2   6
ATOM      6  C   UNL     1       8.330  14.682  18.077  0.00  0.00    +0.000 C 
BRANCH   6   9
ATOM      7  C   UNL     1      11.066  17.198  17.138  0.00  0.00    +0.000 C 
ATOM      8  N   UNL     1       9.945  16.297  17.129  0.00  0.00    +0.000 N 
ATOM      9  C   UNL     1       9.622  15.541  18.236  0.00  0.00    +0.000 C 
ATOM     10  O   UNL     1      10.275  15.620  19.274  0.00  0.00    +0.000 OA
ATOM     11  H   UNL     1       9.299  16.309  16.340  0.00  0.00    +0.000 HD
ENDBRANCH   6   9
BRANCH   6  12
ATOM     12  C   UNL     1       7.044  15.303  18.728  0.00  0.00    +0.000 C 
ATOM     13  C   UNL     1       6.928  14.888  20.212  0.00  0.00    +0.000 C 
ATOM     14  C   UNL     1       7.144  16.847  18.701  0.00  0.00    +0.000 C 
ATOM     15  C   UNL     1       5.750  14.903  17.993  0.00  0.00    +0.000 C 
ENDBRANCH   6  12
ENDBRANCH   2   6
ENDBRANCH   1   3
BRANCH   1  16
ATOM     16  C   UNL     1       8.306   9.713  17.572  0.00  0.00    +0.000 C 
BRANCH  16  17
ATOM     17  C   UNL     1       8.198   8.339  18.255  0.00  0.00    +0.000 C 
BRANCH  17  18
ATOM     18  C   UNL     1       7.788   7.201  17.318  0.00  0.00    +0.000 C 
BRANCH  18  19
ATOM     19  C   UNL     1       6.537   6.458  17.720  0.00  0.00    +0.000 A 
ATOM     20  C   UNL     1       6.585   5.261  18.431  0.00  0.00    +0.000 A 
ATOM     21  C   UNL     1       5.399   4.628  18.835  0.00  0.00    +0.000 A 
ATOM     22  C   UNL     1       4.121   5.179  18.590  0.00  0.00    +0.000 A 
ATOM     23  C   UNL     1       4.090   6.429  17.917  0.00  0.00    +0.000 A 
ATOM     24  C   UNL     1       2.870   7.301  17.746  0.00  0.00    +0.000 C 
ATOM     25  C   UNL     1       5.287   7.010  17.442  0.00  0.00    +0.000 A 
BRANCH  22  26
ATOM     26  C   UNL     1       2.899   4.446  19.032  0.00  0.00    +0.000 A 
ATOM     27  C   UNL     1       2.188   3.590  18.169  0.00  0.00    +0.000 A 
ATOM     28  C   UNL     1       1.063   2.875  18.605  0.00  0.00    +0.000 A 
ATOM     29  C   UNL     1       0.643   2.971  19.928  0.00  0.00    +0.000 A 
ATOM     30  C   UNL     1       1.306   3.828  20.795  0.00  0.00    +0.000 A 
ATOM     31  C   UNL     1       2.387   4.587  20.334  0.00  0.00    +0.000 A 
ENDBRANCH  22  26
ENDBRANCH  18  19
ENDBRANCH  17  18
ENDBRANCH  16  17
ENDBRANCH   1  16
BRANCH   1  32
ATOM     32  C   UNL     1      10.019  10.900  19.039  0.00  0.00    +0.000 C 
BRANCH  32  33
ATOM     33  C   UNL     1      10.174  11.575  20.374  0.00  0.00    +0.000 C 
ATOM     34  O   UNL     1      10.987  12.485  20.585  0.00  0.00    +0.000 OA
ATOM     35  N   UNL     1       9.250  11.157  21.315  0.00  0.00    +0.000 N 
ATOM     36  H   UNL     1       8.878  10.213  21.290  0.00  0.00    +0.000 HD
BRANCH  35  37
ATOM     37  O   UNL     1       9.394  11.751  22.598  0.00  0.00    +0.000 OA
ATOM     38  H   UNL     1       9.090  12.672  22.445  0.00  0.00    +0.000 HD
ENDBRANCH  35  37
ENDBRANCH  32  33
ENDBRANCH   1  32
TORSDOF 12
ENDMDL
MODEL 8
REMARK VINA RESULT:      -7.8      2.120      3.167
REMARK  Name = 
REMARK  17 active torsions:
REMARK  status: ('A' for Active; 'I' for Inactive)
REMARK    1  A    between atoms: C_1  and  N_2
REMARK    2  A    between atoms: C_3  and  C_5
REMARK    3  A    between atoms: C_5  and  N_6
REMARK    4  A    between atoms: C_5  and  C_31
REMARK    5  A    between atoms: C_7  and  C_9
REMARK    6  A    between atoms: C_9  and  C_10
REMARK    7  A    between atoms: C_9  and  C_26
REMARK    8  A    between atoms: C_10  and  C_11
REMARK    9  A    between atoms: C_11  and  C_12
REMARK   10  A    between atoms: C_12  and  C_13
REMARK   11  A    between atoms: C_16  and  C_17
REMARK   12  A    between atoms: C_23  and  C_24
REMARK   13  A    between atoms: C_26  and  C_27
REMARK   14  A    between atoms: N_29  and  O_30
REMARK   15  A    between atoms: C_31  and  C_32
REMARK   16  A    between atoms: C_31  and  C_33
REMARK   17  A    between atoms: C_31  and  C_34
REMARK                            x       y       z     vdW  Elec       q    Type
REMARK                         _______ _______ _______ _____ _____    ______ ____
ROOT
ATOM      1  C   UNL     1       6.785   6.524  16.622  0.00  0.00    +0.000 C 
ENDROOT
BRANCH   1   3
ATOM      2  N   UNL     1       4.711   5.756  17.668  0.00  0.00    +0.000 N 
ATOM      3  C   UNL     1       5.256   6.518  16.663  0.00  0.00    +0.000 C 
ATOM      4  O   UNL     1       4.570   7.129  15.846  0.00  0.00    +0.000 OA
ATOM      5  H   UNL     1       5.293   5.582  18.477  0.00  0.00    +0.000 HD
BRANCH   2   6
ATOM      6  C   UNL     1       3.253   5.620  17.865  0.00  0.00    +0.000 C 
BRANCH   6   9
ATOM      7  C   UNL     1       1.661   9.017  18.655  0.00  0.00    +0.000 C 
ATOM      8  N   UNL     1       2.246   7.874  18.006  0.00  0.00    +0.000 N 
ATOM      9  C   UNL     1       2.728   6.806  18.732  0.00  0.00    +0.000 C 
ATOM     10  O   UNL     1       2.663   6.787  19.959  0.00  0.00    +0.000 OA
ATOM     11  H   UNL     1       2.190   7.790  16.992  0.00  0.00    +0.000 HD
ENDBRANCH   6   9
BRANCH   6  12
ATOM     12  C   UNL     1       2.879   4.195  18.405  0.00  0.00    +0.000 C 
ATOM     13  C   UNL     1       1.372   4.115  18.735  0.00  0.00    +0.000 C 
ATOM     14  C   UNL     1       3.157   3.137  17.312  0.00  0.00    +0.000 C 
ATOM     15  C   UNL     1       3.688   3.801  19.657  0.00  0.00    +0.000 C 
ENDBRANCH   6  12
ENDBRANCH   2   6
ENDBRANCH   1   3
BRANCH   1  16
ATOM     16  C   UNL     1       7.315   7.198  17.902  0.00  0.00    +0.000 C 
BRANCH  16  17
ATOM     17  C   UNL     1       7.978   8.561  17.642  0.00  0.00    +0.000 C 
BRANCH  17  18
ATOM     18  C   UNL     1       8.828   9.079  18.804  0.00  0.00    +0.000 C 
BRANCH  18  19
ATOM     19  C   UNL     1       9.232  10.530  18.708  0.00  0.00    +0.000 A 
ATOM     20  C   UNL     1      10.528  10.956  18.986  0.00  0.00    +0.000 A 
ATOM     21  C   UNL     1      10.880  12.306  18.831  0.00  0.00    +0.000 A 
ATOM     22  C   UNL     1       9.973  13.279  18.351  0.00  0.00    +0.000 A 
ATOM     23  C   UNL     1       8.673  12.818  18.014  0.00  0.00    +0.000 A 
ATOM     24  C   UNL     1       7.622  13.620  17.286  0.00  0.00    +0.000 C 
ATOM     25  C   UNL     1       8.310  11.475  18.257  0.00  0.00    +0.000 A 
BRANCH  22  26
ATOM     26  C   UNL     1      10.407  14.701  18.225  0.00  0.00    +0.000 A 
ATOM     27  C   UNL     1      11.099  15.172  17.093  0.00  0.00    +0.000 A 
ATOM     28  C   UNL     1      11.468  16.520  16.965  0.00  0.00    +0.000 A 
ATOM     29  C   UNL     1      11.120  17.437  17.952  0.00  0.00    +0.000 A 
ATOM     30  C   UNL     1      10.462  16.997  19.092  0.00  0.00    +0.000 A 
ATOM     31  C   UNL     1      10.157  15.640  19.241  0.00  0.00    +0.000 A 
ENDBRANCH  22  26
ENDBRANCH  18  19
ENDBRANCH  17  18
ENDBRANCH  16  17
ENDBRANCH   1  16
BRANCH   1  32
ATOM     32  C   UNL     1       7.297   5.078  16.487  0.00  0.00    +0.000 C 
BRANCH  32  33
ATOM     33  C   UNL     1       6.991   4.481  15.141  0.00  0.00    +0.000 C 
ATOM     34  O   UNL     1       6.252   3.499  14.984  0.00  0.00    +0.000 OA
ATOM     35  N   UNL     1       7.527   5.196  14.084  0.00  0.00    +0.000 N 
ATOM     36  H   UNL     1       8.391   5.716  14.198  0.00  0.00    +0.000 HD
BRANCH  35  37
ATOM     37  O   UNL     1       7.285   4.636  12.801  0.00  0.00    +0.000 OA
ATOM     38  H   UNL     1       6.341   4.370  12.856  0.00  0.00    +0.000 HD
ENDBRANCH  35  37
ENDBRANCH  32  33
ENDBRANCH   1  32
TORSDOF 12
ENDMDL
MODEL 9
REMARK VINA RESULT:      -7.8      5.586      6.933
REMARK  Name = 
REMARK  17 active torsions:
REMARK  status: ('A' for Active; 'I' for Inactive)
REMARK    1  A    between atoms: C_1  and  N_2
REMARK    2  A    between atoms: C_3  and  C_5
REMARK    3  A    between atoms: C_5  and  N_6
REMARK    4  A    between atoms: C_5  and  C_31
REMARK    5  A    between atoms: C_7  and  C_9
REMARK    6  A    between atoms: C_9  and  C_10
REMARK    7  A    between atoms: C_9  and  C_26
REMARK    8  A    between atoms: C_10  and  C_11
REMARK    9  A    between atoms: C_11  and  C_12
REMARK   10  A    between atoms: C_12  and  C_13
REMARK   11  A    between atoms: C_16  and  C_17
REMARK   12  A    between atoms: C_23  and  C_24
REMARK   13  A    between atoms: C_26  and  C_27
REMARK   14  A    between atoms: N_29  and  O_30
REMARK   15  A    between atoms: C_31  and  C_32
REMARK   16  A    between atoms: C_31  and  C_33
REMARK   17  A    between atoms: C_31  and  C_34
REMARK                            x       y       z     vdW  Elec       q    Type
REMARK                         _______ _______ _______ _____ _____    ______ ____
ROOT
ATOM      1  C   UNL     1       4.150   6.260  17.195  0.00  0.00    +0.000 C 
ENDROOT
BRANCH   1   3
ATOM      2  N   UNL     1       3.343   4.400  18.565  0.00  0.00    +0.000 N 
ATOM      3  C   UNL     1       4.232   5.445  18.487  0.00  0.00    +0.000 C 
ATOM      4  O   UNL     1       5.017   5.719  19.392  0.00  0.00    +0.000 OA
ATOM      5  H   UNL     1       2.995   4.029  17.691  0.00  0.00    +0.000 HD
BRANCH   2   6
ATOM      6  C   UNL     1       3.266   3.505  19.738  0.00  0.00    +0.000 C 
BRANCH   6   9
ATOM      7  C   UNL     1       5.449   0.397  20.267  0.00  0.00    +0.000 C 
ATOM      8  N   UNL     1       4.794   1.673  20.388  0.00  0.00    +0.000 N 
ATOM      9  C   UNL     1       3.952   2.144  19.404  0.00  0.00    +0.000 C 
ATOM     10  O   UNL     1       3.721   1.485  18.393  0.00  0.00    +0.000 OA
ATOM     11  H   UNL     1       4.848   2.181  21.270  0.00  0.00    +0.000 HD
ENDBRANCH   6   9
BRANCH   6  12
ATOM     12  C   UNL     1       1.795   3.386  20.271  0.00  0.00    +0.000 C 
ATOM     13  C   UNL     1       1.755   2.570  21.583  0.00  0.00    +0.000 C 
ATOM     14  C   UNL     1       1.249   4.794  20.602  0.00  0.00    +0.000 C 
ATOM     15  C   UNL     1       0.840   2.740  19.249  0.00  0.00    +0.000 C 
ENDBRANCH   6  12
ENDBRANCH   2   6
ENDBRANCH   1   3
BRANCH   1  16
ATOM     16  C   UNL     1       3.755   7.707  17.543  0.00  0.00    +0.000 C 
BRANCH  16  17
ATOM     17  C   UNL     1       2.272   7.858  17.924  0.00  0.00    +0.000 C 
BRANCH  17  18
ATOM     18  C   UNL     1       1.999   7.789  19.427  0.00  0.00    +0.000 C 
BRANCH  18  19
ATOM     19  C   UNL     1       1.260   8.974  20.000  0.00  0.00    +0.000 A 
ATOM     20  C   UNL     1       0.819  10.026  19.202  0.00  0.00    +0.000 A 
ATOM     21  C   UNL     1       0.085  11.084  19.763  0.00  0.00    +0.000 A 
ATOM     22  C   UNL     1      -0.278  11.118  21.128  0.00  0.00    +0.000 A 
ATOM     23  C   UNL     1       0.127  10.009  21.917  0.00  0.00    +0.000 A 
ATOM     24  C   UNL     1      -0.330   9.725  23.328  0.00  0.00    +0.000 C 
ATOM     25  C   UNL     1       0.937   8.996  21.357  0.00  0.00    +0.000 A 
BRANCH  22  26
ATOM     26  C   UNL     1      -1.045  12.280  21.665  0.00  0.00    +0.000 A 
ATOM     27  C   UNL     1      -0.409  13.363  22.302  0.00  0.00    +0.000 A 
ATOM     28  C   UNL     1      -1.134  14.470  22.768  0.00  0.00    +0.000 A 
ATOM     29  C   UNL     1      -2.510  14.536  22.574  0.00  0.00    +0.000 A 
ATOM     30  C   UNL     1      -3.168  13.472  21.974  0.00  0.00    +0.000 A 
ATOM     31  C   UNL     1      -2.446  12.343  21.572  0.00  0.00    +0.000 A 
ENDBRANCH  22  26
ENDBRANCH  18  19
ENDBRANCH  17  18
ENDBRANCH  16  17
ENDBRANCH   1  16
BRANCH   1  32
ATOM     32  C   UNL     1       5.507   6.201  16.468  0.00  0.00    +0.000 C 
BRANCH  32  33
ATOM     33  C   UNL     1       6.263   4.933  16.759  0.00  0.00    +0.000 C 
ATOM     34  O   UNL     1       5.850   3.808  16.447  0.00  0.00    +0.000 OA
ATOM     35  N   UNL     1       7.513   5.150  17.314  0.00  0.00    +0.000 N 
ATOM     36  H   UNL     1       7.684   5.961  17.899  0.00  0.00    +0.000 HD
BRANCH  35  37
ATOM     37  O   UNL     1       8.236   3.970  17.633  0.00  0.00    +0.000 OA
ATOM     38  H   UNL     1       7.601   3.257  17.401  0.00  0.00    +0.000 HD
ENDBRANCH  35  37
ENDBRANCH  32  33
ENDBRANCH   1  32
TORSDOF 12
ENDMDL
