MODEL 1
REMARK VINA RESULT:      -7.1      0.000      0.000
REMARK  Name = 
REMARK  6 active torsions:
REMARK  status: ('A' for Active; 'I' for Inactive)
REMARK    1  A    between atoms: C_1  and  C_2
REMARK    2  A    between atoms: C_2  and  O_3
REMARK    3  A    between atoms: O_3  and  C_4
REMARK    4  A    between atoms: C_4  and  C_6
REMARK    5  A    between atoms: C_6  and  S_7
REMARK    6  A    between atoms: S_7  and  C_8
REMARK                            x       y       z     vdW  Elec       q    Type
REMARK                         _______ _______ _______ _____ _____    ______ ____
ROOT
ATOM      1  C   UNL     1       3.788   5.025  18.033  0.00  0.00    +0.000 A 
ATOM      2  N   UNL     1       3.433   4.610  19.269  0.00  0.00    +0.000 NA
ATOM      3  C   UNL     1       2.733   5.440  20.059  0.00  0.00    +0.000 A 
ATOM      4  N   UNL     1       2.400   4.975  21.324  0.00  0.00    +0.000 N 
ATOM      5  C   UNL     1       2.397   6.718  19.596  0.00  0.00    +0.000 A 
ATOM      6  C   UNL     1       1.711   7.829  20.148  0.00  0.00    +0.000 A 
ATOM      7  C   UNL     1       1.612   8.877  19.274  0.00  0.00    +0.000 A 
ATOM      8  S   UNL     1       2.339   8.597  17.794  0.00  0.00    +0.000 S 
ATOM      9  C   UNL     1       2.809   7.016  18.299  0.00  0.00    +0.000 A 
ATOM     10  N   UNL     1       3.508   6.211  17.484  0.00  0.00    +0.000 NA
ATOM     11  C   UNL     1       0.868  10.042  19.811  0.00  0.00    +0.000 C 
ATOM     12  C   UNL     1       0.192   9.399  21.063  0.00  0.00    +0.000 C 
ATOM     13  C   UNL     1       1.053   8.155  21.440  0.00  0.00    +0.000 C 
ATOM     14  H   UNL     1       2.976   4.182  21.586  0.00  0.00    +0.000 HD
ATOM     15  H   UNL     1       2.292   5.693  22.028  0.00  0.00    +0.000 HD
ENDROOT
BRANCH   1  16
ATOM     16  S   UNL     1       4.825   3.932  17.078  0.00  0.00    +0.000 S 
BRANCH  16  17
ATOM     17  C   UNL     1       5.689   5.145  16.021  0.00  0.00    +0.000 C 
BRANCH  17  18
ATOM     18  C   UNL     1       7.140   5.285  16.419  0.00  0.00    +0.000 C 
ATOM     19  O   UNL     1       7.879   4.364  16.748  0.00  0.00    +0.000 OA
BRANCH  18  20
ATOM     20  O   UNL     1       7.521   6.598  16.373  0.00  0.00    +0.000 OA
BRANCH  20  22
ATOM     21  C   UNL     1       8.083   8.490  17.814  0.00  0.00    +0.000 C 
ATOM     22  C   UNL     1       7.092   7.390  17.489  0.00  0.00    +0.000 C 
ENDBRANCH  20  22
ENDBRANCH  18  20
ENDBRANCH  17  18
ENDBRANCH  16  17
ENDBRANCH   1  16
TORSDOF 5
ENDMDL
MODEL 2
REMARK VINA RESULT:      -6.9      3.565      5.162
REMARK  Name = 
REMARK  6 active torsions:
REMARK  status: ('A' for Active; 'I' for Inactive)
REMARK    1  A    between atoms: C_1  and  C_2
REMARK    2  A    between atoms: C_2  and  O_3
REMARK    3  A    between atoms: O_3  and  C_4
REMARK    4  A    between atoms: C_4  and  C_6
REMARK    5  A    between atoms: C_6  and  S_7
REMARK    6  A    between atoms: S_7  and  C_8
REMARK                            x       y       z     vdW  Elec       q    Type
REMARK                         _______ _______ _______ _____ _____    ______ ____
ROOT
ATOM      1  C   UNL     1       5.404   4.833  16.097  0.00  0.00    +0.000 A 
ATOM      2  N   UNL     1       4.911   5.994  16.582  0.00  0.00    +0.000 NA
ATOM      3  C   UNL     1       3.968   5.953  17.537  0.00  0.00    +0.000 A 
ATOM      4  N   UNL     1       3.484   7.171  17.997  0.00  0.00    +0.000 N 
ATOM      5  C   UNL     1       3.508   4.716  18.003  0.00  0.00    +0.000 A 
ATOM      6  C   UNL     1       2.537   4.308  18.953  0.00  0.00    +0.000 A 
ATOM      7  C   UNL     1       2.461   2.948  19.079  0.00  0.00    +0.000 A 
ATOM      8  S   UNL     1       3.504   2.113  18.074  0.00  0.00    +0.000 S 
ATOM      9  C   UNL     1       4.109   3.596  17.433  0.00  0.00    +0.000 A 
ATOM     10  N   UNL     1       5.051   3.601  16.478  0.00  0.00    +0.000 NA
ATOM     11  C   UNL     1       1.479   2.491  20.092  0.00  0.00    +0.000 C 
ATOM     12  C   UNL     1       1.206   3.827  20.851  0.00  0.00    +0.000 C 
ATOM     13  C   UNL     1       1.578   4.978  19.867  0.00  0.00    +0.000 C 
ATOM     14  H   UNL     1       3.699   7.919  17.347  0.00  0.00    +0.000 HD
ATOM     15  H   UNL     1       2.534   7.148  18.345  0.00  0.00    +0.000 HD
ENDROOT
BRANCH   1  16
ATOM     16  S   UNL     1       6.557   4.946  14.741  0.00  0.00    +0.000 S 
BRANCH  16  17
ATOM     17  C   UNL     1       6.011   3.526  13.731  0.00  0.00    +0.000 C 
BRANCH  17  18
ATOM     18  C   UNL     1       6.443   3.679  12.290  0.00  0.00    +0.000 C 
ATOM     19  O   UNL     1       7.373   4.373  11.897  0.00  0.00    +0.000 OA
BRANCH  18  20
ATOM     20  O   UNL     1       5.637   2.937  11.472  0.00  0.00    +0.000 OA
BRANCH  20  22
ATOM     21  C   UNL     1       3.574   3.656  10.377  0.00  0.00    +0.000 C 
ATOM     22  C   UNL     1       4.231   3.157  11.648  0.00  0.00    +0.000 C 
ENDBRANCH  20  22
ENDBRANCH  18  20
ENDBRANCH  17  18
ENDBRANCH  16  17
ENDBRANCH   1  16
TORSDOF 5
ENDMDL
MODEL 3
REMARK VINA RESULT:      -6.9      2.792      3.760
REMARK  Name = 
REMARK  6 active torsions:
REMARK  status: ('A' for Active; 'I' for Inactive)
REMARK    1  A    between atoms: C_1  and  C_2
REMARK    2  A    between atoms: C_2  and  O_3
REMARK    3  A    between atoms: O_3  and  C_4
REMARK    4  A    between atoms: C_4  and  C_6
REMARK    5  A    between atoms: C_6  and  S_7
REMARK    6  A    between atoms: S_7  and  C_8
REMARK                            x       y       z     vdW  Elec       q    Type
REMARK                         _______ _______ _______ _____ _____    ______ ____
ROOT
ATOM      1  C   UNL     1       4.594   4.999  16.339  0.00  0.00    +0.000 A 
ATOM      2  N   UNL     1       4.120   6.078  17.001  0.00  0.00    +0.000 NA
ATOM      3  C   UNL     1       3.393   5.893  18.114  0.00  0.00    +0.000 A 
ATOM      4  N   UNL     1       2.919   7.030  18.755  0.00  0.00    +0.000 N 
ATOM      5  C   UNL     1       3.129   4.592  18.560  0.00  0.00    +0.000 A 
ATOM      6  C   UNL     1       2.400   4.039  19.643  0.00  0.00    +0.000 A 
ATOM      7  C   UNL     1       2.454   2.672  19.674  0.00  0.00    +0.000 A 
ATOM      8  S   UNL     1       3.335   2.000  18.422  0.00  0.00    +0.000 S 
ATOM      9  C   UNL     1       3.687   3.568  17.797  0.00  0.00    +0.000 A 
ATOM     10  N   UNL     1       4.417   3.719  16.681  0.00  0.00    +0.000 NA
ATOM     11  C   UNL     1       1.730   2.066  20.817  0.00  0.00    +0.000 C 
ATOM     12  C   UNL     1       1.514   3.321  21.719  0.00  0.00    +0.000 C 
ATOM     13  C   UNL     1       1.594   4.561  20.777  0.00  0.00    +0.000 C 
ATOM     14  H   UNL     1       2.944   7.834  18.137  0.00  0.00    +0.000 HD
ATOM     15  H   UNL     1       2.062   6.900  19.276  0.00  0.00    +0.000 HD
ENDROOT
BRANCH   1  16
ATOM     16  S   UNL     1       5.442   5.300  14.800  0.00  0.00    +0.000 S 
BRANCH  16  17
ATOM     17  C   UNL     1       7.050   4.511  15.155  0.00  0.00    +0.000 C 
BRANCH  17  18
ATOM     18  C   UNL     1       7.641   5.027  16.447  0.00  0.00    +0.000 C 
ATOM     19  O   UNL     1       8.048   4.330  17.370  0.00  0.00    +0.000 OA
BRANCH  18  20
ATOM     20  O   UNL     1       7.650   6.394  16.453  0.00  0.00    +0.000 OA
BRANCH  20  22
ATOM     21  C   UNL     1       7.929   8.449  17.747  0.00  0.00    +0.000 C 
ATOM     22  C   UNL     1       7.509   6.993  17.749  0.00  0.00    +0.000 C 
ENDBRANCH  20  22
ENDBRANCH  18  20
ENDBRANCH  17  18
ENDBRANCH  16  17
ENDBRANCH   1  16
TORSDOF 5
ENDMDL
MODEL 4
REMARK VINA RESULT:      -6.8      1.025      1.911
REMARK  Name = 
REMARK  6 active torsions:
REMARK  status: ('A' for Active; 'I' for Inactive)
REMARK    1  A    between atoms: C_1  and  C_2
REMARK    2  A    between atoms: C_2  and  O_3
REMARK    3  A    between atoms: O_3  and  C_4
REMARK    4  A    between atoms: C_4  and  C_6
REMARK    5  A    between atoms: C_6  and  S_7
REMARK    6  A    between atoms: S_7  and  C_8
REMARK                            x       y       z     vdW  Elec       q    Type
REMARK                         _______ _______ _______ _____ _____    ______ ____
ROOT
ATOM      1  C   UNL     1       3.829   5.122  18.085  0.00  0.00    +0.000 A 
ATOM      2  N   UNL     1       3.437   4.693  19.305  0.00  0.00    +0.000 NA
ATOM      3  C   UNL     1       2.702   5.508  20.078  0.00  0.00    +0.000 A 
ATOM      4  N   UNL     1       2.330   5.027  21.327  0.00  0.00    +0.000 N 
ATOM      5  C   UNL     1       2.367   6.785  19.615  0.00  0.00    +0.000 A 
ATOM      6  C   UNL     1       1.651   7.885  20.154  0.00  0.00    +0.000 A 
ATOM      7  C   UNL     1       1.570   8.939  19.285  0.00  0.00    +0.000 A 
ATOM      8  S   UNL     1       2.349   8.681  17.829  0.00  0.00    +0.000 S 
ATOM      9  C   UNL     1       2.820   7.101  18.335  0.00  0.00    +0.000 A 
ATOM     10  N   UNL     1       3.555   6.311  17.538  0.00  0.00    +0.000 NA
ATOM     11  C   UNL     1       0.796  10.091  19.808  0.00  0.00    +0.000 C 
ATOM     12  C   UNL     1       0.085   9.430  21.030  0.00  0.00    +0.000 C 
ATOM     13  C   UNL     1       0.946   8.191  21.425  0.00  0.00    +0.000 C 
ATOM     14  H   UNL     1       2.906   4.238  21.601  0.00  0.00    +0.000 HD
ATOM     15  H   UNL     1       2.191   5.737  22.033  0.00  0.00    +0.000 HD
ENDROOT
BRANCH   1  16
ATOM     16  S   UNL     1       4.909   4.050  17.157  0.00  0.00    +0.000 S 
BRANCH  16  17
ATOM     17  C   UNL     1       6.536   4.698  17.676  0.00  0.00    +0.000 C 
BRANCH  17  18
ATOM     18  C   UNL     1       7.222   5.429  16.545  0.00  0.00    +0.000 C 
ATOM     19  O   UNL     1       7.463   6.630  16.517  0.00  0.00    +0.000 OA
BRANCH  18  20
ATOM     20  O   UNL     1       7.535   4.558  15.537  0.00  0.00    +0.000 OA
BRANCH  20  22
ATOM     21  C   UNL     1       6.147   3.875  13.645  0.00  0.00    +0.000 C 
ATOM     22  C   UNL     1       7.050   4.935  14.241  0.00  0.00    +0.000 C 
ENDBRANCH  20  22
ENDBRANCH  18  20
ENDBRANCH  17  18
ENDBRANCH  16  17
ENDBRANCH   1  16
TORSDOF 5
ENDMDL
MODEL 5
REMARK VINA RESULT:      -6.8      3.639      5.425
REMARK  Name = 
REMARK  6 active torsions:
REMARK  status: ('A' for Active; 'I' for Inactive)
REMARK    1  A    between atoms: C_1  and  C_2
REMARK    2  A    between atoms: C_2  and  O_3
REMARK    3  A    between atoms: O_3  and  C_4
REMARK    4  A    between atoms: C_4  and  C_6
REMARK    5  A    between atoms: C_6  and  S_7
REMARK    6  A    between atoms: S_7  and  C_8
REMARK                            x       y       z     vdW  Elec       q    Type
REMARK                         _______ _______ _______ _____ _____    ______ ____
ROOT
ATOM      1  C   UNL     1       5.383   4.519  16.034  0.00  0.00    +0.000 A 
ATOM      2  N   UNL     1       4.940   5.724  16.458  0.00  0.00    +0.000 NA
ATOM      3  C   UNL     1       4.020   5.773  17.435  0.00  0.00    +0.000 A 
ATOM      4  N   UNL     1       3.587   7.032  17.831  0.00  0.00    +0.000 N 
ATOM      5  C   UNL     1       3.531   4.583  17.986  0.00  0.00    +0.000 A 
ATOM      6  C   UNL     1       2.571   4.266  18.980  0.00  0.00    +0.000 A 
ATOM      7  C   UNL     1       2.453   2.919  19.191  0.00  0.00    +0.000 A 
ATOM      8  S   UNL     1       3.443   1.990  18.215  0.00  0.00    +0.000 S 
ATOM      9  C   UNL     1       4.081   3.410  17.472  0.00  0.00    +0.000 A 
ATOM     10  N   UNL     1       5.000   3.326  16.497  0.00  0.00    +0.000 NA
ATOM     11  C   UNL     1       1.481   2.558  20.251  0.00  0.00    +0.000 C 
ATOM     12  C   UNL     1       1.271   3.946  20.934  0.00  0.00    +0.000 C 
ATOM     13  C   UNL     1       1.656   5.022  19.873  0.00  0.00    +0.000 C 
ATOM     14  H   UNL     1       3.811   7.731  17.131  0.00  0.00    +0.000 HD
ATOM     15  H   UNL     1       2.646   7.062  18.200  0.00  0.00    +0.000 HD
ENDROOT
BRANCH   1  16
ATOM     16  S   UNL     1       6.506   4.511  14.649  0.00  0.00    +0.000 S 
BRANCH  16  17
ATOM     17  C   UNL     1       5.461   3.700  13.389  0.00  0.00    +0.000 C 
BRANCH  17  18
ATOM     18  C   UNL     1       6.275   3.291  12.182  0.00  0.00    +0.000 C 
ATOM     19  O   UNL     1       7.301   3.839  11.797  0.00  0.00    +0.000 OA
BRANCH  18  20
ATOM     20  O   UNL     1       5.698   2.217  11.563  0.00  0.00    +0.000 OA
BRANCH  20  22
ATOM     21  C   UNL     1       6.100  -0.178  11.289  0.00  0.00    +0.000 C 
ATOM     22  C   UNL     1       6.620   1.230  11.082  0.00  0.00    +0.000 C 
ENDBRANCH  20  22
ENDBRANCH  18  20
ENDBRANCH  17  18
ENDBRANCH  16  17
ENDBRANCH   1  16
TORSDOF 5
ENDMDL
MODEL 6
REMARK VINA RESULT:      -6.8      1.555      2.506
REMARK  Name = 
REMARK  6 active torsions:
REMARK  status: ('A' for Active; 'I' for Inactive)
REMARK    1  A    between atoms: C_1  and  C_2
REMARK    2  A    between atoms: C_2  and  O_3
REMARK    3  A    between atoms: O_3  and  C_4
REMARK    4  A    between atoms: C_4  and  C_6
REMARK    5  A    between atoms: C_6  and  S_7
REMARK    6  A    between atoms: S_7  and  C_8
REMARK                            x       y       z     vdW  Elec       q    Type
REMARK                         _______ _______ _______ _____ _____    ______ ____
ROOT
ATOM      1  C   UNL     1       3.791   5.187  17.880  0.00  0.00    +0.000 A 
ATOM      2  N   UNL     1       3.465   4.716  19.104  0.00  0.00    +0.000 NA
ATOM      3  C   UNL     1       2.762   5.499  19.938  0.00  0.00    +0.000 A 
ATOM      4  N   UNL     1       2.458   4.976  21.188  0.00  0.00    +0.000 N 
ATOM      5  C   UNL     1       2.392   6.787  19.532  0.00  0.00    +0.000 A 
ATOM      6  C   UNL     1       1.694   7.861  20.139  0.00  0.00    +0.000 A 
ATOM      7  C   UNL     1       1.560   8.941  19.309  0.00  0.00    +0.000 A 
ATOM      8  S   UNL     1       2.268   8.736  17.809  0.00  0.00    +0.000 S 
ATOM      9  C   UNL     1       2.778   7.146  18.242  0.00  0.00    +0.000 A 
ATOM     10  N   UNL     1       3.479   6.388  17.384  0.00  0.00    +0.000 NA
ATOM     11  C   UNL     1       0.802  10.068  19.905  0.00  0.00    +0.000 C 
ATOM     12  C   UNL     1       0.160   9.362  21.140  0.00  0.00    +0.000 C 
ATOM     13  C   UNL     1       1.051   8.121  21.453  0.00  0.00    +0.000 C 
ATOM     14  H   UNL     1       3.054   4.186  21.408  0.00  0.00    +0.000 HD
ATOM     15  H   UNL     1       2.348   5.664  21.922  0.00  0.00    +0.000 HD
ENDROOT
BRANCH   1  16
ATOM     16  S   UNL     1       4.833   4.155  16.866  0.00  0.00    +0.000 S 
BRANCH  16  17
ATOM     17  C   UNL     1       6.006   5.402  16.230  0.00  0.00    +0.000 C 
BRANCH  17  18
ATOM     18  C   UNL     1       6.636   4.952  14.931  0.00  0.00    +0.000 C 
ATOM     19  O   UNL     1       7.683   5.382  14.462  0.00  0.00    +0.000 OA
BRANCH  18  20
ATOM     20  O   UNL     1       5.863   3.993  14.337  0.00  0.00    +0.000 OA
BRANCH  20  22
ATOM     21  C   UNL     1       5.085   3.399  12.098  0.00  0.00    +0.000 C 
ATOM     22  C   UNL     1       6.272   3.624  13.012  0.00  0.00    +0.000 C 
ENDBRANCH  20  22
ENDBRANCH  18  20
ENDBRANCH  17  18
ENDBRANCH  16  17
ENDBRANCH   1  16
TORSDOF 5
ENDMDL
MODEL 7
REMARK VINA RESULT:      -6.7      1.051      1.069
REMARK  Name = 
REMARK  6 active torsions:
REMARK  status: ('A' for Active; 'I' for Inactive)
REMARK    1  A    between atoms: C_1  and  C_2
REMARK    2  A    between atoms: C_2  and  O_3
REMARK    3  A    between atoms: O_3  and  C_4
REMARK    4  A    between atoms: C_4  and  C_6
REMARK    5  A    between atoms: C_6  and  S_7
REMARK    6  A    between atoms: S_7  and  C_8
REMARK                            x       y       z     vdW  Elec       q    Type
REMARK                         _______ _______ _______ _____ _____    ______ ____
ROOT
ATOM      1  C   UNL     1       3.636   6.112  17.848  0.00  0.00    +0.000 A 
ATOM      2  N   UNL     1       3.333   5.543  19.035  0.00  0.00    +0.000 NA
ATOM      3  C   UNL     1       2.572   6.223  19.908  0.00  0.00    +0.000 A 
ATOM      4  N   UNL     1       2.294   5.603  21.120  0.00  0.00    +0.000 N 
ATOM      5  C   UNL     1       2.119   7.506  19.579  0.00  0.00    +0.000 A 
ATOM      6  C   UNL     1       1.344   8.490  20.244  0.00  0.00    +0.000 A 
ATOM      7  C   UNL     1       1.143   9.608  19.482  0.00  0.00    +0.000 A 
ATOM      8  S   UNL     1       1.875   9.547  17.980  0.00  0.00    +0.000 S 
ATOM      9  C   UNL     1       2.489   7.971  18.319  0.00  0.00    +0.000 A 
ATOM     10  N   UNL     1       3.247   7.318  17.424  0.00  0.00    +0.000 NA
ATOM     11  C   UNL     1       0.306  10.642  20.138  0.00  0.00    +0.000 C 
ATOM     12  C   UNL     1      -0.297   9.817  21.318  0.00  0.00    +0.000 C 
ATOM     13  C   UNL     1       0.675   8.622  21.564  0.00  0.00    +0.000 C 
ATOM     14  H   UNL     1       2.941   4.842  21.297  0.00  0.00    +0.000 HD
ATOM     15  H   UNL     1       2.132   6.233  21.894  0.00  0.00    +0.000 HD
ENDROOT
BRANCH   1  16
ATOM     16  S   UNL     1       4.754   5.219  16.784  0.00  0.00    +0.000 S 
BRANCH  16  17
ATOM     17  C   UNL     1       5.920   4.553  18.022  0.00  0.00    +0.000 C 
BRANCH  17  18
ATOM     18  C   UNL     1       7.343   4.956  17.709  0.00  0.00    +0.000 C 
ATOM     19  O   UNL     1       8.135   4.304  17.038  0.00  0.00    +0.000 OA
BRANCH  18  20
ATOM     20  O   UNL     1       7.635   6.159  18.290  0.00  0.00    +0.000 OA
BRANCH  20  22
ATOM     21  C   UNL     1       8.201   8.523  18.043  0.00  0.00    +0.000 C 
ATOM     22  C   UNL     1       7.622   7.281  17.397  0.00  0.00    +0.000 C 
ENDBRANCH  20  22
ENDBRANCH  18  20
ENDBRANCH  17  18
ENDBRANCH  16  17
ENDBRANCH   1  16
TORSDOF 5
ENDMDL
MODEL 8
REMARK VINA RESULT:      -6.6      3.014      4.634
REMARK  Name = 
REMARK  6 active torsions:
REMARK  status: ('A' for Active; 'I' for Inactive)
REMARK    1  A    between atoms: C_1  and  C_2
REMARK    2  A    between atoms: C_2  and  O_3
REMARK    3  A    between atoms: O_3  and  C_4
REMARK    4  A    between atoms: C_4  and  C_6
REMARK    5  A    between atoms: C_6  and  S_7
REMARK    6  A    between atoms: S_7  and  C_8
REMARK                            x       y       z     vdW  Elec       q    Type
REMARK                         _______ _______ _______ _____ _____    ______ ____
ROOT
ATOM      1  C   UNL     1       4.591   5.789  16.859  0.00  0.00    +0.000 A 
ATOM      2  N   UNL     1       4.055   6.665  17.737  0.00  0.00    +0.000 NA
ATOM      3  C   UNL     1       3.265   6.204  18.719  0.00  0.00    +0.000 A 
ATOM      4  N   UNL     1       2.729   7.142  19.591  0.00  0.00    +0.000 N 
ATOM      5  C   UNL     1       3.001   4.832  18.808  0.00  0.00    +0.000 A 
ATOM      6  C   UNL     1       2.219   4.021  19.670  0.00  0.00    +0.000 A 
ATOM      7  C   UNL     1       2.299   2.691  19.361  0.00  0.00    +0.000 A 
ATOM      8  S   UNL     1       3.270   2.358  18.042  0.00  0.00    +0.000 S 
ATOM      9  C   UNL     1       3.626   4.035  17.851  0.00  0.00    +0.000 A 
ATOM     10  N   UNL     1       4.421   4.463  16.859  0.00  0.00    +0.000 NA
ATOM     11  C   UNL     1       1.519   1.814  20.268  0.00  0.00    +0.000 C 
ATOM     12  C   UNL     1       1.222   2.803  21.438  0.00  0.00    +0.000 C 
ATOM     13  C   UNL     1       1.334   4.239  20.842  0.00  0.00    +0.000 C 
ATOM     14  H   UNL     1       2.774   8.075  19.196  0.00  0.00    +0.000 HD
ATOM     15  H   UNL     1       1.844   6.882  20.007  0.00  0.00    +0.000 HD
ENDROOT
BRANCH   1  16
ATOM     16  S   UNL     1       5.526   6.470  15.502  0.00  0.00    +0.000 S 
BRANCH  16  17
ATOM     17  C   UNL     1       6.852   5.223  15.361  0.00  0.00    +0.000 C 
BRANCH  17  18
ATOM     18  C   UNL     1       7.078   4.822  13.921  0.00  0.00    +0.000 C 
ATOM     19  O   UNL     1       7.804   5.407  13.126  0.00  0.00    +0.000 OA
BRANCH  18  20
ATOM     20  O   UNL     1       6.346   3.707  13.618  0.00  0.00    +0.000 OA
BRANCH  20  22
ATOM     21  C   UNL     1       4.844   3.234  11.749  0.00  0.00    +0.000 C 
ATOM     22  C   UNL     1       6.275   3.393  12.221  0.00  0.00    +0.000 C 
ENDBRANCH  20  22
ENDBRANCH  18  20
ENDBRANCH  17  18
ENDBRANCH  16  17
ENDBRANCH   1  16
TORSDOF 5
ENDMDL
MODEL 9
REMARK VINA RESULT:      -6.5      3.189      4.660
REMARK  Name = 
REMARK  6 active torsions:
REMARK  status: ('A' for Active; 'I' for Inactive)
REMARK    1  A    between atoms: C_1  and  C_2
REMARK    2  A    between atoms: C_2  and  O_3
REMARK    3  A    between atoms: O_3  and  C_4
REMARK    4  A    between atoms: C_4  and  C_6
REMARK    5  A    between atoms: C_6  and  S_7
REMARK    6  A    between atoms: S_7  and  C_8
REMARK                            x       y       z     vdW  Elec       q    Type
REMARK                         _______ _______ _______ _____ _____    ______ ____
ROOT
ATOM      1  C   UNL     1       5.296   4.781  15.955  0.00  0.00    +0.000 A 
ATOM      2  N   UNL     1       5.104   3.504  16.354  0.00  0.00    +0.000 NA
ATOM      3  C   UNL     1       4.295   3.262  17.397  0.00  0.00    +0.000 A 
ATOM      4  N   UNL     1       4.135   1.935  17.777  0.00  0.00    +0.000 N 
ATOM      5  C   UNL     1       3.677   4.331  18.058  0.00  0.00    +0.000 A 
ATOM      6  C   UNL     1       2.811   4.445  19.174  0.00  0.00    +0.000 A 
ATOM      7  C   UNL     1       2.449   5.740  19.432  0.00  0.00    +0.000 A 
ATOM      8  S   UNL     1       3.133   6.855  18.391  0.00  0.00    +0.000 S 
ATOM      9  C   UNL     1       3.946   5.596  17.538  0.00  0.00    +0.000 A 
ATOM     10  N   UNL     1       4.748   5.872  16.499  0.00  0.00    +0.000 NA
ATOM     11  C   UNL     1       1.513   5.888  20.573  0.00  0.00    +0.000 C 
ATOM     12  C   UNL     1       1.056   4.408  20.764  0.00  0.00    +0.000 C 
ATOM     13  C   UNL     1       2.174   3.516  20.142  0.00  0.00    +0.000 C 
ATOM     14  H   UNL     1       4.876   1.356  17.398  0.00  0.00    +0.000 HD
ATOM     15  H   UNL     1       3.923   1.795  18.756  0.00  0.00    +0.000 HD
ENDROOT
BRANCH   1  16
ATOM     16  S   UNL     1       6.479   5.053  14.649  0.00  0.00    +0.000 S 
BRANCH  16  17
ATOM     17  C   UNL     1       6.257   3.518  13.684  0.00  0.00    +0.000 C 
BRANCH  17  18
ATOM     18  C   UNL     1       6.553   3.743  12.219  0.00  0.00    +0.000 C 
ATOM     19  O   UNL     1       7.450   4.452  11.776  0.00  0.00    +0.000 OA
BRANCH  18  20
ATOM     20  O   UNL     1       5.668   3.047  11.443  0.00  0.00    +0.000 OA
BRANCH  20  22
ATOM     21  C   UNL     1       3.456   3.398  10.465  0.00  0.00    +0.000 C 
ATOM     22  C   UNL     1       4.286   3.300  11.729  0.00  0.00    +0.000 C 
ENDBRANCH  20  22
ENDBRANCH  18  20
ENDBRANCH  17  18
ENDBRANCH  16  17
ENDBRANCH   1  16
TORSDOF 5
ENDMDL
