MODEL 1
REMARK VINA RESULT:      -8.2      0.000      0.000
REMARK  Name = 
REMARK  7 active torsions:
REMARK  status: ('A' for Active; 'I' for Inactive)
REMARK    1  A    between atoms: C_1  and  C_2
REMARK    2  A    between atoms: C_2  and  O_3
REMARK    3  A    between atoms: O_3  and  C_4
REMARK    4  A    between atoms: C_7  and  C_8
REMARK    5  A    between atoms: C_8  and  N_9
REMARK    6  A    between atoms: C_10  and  C_12
REMARK    7  A    between atoms: C_12  and  N_13
REMARK                            x       y       z     vdW  Elec       q    Type
REMARK                         _______ _______ _______ _____ _____    ______ ____
ROOT
ATOM      1  C   UNL     1       7.996   6.301  17.998  0.00  0.00    +0.000 C 
ENDROOT
BRANCH   1   2
ATOM      2  N   UNL     1       6.904   5.355  17.784  0.00  0.00    +0.000 N 
ATOM      3  C   UNL     1       6.135   4.964  18.875  0.00  0.00    +0.000 A 
ATOM      4  O   UNL     1       6.347   5.393  20.010  0.00  0.00    +0.000 OA
ATOM      5  C   UNL     1       5.080   4.024  18.586  0.00  0.00    +0.000 A 
ATOM      6  C   UNL     1       4.203   3.380  19.439  0.00  0.00    +0.000 A 
ATOM      7  C   UNL     1       3.352   2.573  18.650  0.00  0.00    +0.000 A 
ATOM      8  C   UNL     1       3.736   2.742  17.335  0.00  0.00    +0.000 A 
ATOM      9  N   UNL     1       4.798   3.616  17.305  0.00  0.00    +0.000 N 
ATOM     10  C   UNL     1       5.549   4.062  16.208  0.00  0.00    +0.000 A 
ATOM     11  C   UNL     1       5.262   3.670  14.899  0.00  0.00    +0.000 A 
ATOM     12  C   UNL     1       6.077   4.129  13.872  0.00  0.00    +0.000 A 
ATOM     13  C   UNL     1       7.147   4.942  14.203  0.00  0.00    +0.000 A 
ATOM     14  N   UNL     1       7.437   5.331  15.466  0.00  0.00    +0.000 NA
ATOM     15  C   UNL     1       6.627   4.914  16.464  0.00  0.00    +0.000 A 
ENDBRANCH   1   2
BRANCH   1  17
ATOM     16  N   UNL     1       8.415   8.712  18.164  0.00  0.00    +0.000 N 
ATOM     17  C   UNL     1       7.565   7.738  17.679  0.00  0.00    +0.000 C 
ATOM     18  O   UNL     1       6.516   8.007  17.097  0.00  0.00    +0.000 OA
ATOM     19  H   UNL     1       9.214   8.438  18.725  0.00  0.00    +0.000 HD
BRANCH  16  20
ATOM     20  C   UNL     1       8.140  10.122  18.002  0.00  0.00    +0.000 C 
BRANCH  20  24
ATOM     21  C   UNL     1      11.353  12.674  19.374  0.00  0.00    +0.000 A 
ATOM     22  C   UNL     1      10.801  12.846  18.105  0.00  0.00    +0.000 A 
ATOM     23  C   UNL     1       9.772  12.013  17.658  0.00  0.00    +0.000 A 
ATOM     24  C   UNL     1       9.281  10.988  18.476  0.00  0.00    +0.000 A 
ATOM     25  C   UNL     1       9.872  10.791  19.732  0.00  0.00    +0.000 A 
ATOM     26  C   UNL     1      10.905  11.627  20.178  0.00  0.00    +0.000 A 
BRANCH  21  27
ATOM     27  O   UNL     1      12.325  13.576  19.709  0.00  0.00    +0.000 OA
BRANCH  27  29
ATOM     28  C   UNL     1      11.301  15.562  20.530  0.00  0.00    +0.000 C 
ATOM     29  C   UNL     1      12.065  14.939  19.376  0.00  0.00    +0.000 C 
ENDBRANCH  27  29
ENDBRANCH  21  27
ENDBRANCH  20  24
ENDBRANCH  16  20
ENDBRANCH   1  17
TORSDOF 6
ENDMDL
MODEL 2
REMARK VINA RESULT:      -7.7      7.532     10.305
REMARK  Name = 
REMARK  7 active torsions:
REMARK  status: ('A' for Active; 'I' for Inactive)
REMARK    1  A    between atoms: C_1  and  C_2
REMARK    2  A    between atoms: C_2  and  O_3
REMARK    3  A    between atoms: O_3  and  C_4
REMARK    4  A    between atoms: C_7  and  C_8
REMARK    5  A    between atoms: C_8  and  N_9
REMARK    6  A    between atoms: C_10  and  C_12
REMARK    7  A    between atoms: C_12  and  N_13
REMARK                            x       y       z     vdW  Elec       q    Type
REMARK                         _______ _______ _______ _____ _____    ______ ____
ROOT
ATOM      1  C   UNL     1       1.297  10.306  18.279  0.00  0.00    +0.000 C 
ENDROOT
BRANCH   1   2
ATOM      2  N   UNL     1       0.176  11.027  18.878  0.00  0.00    +0.000 N 
ATOM      3  C   UNL     1       0.432  11.922  19.911  0.00  0.00    +0.000 A 
ATOM      4  O   UNL     1       1.572  12.125  20.331  0.00  0.00    +0.000 OA
ATOM      5  C   UNL     1      -0.725  12.590  20.455  0.00  0.00    +0.000 A 
ATOM      6  C   UNL     1      -0.831  13.460  21.525  0.00  0.00    +0.000 A 
ATOM      7  C   UNL     1      -2.186  13.843  21.634  0.00  0.00    +0.000 A 
ATOM      8  C   UNL     1      -2.875  13.193  20.629  0.00  0.00    +0.000 A 
ATOM      9  N   UNL     1      -1.981  12.419  19.925  0.00  0.00    +0.000 N 
ATOM     10  C   UNL     1      -2.214  11.553  18.847  0.00  0.00    +0.000 A 
ATOM     11  C   UNL     1      -3.483  11.386  18.286  0.00  0.00    +0.000 A 
ATOM     12  C   UNL     1      -3.635  10.482  17.243  0.00  0.00    +0.000 A 
ATOM     13  C   UNL     1      -2.520   9.778  16.822  0.00  0.00    +0.000 A 
ATOM     14  N   UNL     1      -1.286   9.931  17.354  0.00  0.00    +0.000 NA
ATOM     15  C   UNL     1      -1.126  10.834  18.347  0.00  0.00    +0.000 A 
ENDBRANCH   1   2
BRANCH   1  17
ATOM     16  N   UNL     1       2.257   8.049  18.258  0.00  0.00    +0.000 N 
ATOM     17  C   UNL     1       1.563   8.981  19.005  0.00  0.00    +0.000 C 
ATOM     18  O   UNL     1       1.139   8.739  20.133  0.00  0.00    +0.000 OA
ATOM     19  H   UNL     1       2.495   8.263  17.296  0.00  0.00    +0.000 HD
BRANCH  16  20
ATOM     20  C   UNL     1       2.553   6.727  18.762  0.00  0.00    +0.000 C 
BRANCH  20  24
ATOM     21  C   UNL     1       5.194   4.540  16.123  0.00  0.00    +0.000 A 
ATOM     22  C   UNL     1       4.216   3.874  16.862  0.00  0.00    +0.000 A 
ATOM     23  C   UNL     1       3.372   4.580  17.724  0.00  0.00    +0.000 A 
ATOM     24  C   UNL     1       3.498   5.968  17.863  0.00  0.00    +0.000 A 
ATOM     25  C   UNL     1       4.513   6.625  17.153  0.00  0.00    +0.000 A 
ATOM     26  C   UNL     1       5.359   5.914  16.290  0.00  0.00    +0.000 A 
BRANCH  21  27
ATOM     27  O   UNL     1       5.929   3.745  15.288  0.00  0.00    +0.000 OA
BRANCH  27  29
ATOM     28  C   UNL     1       6.053   3.628  12.914  0.00  0.00    +0.000 C 
ATOM     29  C   UNL     1       6.504   4.386  14.150  0.00  0.00    +0.000 C 
ENDBRANCH  27  29
ENDBRANCH  21  27
ENDBRANCH  20  24
ENDBRANCH  16  20
ENDBRANCH   1  17
TORSDOF 6
ENDMDL
MODEL 3
REMARK VINA RESULT:      -7.6      8.161     11.411
REMARK  Name = 
REMARK  7 active torsions:
REMARK  status: ('A' for Active; 'I' for Inactive)
REMARK    1  A    between atoms: C_1  and  C_2
REMARK    2  A    between atoms: C_2  and  O_3
REMARK    3  A    between atoms: O_3  and  C_4
REMARK    4  A    between atoms: C_7  and  C_8
REMARK    5  A    between atoms: C_8  and  N_9
REMARK    6  A    between atoms: C_10  and  C_12
REMARK    7  A    between atoms: C_12  and  N_13
REMARK                            x       y       z     vdW  Elec       q    Type
REMARK                         _______ _______ _______ _____ _____    ______ ____
ROOT
ATOM      1  C   UNL     1       0.778  10.871  20.225  0.00  0.00    +0.000 C 
ENDROOT
BRANCH   1   2
ATOM      2  N   UNL     1      -0.467  11.029  19.478  0.00  0.00    +0.000 N 
ATOM      3  C   UNL     1      -0.623  10.333  18.284  0.00  0.00    +0.000 A 
ATOM      4  O   UNL     1       0.254   9.588  17.843  0.00  0.00    +0.000 OA
ATOM      5  C   UNL     1      -1.876  10.545  17.601  0.00  0.00    +0.000 A 
ATOM      6  C   UNL     1      -2.310  10.081  16.373  0.00  0.00    +0.000 A 
ATOM      7  C   UNL     1      -3.623  10.563  16.171  0.00  0.00    +0.000 A 
ATOM      8  C   UNL     1      -3.954  11.314  17.282  0.00  0.00    +0.000 A 
ATOM      9  N   UNL     1      -2.880  11.310  18.141  0.00  0.00    +0.000 N 
ATOM     10  C   UNL     1      -2.727  11.963  19.373  0.00  0.00    +0.000 A 
ATOM     11  C   UNL     1      -3.747  12.729  19.942  0.00  0.00    +0.000 A 
ATOM     12  C   UNL     1      -3.502  13.371  21.149  0.00  0.00    +0.000 A 
ATOM     13  C   UNL     1      -2.248  13.233  21.719  0.00  0.00    +0.000 A 
ATOM     14  N   UNL     1      -1.252  12.494  21.181  0.00  0.00    +0.000 NA
ATOM     15  C   UNL     1      -1.497  11.840  20.023  0.00  0.00    +0.000 A 
ENDBRANCH   1   2
BRANCH   1  17
ATOM     16  N   UNL     1       1.535   8.567  20.589  0.00  0.00    +0.000 N 
ATOM     17  C   UNL     1       0.760   9.599  21.081  0.00  0.00    +0.000 C 
ATOM     18  O   UNL     1       0.064   9.479  22.087  0.00  0.00    +0.000 OA
ATOM     19  H   UNL     1       2.011   8.684  19.701  0.00  0.00    +0.000 HD
BRANCH  16  20
ATOM     20  C   UNL     1       1.599   7.276  21.238  0.00  0.00    +0.000 C 
BRANCH  20  24
ATOM     21  C   UNL     1       1.876   4.034  18.387  0.00  0.00    +0.000 A 
ATOM     22  C   UNL     1       1.264   3.841  19.625  0.00  0.00    +0.000 A 
ATOM     23  C   UNL     1       1.187   4.886  20.550  0.00  0.00    +0.000 A 
ATOM     24  C   UNL     1       1.727   6.143  20.250  0.00  0.00    +0.000 A 
ATOM     25  C   UNL     1       2.381   6.317  19.022  0.00  0.00    +0.000 A 
ATOM     26  C   UNL     1       2.459   5.267  18.097  0.00  0.00    +0.000 A 
BRANCH  21  27
ATOM     27  O   UNL     1       1.853   2.949  17.555  0.00  0.00    +0.000 OA
BRANCH  27  29
ATOM     28  C   UNL     1       3.501   1.522  18.513  0.00  0.00    +0.000 C 
ATOM     29  C   UNL     1       3.112   2.331  17.288  0.00  0.00    +0.000 C 
ENDBRANCH  27  29
ENDBRANCH  21  27
ENDBRANCH  20  24
ENDBRANCH  16  20
ENDBRANCH   1  17
TORSDOF 6
ENDMDL
MODEL 4
REMARK VINA RESULT:      -7.6      7.578     10.127
REMARK  Name = 
REMARK  7 active torsions:
REMARK  status: ('A' for Active; 'I' for Inactive)
REMARK    1  A    between atoms: C_1  and  C_2
REMARK    2  A    between atoms: C_2  and  O_3
REMARK    3  A    between atoms: O_3  and  C_4
REMARK    4  A    between atoms: C_7  and  C_8
REMARK    5  A    between atoms: C_8  and  N_9
REMARK    6  A    between atoms: C_10  and  C_12
REMARK    7  A    between atoms: C_12  and  N_13
REMARK                            x       y       z     vdW  Elec       q    Type
REMARK                         _______ _______ _______ _____ _____    ______ ____
ROOT
ATOM      1  C   UNL     1       1.418  10.347  18.814  0.00  0.00    +0.000 C 
ENDROOT
BRANCH   1   2
ATOM      2  N   UNL     1       0.218  10.995  19.335  0.00  0.00    +0.000 N 
ATOM      3  C   UNL     1       0.325  11.784  20.475  0.00  0.00    +0.000 A 
ATOM      4  O   UNL     1       1.400  11.953  21.053  0.00  0.00    +0.000 OA
ATOM      5  C   UNL     1      -0.904  12.386  20.932  0.00  0.00    +0.000 A 
ATOM      6  C   UNL     1      -1.159  13.143  22.060  0.00  0.00    +0.000 A 
ATOM      7  C   UNL     1      -2.525  13.503  22.036  0.00  0.00    +0.000 A 
ATOM      8  C   UNL     1      -3.070  12.952  20.894  0.00  0.00    +0.000 A 
ATOM      9  N   UNL     1      -2.080  12.259  20.235  0.00  0.00    +0.000 N 
ATOM     10  C   UNL     1      -2.160  11.504  19.056  0.00  0.00    +0.000 A 
ATOM     11  C   UNL     1      -3.346  11.384  18.326  0.00  0.00    +0.000 A 
ATOM     12  C   UNL     1      -3.349  10.588  17.189  0.00  0.00    +0.000 A 
ATOM     13  C   UNL     1      -2.177   9.938  16.844  0.00  0.00    +0.000 A 
ATOM     14  N   UNL     1      -1.021  10.046  17.539  0.00  0.00    +0.000 NA
ATOM     15  C   UNL     1      -1.004  10.846  18.628  0.00  0.00    +0.000 A 
ENDBRANCH   1   2
BRANCH   1  17
ATOM     16  N   UNL     1       2.248   8.057  18.515  0.00  0.00    +0.000 N 
ATOM     17  C   UNL     1       1.561   8.917  19.351  0.00  0.00    +0.000 C 
ATOM     18  O   UNL     1       1.051   8.544  20.405  0.00  0.00    +0.000 OA
ATOM     19  H   UNL     1       2.560   8.391  17.610  0.00  0.00    +0.000 HD
BRANCH  16  20
ATOM     20  C   UNL     1       2.435   6.660  18.835  0.00  0.00    +0.000 C 
BRANCH  20  24
ATOM     21  C   UNL     1       5.538   4.827  16.442  0.00  0.00    +0.000 A 
ATOM     22  C   UNL     1       5.392   6.214  16.476  0.00  0.00    +0.000 A 
ATOM     23  C   UNL     1       4.381   6.804  17.239  0.00  0.00    +0.000 A 
ATOM     24  C   UNL     1       3.494   6.012  17.979  0.00  0.00    +0.000 A 
ATOM     25  C   UNL     1       3.618   4.617  17.904  0.00  0.00    +0.000 A 
ATOM     26  C   UNL     1       4.631   4.027  17.137  0.00  0.00    +0.000 A 
BRANCH  21  27
ATOM     27  O   UNL     1       6.587   4.374  15.691  0.00  0.00    +0.000 OA
BRANCH  27  29
ATOM     28  C   UNL     1       6.067   3.735  13.457  0.00  0.00    +0.000 C 
ATOM     29  C   UNL     1       6.641   4.830  14.339  0.00  0.00    +0.000 C 
ENDBRANCH  27  29
ENDBRANCH  21  27
ENDBRANCH  20  24
ENDBRANCH  16  20
ENDBRANCH   1  17
TORSDOF 6
ENDMDL
MODEL 5
REMARK VINA RESULT:      -7.6      7.471     11.087
REMARK  Name = 
REMARK  7 active torsions:
REMARK  status: ('A' for Active; 'I' for Inactive)
REMARK    1  A    between atoms: C_1  and  C_2
REMARK    2  A    between atoms: C_2  and  O_3
REMARK    3  A    between atoms: O_3  and  C_4
REMARK    4  A    between atoms: C_7  and  C_8
REMARK    5  A    between atoms: C_8  and  N_9
REMARK    6  A    between atoms: C_10  and  C_12
REMARK    7  A    between atoms: C_12  and  N_13
REMARK                            x       y       z     vdW  Elec       q    Type
REMARK                         _______ _______ _______ _____ _____    ______ ____
ROOT
ATOM      1  C   UNL     1      -0.196  10.468  18.182  0.00  0.00    +0.000 C 
ENDROOT
BRANCH   1   2
ATOM      2  N   UNL     1      -0.426  11.311  19.352  0.00  0.00    +0.000 N 
ATOM      3  C   UNL     1      -0.665  12.667  19.163  0.00  0.00    +0.000 A 
ATOM      4  O   UNL     1      -0.692  13.175  18.041  0.00  0.00    +0.000 OA
ATOM      5  C   UNL     1      -0.877  13.435  20.366  0.00  0.00    +0.000 A 
ATOM      6  C   UNL     1      -1.053  14.795  20.535  0.00  0.00    +0.000 A 
ATOM      7  C   UNL     1      -1.236  15.037  21.915  0.00  0.00    +0.000 A 
ATOM      8  C   UNL     1      -1.162  13.815  22.554  0.00  0.00    +0.000 A 
ATOM      9  N   UNL     1      -0.928  12.846  21.606  0.00  0.00    +0.000 N 
ATOM     10  C   UNL     1      -0.738  11.467  21.775  0.00  0.00    +0.000 A 
ATOM     11  C   UNL     1      -0.806  10.853  23.028  0.00  0.00    +0.000 A 
ATOM     12  C   UNL     1      -0.571   9.487  23.113  0.00  0.00    +0.000 A 
ATOM     13  C   UNL     1      -0.262   8.804  21.950  0.00  0.00    +0.000 A 
ATOM     14  N   UNL     1      -0.194   9.384  20.730  0.00  0.00    +0.000 NA
ATOM     15  C   UNL     1      -0.455  10.707  20.637  0.00  0.00    +0.000 A 
ENDBRANCH   1   2
BRANCH   1  17
ATOM     16  N   UNL     1       1.523   8.741  17.891  0.00  0.00    +0.000 N 
ATOM     17  C   UNL     1       1.286  10.093  18.043  0.00  0.00    +0.000 C 
ATOM     18  O   UNL     1       2.194  10.917  18.125  0.00  0.00    +0.000 OA
ATOM     19  H   UNL     1       0.743   8.094  17.931  0.00  0.00    +0.000 HD
BRANCH  16  20
ATOM     20  C   UNL     1       2.860   8.201  17.796  0.00  0.00    +0.000 C 
BRANCH  20  24
ATOM     21  C   UNL     1       3.077   4.230  19.498  0.00  0.00    +0.000 A 
ATOM     22  C   UNL     1       2.409   5.255  20.168  0.00  0.00    +0.000 A 
ATOM     23  C   UNL     1       2.351   6.540  19.623  0.00  0.00    +0.000 A 
ATOM     24  C   UNL     1       2.967   6.822  18.397  0.00  0.00    +0.000 A 
ATOM     25  C   UNL     1       3.676   5.799  17.752  0.00  0.00    +0.000 A 
ATOM     26  C   UNL     1       3.735   4.511  18.301  0.00  0.00    +0.000 A 
BRANCH  21  27
ATOM     27  O   UNL     1       3.031   3.010  20.114  0.00  0.00    +0.000 OA
BRANCH  27  29
ATOM     28  C   UNL     1       1.072   2.168  19.054  0.00  0.00    +0.000 C 
ATOM     29  C   UNL     1       1.730   2.487  20.385  0.00  0.00    +0.000 C 
ENDBRANCH  27  29
ENDBRANCH  21  27
ENDBRANCH  20  24
ENDBRANCH  16  20
ENDBRANCH   1  17
TORSDOF 6
ENDMDL
MODEL 6
REMARK VINA RESULT:      -7.5      4.715      7.044
REMARK  Name = 
REMARK  7 active torsions:
REMARK  status: ('A' for Active; 'I' for Inactive)
REMARK    1  A    between atoms: C_1  and  C_2
REMARK    2  A    between atoms: C_2  and  O_3
REMARK    3  A    between atoms: O_3  and  C_4
REMARK    4  A    between atoms: C_7  and  C_8
REMARK    5  A    between atoms: C_8  and  N_9
REMARK    6  A    between atoms: C_10  and  C_12
REMARK    7  A    between atoms: C_12  and  N_13
REMARK                            x       y       z     vdW  Elec       q    Type
REMARK                         _______ _______ _______ _____ _____    ______ ____
ROOT
ATOM      1  C   UNL     1       4.429   3.189  19.626  0.00  0.00    +0.000 C 
ENDROOT
BRANCH   1   2
ATOM      2  N   UNL     1       4.996   3.747  18.402  0.00  0.00    +0.000 N 
ATOM      3  C   UNL     1       4.443   3.378  17.180  0.00  0.00    +0.000 A 
ATOM      4  O   UNL     1       3.492   2.599  17.103  0.00  0.00    +0.000 OA
ATOM      5  C   UNL     1       5.061   3.965  16.016  0.00  0.00    +0.000 A 
ATOM      6  C   UNL     1       4.815   3.749  14.673  0.00  0.00    +0.000 A 
ATOM      7  C   UNL     1       5.683   4.587  13.937  0.00  0.00    +0.000 A 
ATOM      8  C   UNL     1       6.440   5.291  14.853  0.00  0.00    +0.000 A 
ATOM      9  N   UNL     1       6.066   4.896  16.116  0.00  0.00    +0.000 N 
ATOM     10  C   UNL     1       6.576   5.299  17.359  0.00  0.00    +0.000 A 
ATOM     11  C   UNL     1       7.584   6.259  17.475  0.00  0.00    +0.000 A 
ATOM     12  C   UNL     1       8.058   6.575  18.742  0.00  0.00    +0.000 A 
ATOM     13  C   UNL     1       7.516   5.908  19.827  0.00  0.00    +0.000 A 
ATOM     14  N   UNL     1       6.538   4.979  19.730  0.00  0.00    +0.000 NA
ATOM     15  C   UNL     1       6.051   4.691  18.502  0.00  0.00    +0.000 A 
ENDBRANCH   1   2
BRANCH   1  17
ATOM     16  N   UNL     1       3.144   5.162  20.314  0.00  0.00    +0.000 N 
ATOM     17  C   UNL     1       3.075   3.829  19.960  0.00  0.00    +0.000 C 
ATOM     18  O   UNL     1       2.022   3.195  19.977  0.00  0.00    +0.000 OA
ATOM     19  H   UNL     1       4.051   5.611  20.381  0.00  0.00    +0.000 HD
BRANCH  16  20
ATOM     20  C   UNL     1       1.974   5.914  20.709  0.00  0.00    +0.000 C 
BRANCH  20  24
ATOM     21  C   UNL     1       1.698   9.704  18.641  0.00  0.00    +0.000 A 
ATOM     22  C   UNL     1       1.150   9.547  19.914  0.00  0.00    +0.000 A 
ATOM     23  C   UNL     1       1.229   8.319  20.575  0.00  0.00    +0.000 A 
ATOM     24  C   UNL     1       1.855   7.223  19.968  0.00  0.00    +0.000 A 
ATOM     25  C   UNL     1       2.363   7.374  18.670  0.00  0.00    +0.000 A 
ATOM     26  C   UNL     1       2.281   8.607  18.008  0.00  0.00    +0.000 A 
BRANCH  21  27
ATOM     27  O   UNL     1       1.591  10.962  18.116  0.00  0.00    +0.000 OA
BRANCH  27  29
ATOM     28  C   UNL     1      -0.054  12.625  18.558  0.00  0.00    +0.000 C 
ATOM     29  C   UNL     1       1.247  12.002  19.031  0.00  0.00    +0.000 C 
ENDBRANCH  27  29
ENDBRANCH  21  27
ENDBRANCH  20  24
ENDBRANCH  16  20
ENDBRANCH   1  17
TORSDOF 6
ENDMDL
MODEL 7
REMARK VINA RESULT:      -7.5      9.848     11.688
REMARK  Name = 
REMARK  7 active torsions:
REMARK  status: ('A' for Active; 'I' for Inactive)
REMARK    1  A    between atoms: C_1  and  C_2
REMARK    2  A    between atoms: C_2  and  O_3
REMARK    3  A    between atoms: O_3  and  C_4
REMARK    4  A    between atoms: C_7  and  C_8
REMARK    5  A    between atoms: C_8  and  N_9
REMARK    6  A    between atoms: C_10  and  C_12
REMARK    7  A    between atoms: C_12  and  N_13
REMARK                            x       y       z     vdW  Elec       q    Type
REMARK                         _______ _______ _______ _____ _____    ______ ____
ROOT
ATOM      1  C   UNL     1      -1.188  12.930  20.135  0.00  0.00    +0.000 C 
ENDROOT
BRANCH   1   2
ATOM      2  N   UNL     1      -2.600  12.595  19.976  0.00  0.00    +0.000 N 
ATOM      3  C   UNL     1      -3.488  12.941  20.988  0.00  0.00    +0.000 A 
ATOM      4  O   UNL     1      -3.119  13.523  22.009  0.00  0.00    +0.000 OA
ATOM      5  C   UNL     1      -4.864  12.572  20.761  0.00  0.00    +0.000 A 
ATOM      6  C   UNL     1      -5.966  12.690  21.588  0.00  0.00    +0.000 A 
ATOM      7  C   UNL     1      -7.086  12.192  20.884  0.00  0.00    +0.000 A 
ATOM      8  C   UNL     1      -6.636  11.778  19.646  0.00  0.00    +0.000 A 
ATOM      9  N   UNL     1      -5.280  11.998  19.584  0.00  0.00    +0.000 N 
ATOM     10  C   UNL     1      -4.380  11.704  18.550  0.00  0.00    +0.000 A 
ATOM     11  C   UNL     1      -4.793  11.139  17.341  0.00  0.00    +0.000 A 
ATOM     12  C   UNL     1      -3.832  10.846  16.381  0.00  0.00    +0.000 A 
ATOM     13  C   UNL     1      -2.508  11.114  16.681  0.00  0.00    +0.000 A 
ATOM     14  N   UNL     1      -2.093  11.663  17.846  0.00  0.00    +0.000 NA
ATOM     15  C   UNL     1      -3.028  11.980  18.769  0.00  0.00    +0.000 A 
ENDBRANCH   1   2
BRANCH   1  17
ATOM     16  N   UNL     1      -0.285  10.657  20.332  0.00  0.00    +0.000 N 
ATOM     17  C   UNL     1      -0.451  11.872  20.967  0.00  0.00    +0.000 C 
ATOM     18  O   UNL     1      -0.094  12.064  22.127  0.00  0.00    +0.000 OA
ATOM     19  H   UNL     1      -0.688  10.520  19.411  0.00  0.00    +0.000 HD
BRANCH  16  20
ATOM     20  C   UNL     1       0.342   9.529  20.982  0.00  0.00    +0.000 C 
BRANCH  20  24
ATOM     21  C   UNL     1       2.767   7.187  18.271  0.00  0.00    +0.000 A 
ATOM     22  C   UNL     1       2.527   6.745  19.572  0.00  0.00    +0.000 A 
ATOM     23  C   UNL     1       1.754   7.508  20.450  0.00  0.00    +0.000 A 
ATOM     24  C   UNL     1       1.211   8.733  20.041  0.00  0.00    +0.000 A 
ATOM     25  C   UNL     1       1.495   9.193  18.747  0.00  0.00    +0.000 A 
ATOM     26  C   UNL     1       2.272   8.426  17.868  0.00  0.00    +0.000 A 
BRANCH  21  27
ATOM     27  O   UNL     1       3.504   6.333  17.497  0.00  0.00    +0.000 OA
BRANCH  27  29
ATOM     28  C   UNL     1       4.341   4.188  16.894  0.00  0.00    +0.000 C 
ATOM     29  C   UNL     1       3.377   4.943  17.792  0.00  0.00    +0.000 C 
ENDBRANCH  27  29
ENDBRANCH  21  27
ENDBRANCH  20  24
ENDBRANCH  16  20
ENDBRANCH   1  17
TORSDOF 6
ENDMDL
MODEL 8
REMARK VINA RESULT:      -7.4      7.407     10.877
REMARK  Name = 
REMARK  7 active torsions:
REMARK  status: ('A' for Active; 'I' for Inactive)
REMARK    1  A    between atoms: C_1  and  C_2
REMARK    2  A    between atoms: C_2  and  O_3
REMARK    3  A    between atoms: O_3  and  C_4
REMARK    4  A    between atoms: C_7  and  C_8
REMARK    5  A    between atoms: C_8  and  N_9
REMARK    6  A    between atoms: C_10  and  C_12
REMARK    7  A    between atoms: C_12  and  N_13
REMARK                            x       y       z     vdW  Elec       q    Type
REMARK                         _______ _______ _______ _____ _____    ______ ____
ROOT
ATOM      1  C   UNL     1      -0.183  10.183  18.156  0.00  0.00    +0.000 C 
ENDROOT
BRANCH   1   2
ATOM      2  N   UNL     1      -0.458  11.083  19.272  0.00  0.00    +0.000 N 
ATOM      3  C   UNL     1      -0.785  12.407  18.998  0.00  0.00    +0.000 A 
ATOM      4  O   UNL     1      -0.852  12.838  17.846  0.00  0.00    +0.000 OA
ATOM      5  C   UNL     1      -1.038  13.236  20.152  0.00  0.00    +0.000 A 
ATOM      6  C   UNL     1      -1.300  14.591  20.235  0.00  0.00    +0.000 A 
ATOM      7  C   UNL     1      -1.489  14.909  21.598  0.00  0.00    +0.000 A 
ATOM      8  C   UNL     1      -1.333  13.738  22.314  0.00  0.00    +0.000 A 
ATOM      9  N   UNL     1      -1.043  12.727  21.427  0.00  0.00    +0.000 N 
ATOM     10  C   UNL     1      -0.765  11.376  21.683  0.00  0.00    +0.000 A 
ATOM     11  C   UNL     1      -0.786  10.841  22.973  0.00  0.00    +0.000 A 
ATOM     12  C   UNL     1      -0.463   9.502  23.144  0.00  0.00    +0.000 A 
ATOM     13  C   UNL     1      -0.118   8.766  22.023  0.00  0.00    +0.000 A 
ATOM     14  N   UNL     1      -0.095   9.269  20.768  0.00  0.00    +0.000 NA
ATOM     15  C   UNL     1      -0.441  10.564  20.593  0.00  0.00    +0.000 A 
ENDBRANCH   1   2
BRANCH   1  17
ATOM     16  N   UNL     1       1.647   8.574  17.867  0.00  0.00    +0.000 N 
ATOM     17  C   UNL     1       1.320   9.908  18.015  0.00  0.00    +0.000 C 
ATOM     18  O   UNL     1       2.172  10.791  18.094  0.00  0.00    +0.000 OA
ATOM     19  H   UNL     1       0.913   7.876  17.911  0.00  0.00    +0.000 HD
BRANCH  16  20
ATOM     20  C   UNL     1       3.018   8.124  17.771  0.00  0.00    +0.000 C 
BRANCH  20  24
ATOM     21  C   UNL     1       3.428   3.883  18.519  0.00  0.00    +0.000 A 
ATOM     22  C   UNL     1       4.555   4.695  18.392  0.00  0.00    +0.000 A 
ATOM     23  C   UNL     1       4.421   6.062  18.138  0.00  0.00    +0.000 A 
ATOM     24  C   UNL     1       3.152   6.640  18.002  0.00  0.00    +0.000 A 
ATOM     25  C   UNL     1       2.025   5.810  18.084  0.00  0.00    +0.000 A 
ATOM     26  C   UNL     1       2.162   4.438  18.338  0.00  0.00    +0.000 A 
BRANCH  21  27
ATOM     27  O   UNL     1       3.689   2.572  18.806  0.00  0.00    +0.000 OA
BRANCH  27  29
ATOM     28  C   UNL     1       3.013   2.554  21.089  0.00  0.00    +0.000 C 
ATOM     29  C   UNL     1       4.157   2.294  20.125  0.00  0.00    +0.000 C 
ENDBRANCH  27  29
ENDBRANCH  21  27
ENDBRANCH  20  24
ENDBRANCH  16  20
ENDBRANCH   1  17
TORSDOF 6
ENDMDL
MODEL 9
REMARK VINA RESULT:      -7.4      6.988      8.439
REMARK  Name = 
REMARK  7 active torsions:
REMARK  status: ('A' for Active; 'I' for Inactive)
REMARK    1  A    between atoms: C_1  and  C_2
REMARK    2  A    between atoms: C_2  and  O_3
REMARK    3  A    between atoms: O_3  and  C_4
REMARK    4  A    between atoms: C_7  and  C_8
REMARK    5  A    between atoms: C_8  and  N_9
REMARK    6  A    between atoms: C_10  and  C_12
REMARK    7  A    between atoms: C_12  and  N_13
REMARK                            x       y       z     vdW  Elec       q    Type
REMARK                         _______ _______ _______ _____ _____    ______ ____
ROOT
ATOM      1  C   UNL     1       3.169   8.093  18.706  0.00  0.00    +0.000 C 
ENDROOT
BRANCH   1   2
ATOM      2  N   UNL     1       3.007   6.647  18.834  0.00  0.00    +0.000 N 
ATOM      3  C   UNL     1       2.161   6.154  19.821  0.00  0.00    +0.000 A 
ATOM      4  O   UNL     1       1.545   6.898  20.585  0.00  0.00    +0.000 OA
ATOM      5  C   UNL     1       2.058   4.716  19.888  0.00  0.00    +0.000 A 
ATOM      6  C   UNL     1       1.384   3.913  20.789  0.00  0.00    +0.000 A 
ATOM      7  C   UNL     1       1.590   2.569  20.403  0.00  0.00    +0.000 A 
ATOM      8  C   UNL     1       2.389   2.587  19.278  0.00  0.00    +0.000 A 
ATOM      9  N   UNL     1       2.683   3.898  18.979  0.00  0.00    +0.000 N 
ATOM     10  C   UNL     1       3.490   4.414  17.955  0.00  0.00    +0.000 A 
ATOM     11  C   UNL     1       4.116   3.594  17.013  0.00  0.00    +0.000 A 
ATOM     12  C   UNL     1       4.927   4.184  16.053  0.00  0.00    +0.000 A 
ATOM     13  C   UNL     1       5.089   5.558  16.089  0.00  0.00    +0.000 A 
ATOM     14  N   UNL     1       4.488   6.365  16.993  0.00  0.00    +0.000 NA
ATOM     15  C   UNL     1       3.671   5.799  17.910  0.00  0.00    +0.000 A 
ENDBRANCH   1   2
BRANCH   1  17
ATOM     16  N   UNL     1       1.277   9.563  19.235  0.00  0.00    +0.000 N 
ATOM     17  C   UNL     1       1.861   8.767  18.269  0.00  0.00    +0.000 C 
ATOM     18  O   UNL     1       1.339   8.567  17.176  0.00  0.00    +0.000 OA
ATOM     19  H   UNL     1       1.698   9.614  20.157  0.00  0.00    +0.000 HD
BRANCH  16  20
ATOM     20  C   UNL     1       0.016  10.236  19.018  0.00  0.00    +0.000 C 
BRANCH  20  24
ATOM     21  C   UNL     1      -1.761  11.746  22.662  0.00  0.00    +0.000 A 
ATOM     22  C   UNL     1      -2.064  12.326  21.430  0.00  0.00    +0.000 A 
ATOM     23  C   UNL     1      -1.479  11.845  20.255  0.00  0.00    +0.000 A 
ATOM     24  C   UNL     1      -0.575  10.776  20.296  0.00  0.00    +0.000 A 
ATOM     25  C   UNL     1      -0.240  10.228  21.542  0.00  0.00    +0.000 A 
ATOM     26  C   UNL     1      -0.826  10.712  22.719  0.00  0.00    +0.000 A 
BRANCH  21  27
ATOM     27  O   UNL     1      -2.425  12.279  23.731  0.00  0.00    +0.000 OA
BRANCH  27  29
ATOM     28  C   UNL     1      -4.546  12.461  24.798  0.00  0.00    +0.000 C 
ATOM     29  C   UNL     1      -3.779  12.669  23.504  0.00  0.00    +0.000 C 
ENDBRANCH  27  29
ENDBRANCH  21  27
ENDBRANCH  20  24
ENDBRANCH  16  20
ENDBRANCH   1  17
TORSDOF 6
ENDMDL
