MODEL 1
REMARK VINA RESULT:      -8.4      0.000      0.000
REMARK  Name = 
REMARK  10 active torsions:
REMARK  status: ('A' for Active; 'I' for Inactive)
REMARK    1  A    between atoms: C_1  and  O_2
REMARK    2  A    between atoms: O_2  and  C_3
REMARK    3  A    between atoms: C_5  and  O_6
REMARK    4  A    between atoms: O_6  and  C_7
REMARK    5  A    between atoms: C_7  and  C_8
REMARK    6  A    between atoms: C_12  and  O_13
REMARK    7  A    between atoms: C_18  and  C_19
REMARK    8  A    between atoms: C_20  and  O_21
REMARK    9  A    between atoms: O_21  and  C_22
REMARK   10  A    between atoms: C_22  and  C_23
REMARK                            x       y       z     vdW  Elec       q    Type
REMARK                         _______ _______ _______ _____ _____    ______ ____
ROOT
ATOM      1  C   UNL     1       5.834   5.065  16.618  0.00  0.00    +0.000 A 
ATOM      2  C   UNL     1       5.785   4.217  17.726  0.00  0.00    +0.000 A 
ATOM      3  C   UNL     1       4.873   4.454  18.756  0.00  0.00    +0.000 A 
ATOM      4  C   UNL     1       4.021   5.575  18.719  0.00  0.00    +0.000 A 
ATOM      5  C   UNL     1       4.103   6.455  17.630  0.00  0.00    +0.000 A 
ATOM      6  C   UNL     1       5.002   6.190  16.579  0.00  0.00    +0.000 A 
ATOM      7  C   UNL     1       3.251   7.659  17.581  0.00  0.00    +0.000 C 
ATOM      8  O   UNL     1       3.309   8.412  16.615  0.00  0.00    +0.000 OA
ATOM      9  C   UNL     1       2.337   7.962  18.696  0.00  0.00    +0.000 A 
ATOM     10  C   UNL     1       1.575   9.140  18.670  0.00  0.00    +0.000 A 
ATOM     11  C   UNL     1       0.694   9.445  19.719  0.00  0.00    +0.000 A 
ATOM     12  C   UNL     1      -0.109  10.715  19.669  0.00  0.00    +0.000 C 
ATOM     13  C   UNL     1       0.587   8.546  20.797  0.00  0.00    +0.000 A 
ATOM     14  C   UNL     1       1.346   7.374  20.821  0.00  0.00    +0.000 A 
ATOM     15  C   UNL     1       2.228   7.085  19.767  0.00  0.00    +0.000 A 
ATOM     16  C   UNL     1       3.039   5.848  19.804  0.00  0.00    +0.000 C 
ATOM     17  O   UNL     1       2.880   5.067  20.733  0.00  0.00    +0.000 OA
ENDROOT
BRANCH   1  19
ATOM     18  C   UNL     1       6.298   3.900  14.608  0.00  0.00    +0.000 C 
ATOM     19  O   UNL     1       6.692   4.880  15.564  0.00  0.00    +0.000 OA
ENDBRANCH   1  19
BRANCH   6  20
ATOM     20  O   UNL     1       5.093   7.006  15.476  0.00  0.00    +0.000 OA
ATOM     21  H   UNL     1       4.884   7.928  15.740  0.00  0.00    +0.000 HD
ENDBRANCH   6  20
BRANCH   3  22
ATOM     22  O   UNL     1       4.771   3.561  19.866  0.00  0.00    +0.000 OA
BRANCH  22  23
ATOM     23  C   UNL     1       4.551   2.180  19.869  0.00  0.00    +0.000 C 
ATOM     24  C   UNL     1       3.413   1.843  18.951  0.00  0.00    +0.000 C 
ATOM     25  O   UNL     1       5.197   1.341  20.480  0.00  0.00    +0.000 OA
ENDBRANCH  22  23
ENDBRANCH   3  22
BRANCH  13  26
ATOM     26  O   UNL     1      -0.325   8.914  21.827  0.00  0.00    +0.000 OA
BRANCH  26  27
ATOM     27  C   UNL     1      -0.041   9.650  22.984  0.00  0.00    +0.000 C 
ATOM     28  C   UNL     1      -1.097  10.697  23.195  0.00  0.00    +0.000 C 
ATOM     29  O   UNL     1       0.914   9.502  23.731  0.00  0.00    +0.000 OA
ENDBRANCH  26  27
ENDBRANCH  13  26
TORSDOF 6
ENDMDL
MODEL 2
REMARK VINA RESULT:      -7.8      1.613      2.057
REMARK  Name = 
REMARK  10 active torsions:
REMARK  status: ('A' for Active; 'I' for Inactive)
REMARK    1  A    between atoms: C_1  and  O_2
REMARK    2  A    between atoms: O_2  and  C_3
REMARK    3  A    between atoms: C_5  and  O_6
REMARK    4  A    between atoms: O_6  and  C_7
REMARK    5  A    between atoms: C_7  and  C_8
REMARK    6  A    between atoms: C_12  and  O_13
REMARK    7  A    between atoms: C_18  and  C_19
REMARK    8  A    between atoms: C_20  and  O_21
REMARK    9  A    between atoms: O_21  and  C_22
REMARK   10  A    between atoms: C_22  and  C_23
REMARK                            x       y       z     vdW  Elec       q    Type
REMARK                         _______ _______ _______ _____ _____    ______ ____
ROOT
ATOM      1  C   UNL     1       4.590   5.110  17.919  0.00  0.00    +0.000 A 
ATOM      2  C   UNL     1       4.197   4.538  19.131  0.00  0.00    +0.000 A 
ATOM      3  C   UNL     1       3.245   5.170  19.934  0.00  0.00    +0.000 A 
ATOM      4  C   UNL     1       2.699   6.414  19.559  0.00  0.00    +0.000 A 
ATOM      5  C   UNL     1       3.129   7.012  18.366  0.00  0.00    +0.000 A 
ATOM      6  C   UNL     1       4.065   6.352  17.546  0.00  0.00    +0.000 A 
ATOM      7  C   UNL     1       2.605   8.332  17.965  0.00  0.00    +0.000 C 
ATOM      8  O   UNL     1       2.966   8.840  16.909  0.00  0.00    +0.000 OA
ATOM      9  C   UNL     1       1.656   9.045  18.838  0.00  0.00    +0.000 A 
ATOM     10  C   UNL     1       1.210  10.327  18.480  0.00  0.00    +0.000 A 
ATOM     11  C   UNL     1       0.301  11.021  19.294  0.00  0.00    +0.000 A 
ATOM     12  C   UNL     1      -0.159  12.393  18.890  0.00  0.00    +0.000 C 
ATOM     13  C   UNL     1      -0.156  10.406  20.475  0.00  0.00    +0.000 A 
ATOM     14  C   UNL     1       0.289   9.131  20.830  0.00  0.00    +0.000 A 
ATOM     15  C   UNL     1       1.203   8.451  20.009  0.00  0.00    +0.000 A 
ATOM     16  C   UNL     1       1.681   7.105  20.395  0.00  0.00    +0.000 C 
ATOM     17  O   UNL     1       1.221   6.585  21.403  0.00  0.00    +0.000 OA
ENDROOT
BRANCH   1  19
ATOM     18  C   UNL     1       6.868   4.622  17.486  0.00  0.00    +0.000 C 
ATOM     19  O   UNL     1       5.506   4.534  17.076  0.00  0.00    +0.000 OA
ENDBRANCH   1  19
BRANCH   6  20
ATOM     20  O   UNL     1       4.490   6.885  16.352  0.00  0.00    +0.000 OA
ATOM     21  H   UNL     1       4.322   7.852  16.353  0.00  0.00    +0.000 HD
ENDBRANCH   6  20
BRANCH   3  22
ATOM     22  O   UNL     1       2.789   4.568  21.146  0.00  0.00    +0.000 OA
BRANCH  22  23
ATOM     23  C   UNL     1       2.198   3.315  21.339  0.00  0.00    +0.000 C 
ATOM     24  C   UNL     1       0.982   3.186  20.470  0.00  0.00    +0.000 C 
ATOM     25  O   UNL     1       2.606   2.420  22.066  0.00  0.00    +0.000 OA
ENDBRANCH  22  23
ENDBRANCH   3  22
BRANCH  13  26
ATOM     26  O   UNL     1      -1.077  11.163  21.255  0.00  0.00    +0.000 OA
BRANCH  26  27
ATOM     27  C   UNL     1      -1.023  11.398  22.634  0.00  0.00    +0.000 C 
ATOM     28  C   UNL     1      -1.819  12.624  22.976  0.00  0.00    +0.000 C 
ATOM     29  O   UNL     1      -0.424  10.735  23.467  0.00  0.00    +0.000 OA
ENDBRANCH  26  27
ENDBRANCH  13  26
TORSDOF 6
ENDMDL
MODEL 3
REMARK VINA RESULT:      -7.8      1.334      1.484
REMARK  Name = 
REMARK  10 active torsions:
REMARK  status: ('A' for Active; 'I' for Inactive)
REMARK    1  A    between atoms: C_1  and  O_2
REMARK    2  A    between atoms: O_2  and  C_3
REMARK    3  A    between atoms: C_5  and  O_6
REMARK    4  A    between atoms: O_6  and  C_7
REMARK    5  A    between atoms: C_7  and  C_8
REMARK    6  A    between atoms: C_12  and  O_13
REMARK    7  A    between atoms: C_18  and  C_19
REMARK    8  A    between atoms: C_20  and  O_21
REMARK    9  A    between atoms: O_21  and  C_22
REMARK   10  A    between atoms: C_22  and  C_23
REMARK                            x       y       z     vdW  Elec       q    Type
REMARK                         _______ _______ _______ _____ _____    ______ ____
ROOT
ATOM      1  C   UNL     1       5.019   4.717  17.320  0.00  0.00    +0.000 A 
ATOM      2  C   UNL     1       4.621   3.968  18.430  0.00  0.00    +0.000 A 
ATOM      3  C   UNL     1       3.653   4.465  19.305  0.00  0.00    +0.000 A 
ATOM      4  C   UNL     1       3.095   5.744  19.111  0.00  0.00    +0.000 A 
ATOM      5  C   UNL     1       3.530   6.516  18.024  0.00  0.00    +0.000 A 
ATOM      6  C   UNL     1       4.482   5.994  17.127  0.00  0.00    +0.000 A 
ATOM      7  C   UNL     1       2.993   7.875  17.816  0.00  0.00    +0.000 C 
ATOM      8  O   UNL     1       3.358   8.536  16.850  0.00  0.00    +0.000 OA
ATOM      9  C   UNL     1       2.026   8.441  18.773  0.00  0.00    +0.000 A 
ATOM     10  C   UNL     1       1.567   9.756  18.602  0.00  0.00    +0.000 A 
ATOM     11  C   UNL     1       0.642  10.312  19.498  0.00  0.00    +0.000 A 
ATOM     12  C   UNL     1       0.168  11.724  19.295  0.00  0.00    +0.000 C 
ATOM     13  C   UNL     1       0.180   9.525  20.570  0.00  0.00    +0.000 A 
ATOM     14  C   UNL     1       0.638   8.217  20.739  0.00  0.00    +0.000 A 
ATOM     15  C   UNL     1       1.569   7.676  19.838  0.00  0.00    +0.000 A 
ATOM     16  C   UNL     1       2.061   6.293  20.028  0.00  0.00    +0.000 C 
ATOM     17  O   UNL     1       1.597   5.625  20.943  0.00  0.00    +0.000 OA
ENDROOT
BRANCH   1  19
ATOM     18  C   UNL     1       7.312   4.535  16.750  0.00  0.00    +0.000 C 
ATOM     19  O   UNL     1       5.951   4.281  16.412  0.00  0.00    +0.000 OA
ENDBRANCH   1  19
BRANCH   6  20
ATOM     20  O   UNL     1       4.912   6.702  16.029  0.00  0.00    +0.000 OA
ATOM     21  H   UNL     1       5.073   6.080  15.288  0.00  0.00    +0.000 HD
ENDBRANCH   6  20
BRANCH   3  22
ATOM     22  O   UNL     1       3.193   3.685  20.410  0.00  0.00    +0.000 OA
BRANCH  22  23
ATOM     23  C   UNL     1       2.277   2.629  20.422  0.00  0.00    +0.000 C 
ATOM     24  C   UNL     1       1.694   2.475  21.795  0.00  0.00    +0.000 C 
ATOM     25  O   UNL     1       1.944   1.941  19.466  0.00  0.00    +0.000 OA
ENDBRANCH  22  23
ENDBRANCH   3  22
BRANCH  13  26
ATOM     26  O   UNL     1      -0.758  10.149  21.442  0.00  0.00    +0.000 OA
BRANCH  26  27
ATOM     27  C   UNL     1      -0.545  10.545  22.768  0.00  0.00    +0.000 C 
ATOM     28  C   UNL     1      -1.255  11.841  23.034  0.00  0.00    +0.000 C 
ATOM     29  O   UNL     1       0.116   9.958  23.611  0.00  0.00    +0.000 OA
ENDBRANCH  26  27
ENDBRANCH  13  26
TORSDOF 6
ENDMDL
MODEL 4
REMARK VINA RESULT:      -7.5      1.818      4.246
REMARK  Name = 
REMARK  10 active torsions:
REMARK  status: ('A' for Active; 'I' for Inactive)
REMARK    1  A    between atoms: C_1  and  O_2
REMARK    2  A    between atoms: O_2  and  C_3
REMARK    3  A    between atoms: C_5  and  O_6
REMARK    4  A    between atoms: O_6  and  C_7
REMARK    5  A    between atoms: C_7  and  C_8
REMARK    6  A    between atoms: C_12  and  O_13
REMARK    7  A    between atoms: C_18  and  C_19
REMARK    8  A    between atoms: C_20  and  O_21
REMARK    9  A    between atoms: O_21  and  C_22
REMARK   10  A    between atoms: C_22  and  C_23
REMARK                            x       y       z     vdW  Elec       q    Type
REMARK                         _______ _______ _______ _____ _____    ______ ____
ROOT
ATOM      1  C   UNL     1       4.073   3.407  18.909  0.00  0.00    +0.000 A 
ATOM      2  C   UNL     1       4.586   3.887  17.703  0.00  0.00    +0.000 A 
ATOM      3  C   UNL     1       4.346   5.205  17.309  0.00  0.00    +0.000 A 
ATOM      4  C   UNL     1       3.548   6.058  18.097  0.00  0.00    +0.000 A 
ATOM      5  C   UNL     1       2.992   5.561  19.285  0.00  0.00    +0.000 A 
ATOM      6  C   UNL     1       3.266   4.241  19.691  0.00  0.00    +0.000 A 
ATOM      7  C   UNL     1       2.120   6.417  20.112  0.00  0.00    +0.000 C 
ATOM      8  O   UNL     1       1.657   5.987  21.163  0.00  0.00    +0.000 OA
ATOM      9  C   UNL     1       1.798   7.787  19.673  0.00  0.00    +0.000 A 
ATOM     10  C   UNL     1       0.919   8.572  20.434  0.00  0.00    +0.000 A 
ATOM     11  C   UNL     1       0.604   9.881  20.036  0.00  0.00    +0.000 A 
ATOM     12  C   UNL     1      -0.342  10.701  20.866  0.00  0.00    +0.000 C 
ATOM     13  C   UNL     1       1.188  10.391  18.861  0.00  0.00    +0.000 A 
ATOM     14  C   UNL     1       2.062   9.607  18.105  0.00  0.00    +0.000 A 
ATOM     15  C   UNL     1       2.363   8.297  18.512  0.00  0.00    +0.000 A 
ATOM     16  C   UNL     1       3.281   7.467  17.701  0.00  0.00    +0.000 C 
ATOM     17  O   UNL     1       3.807   7.964  16.714  0.00  0.00    +0.000 OA
ENDROOT
BRANCH   1  19
ATOM     18  C   UNL     1       3.740   1.087  18.559  0.00  0.00    +0.000 C 
ATOM     19  O   UNL     1       4.285   2.129  19.363  0.00  0.00    +0.000 OA
ENDBRANCH   1  19
BRANCH   6  20
ATOM     20  O   UNL     1       2.771   3.723  20.865  0.00  0.00    +0.000 OA
ATOM     21  H   UNL     1       1.807   3.563  20.765  0.00  0.00    +0.000 HD
ENDBRANCH   6  20
BRANCH   3  22
ATOM     22  O   UNL     1       4.914   5.728  16.108  0.00  0.00    +0.000 OA
BRANCH  22  23
ATOM     23  C   UNL     1       6.141   5.425  15.509  0.00  0.00    +0.000 C 
ATOM     24  C   UNL     1       5.932   4.473  14.369  0.00  0.00    +0.000 C 
ATOM     25  O   UNL     1       7.234   5.882  15.814  0.00  0.00    +0.000 OA
ENDBRANCH  22  23
ENDBRANCH   3  22
BRANCH  13  26
ATOM     26  O   UNL     1       0.827  11.724  18.514  0.00  0.00    +0.000 OA
BRANCH  26  27
ATOM     27  C   UNL     1       1.644  12.860  18.558  0.00  0.00    +0.000 C 
ATOM     28  C   UNL     1       1.207  13.761  19.677  0.00  0.00    +0.000 C 
ATOM     29  O   UNL     1       2.577  13.121  17.814  0.00  0.00    +0.000 OA
ENDBRANCH  26  27
ENDBRANCH  13  26
TORSDOF 6
ENDMDL
MODEL 5
REMARK VINA RESULT:      -7.4      1.878      7.152
REMARK  Name = 
REMARK  10 active torsions:
REMARK  status: ('A' for Active; 'I' for Inactive)
REMARK    1  A    between atoms: C_1  and  O_2
REMARK    2  A    between atoms: O_2  and  C_3
REMARK    3  A    between atoms: C_5  and  O_6
REMARK    4  A    between atoms: O_6  and  C_7
REMARK    5  A    between atoms: C_7  and  C_8
REMARK    6  A    between atoms: C_12  and  O_13
REMARK    7  A    between atoms: C_18  and  C_19
REMARK    8  A    between atoms: C_20  and  O_21
REMARK    9  A    between atoms: O_21  and  C_22
REMARK   10  A    between atoms: C_22  and  C_23
REMARK                            x       y       z     vdW  Elec       q    Type
REMARK                         _______ _______ _______ _____ _____    ______ ____
ROOT
ATOM      1  C   UNL     1       0.963  11.730  18.968  0.00  0.00    +0.000 A 
ATOM      2  C   UNL     1       0.198  11.340  20.069  0.00  0.00    +0.000 A 
ATOM      3  C   UNL     1       0.264  10.029  20.545  0.00  0.00    +0.000 A 
ATOM      4  C   UNL     1       1.065   9.067  19.897  0.00  0.00    +0.000 A 
ATOM      5  C   UNL     1       1.796   9.446  18.762  0.00  0.00    +0.000 A 
ATOM      6  C   UNL     1       1.750  10.779  18.309  0.00  0.00    +0.000 A 
ATOM      7  C   UNL     1       2.614   8.454  18.039  0.00  0.00    +0.000 C 
ATOM      8  O   UNL     1       3.271   8.796  17.062  0.00  0.00    +0.000 OA
ATOM      9  C   UNL     1       2.636   7.049  18.485  0.00  0.00    +0.000 A 
ATOM     10  C   UNL     1       3.367   6.099  17.756  0.00  0.00    +0.000 A 
ATOM     11  C   UNL     1       3.406   4.758  18.167  0.00  0.00    +0.000 A 
ATOM     12  C   UNL     1       4.194   3.759  17.368  0.00  0.00    +0.000 C 
ATOM     13  C   UNL     1       2.699   4.384  19.326  0.00  0.00    +0.000 A 
ATOM     14  C   UNL     1       1.971   5.331  20.050  0.00  0.00    +0.000 A 
ATOM     15  C   UNL     1       1.937   6.668  19.623  0.00  0.00    +0.000 A 
ATOM     16  C   UNL     1       1.154   7.665  20.387  0.00  0.00    +0.000 C 
ATOM     17  O   UNL     1       0.595   7.311  21.416  0.00  0.00    +0.000 OA
ENDROOT
BRANCH   1  19
ATOM     18  C   UNL     1       1.273  14.041  19.387  0.00  0.00    +0.000 C 
ATOM     19  O   UNL     1       0.958  13.005  18.462  0.00  0.00    +0.000 OA
ENDBRANCH   1  19
BRANCH   6  20
ATOM     20  O   UNL     1       2.476  11.204  17.221  0.00  0.00    +0.000 OA
ATOM     21  H   UNL     1       1.972  11.008  16.402  0.00  0.00    +0.000 HD
ENDBRANCH   6  20
BRANCH   3  22
ATOM     22  O   UNL     1      -0.466   9.631  21.706  0.00  0.00    +0.000 OA
BRANCH  22  23
ATOM     23  C   UNL     1      -0.390  10.132  23.009  0.00  0.00    +0.000 C 
ATOM     24  C   UNL     1      -1.449  11.174  23.218  0.00  0.00    +0.000 C 
ATOM     25  O   UNL     1       0.382   9.769  23.886  0.00  0.00    +0.000 OA
ENDBRANCH  22  23
ENDBRANCH   3  22
BRANCH  13  26
ATOM     26  O   UNL     1       2.779   3.009  19.688  0.00  0.00    +0.000 OA
BRANCH  26  27
ATOM     27  C   UNL     1       3.325   2.474  20.861  0.00  0.00    +0.000 C 
ATOM     28  C   UNL     1       4.673   1.879  20.573  0.00  0.00    +0.000 C 
ATOM     29  O   UNL     1       2.812   2.467  21.970  0.00  0.00    +0.000 OA
ENDBRANCH  26  27
ENDBRANCH  13  26
TORSDOF 6
ENDMDL
MODEL 6
REMARK VINA RESULT:      -7.2      2.197      8.546
REMARK  Name = 
REMARK  10 active torsions:
REMARK  status: ('A' for Active; 'I' for Inactive)
REMARK    1  A    between atoms: C_1  and  O_2
REMARK    2  A    between atoms: O_2  and  C_3
REMARK    3  A    between atoms: C_5  and  O_6
REMARK    4  A    between atoms: O_6  and  C_7
REMARK    5  A    between atoms: C_7  and  C_8
REMARK    6  A    between atoms: C_12  and  O_13
REMARK    7  A    between atoms: C_18  and  C_19
REMARK    8  A    between atoms: C_20  and  O_21
REMARK    9  A    between atoms: O_21  and  C_22
REMARK   10  A    between atoms: C_22  and  C_23
REMARK                            x       y       z     vdW  Elec       q    Type
REMARK                         _______ _______ _______ _____ _____    ______ ____
ROOT
ATOM      1  C   UNL     1      -0.563  10.911  21.780  0.00  0.00    +0.000 A 
ATOM      2  C   UNL     1      -0.234  11.770  20.730  0.00  0.00    +0.000 A 
ATOM      3  C   UNL     1       0.532  11.311  19.657  0.00  0.00    +0.000 A 
ATOM      4  C   UNL     1       1.024   9.990  19.636  0.00  0.00    +0.000 A 
ATOM      5  C   UNL     1       0.735   9.141  20.714  0.00  0.00    +0.000 A 
ATOM      6  C   UNL     1      -0.067   9.602  21.776  0.00  0.00    +0.000 A 
ATOM      7  C   UNL     1       1.267   7.765  20.740  0.00  0.00    +0.000 C 
ATOM      8  O   UNL     1       0.991   7.019  21.673  0.00  0.00    +0.000 OA
ATOM      9  C   UNL     1       2.138   7.290  19.651  0.00  0.00    +0.000 A 
ATOM     10  C   UNL     1       2.690   6.002  19.713  0.00  0.00    +0.000 A 
ATOM     11  C   UNL     1       3.518   5.527  18.684  0.00  0.00    +0.000 A 
ATOM     12  C   UNL     1       4.099   4.145  18.776  0.00  0.00    +0.000 C 
ATOM     13  C   UNL     1       3.781   6.368  17.585  0.00  0.00    +0.000 A 
ATOM     14  C   UNL     1       3.231   7.650  17.525  0.00  0.00    +0.000 A 
ATOM     15  C   UNL     1       2.410   8.113  18.566  0.00  0.00    +0.000 A 
ATOM     16  C   UNL     1       1.840   9.477  18.502  0.00  0.00    +0.000 C 
ATOM     17  O   UNL     1       2.051  10.157  17.507  0.00  0.00    +0.000 OA
ENDROOT
BRANCH   1  19
ATOM     18  C   UNL     1      -1.476  12.697  23.041  0.00  0.00    +0.000 C 
ATOM     19  O   UNL     1      -1.325  11.292  22.855  0.00  0.00    +0.000 OA
ENDBRANCH   1  19
BRANCH   6  20
ATOM     20  O   UNL     1      -0.403   8.795  22.838  0.00  0.00    +0.000 OA
ATOM     21  H   UNL     1       0.081   9.095  23.637  0.00  0.00    +0.000 HD
ENDBRANCH   6  20
BRANCH   3  22
ATOM     22  O   UNL     1       0.826  12.160  18.547  0.00  0.00    +0.000 OA
BRANCH  22  23
ATOM     23  C   UNL     1       1.298  13.477  18.545  0.00  0.00    +0.000 C 
ATOM     24  C   UNL     1       2.780  13.487  18.314  0.00  0.00    +0.000 C 
ATOM     25  O   UNL     1       0.626  14.492  18.668  0.00  0.00    +0.000 OA
ENDBRANCH  22  23
ENDBRANCH   3  22
BRANCH  13  26
ATOM     26  O   UNL     1       4.627   5.826  16.575  0.00  0.00    +0.000 OA
BRANCH  26  27
ATOM     27  C   UNL     1       5.999   6.052  16.411  0.00  0.00    +0.000 C 
ATOM     28  C   UNL     1       6.667   4.801  15.917  0.00  0.00    +0.000 C 
ATOM     29  O   UNL     1       6.602   7.090  16.632  0.00  0.00    +0.000 OA
ENDBRANCH  26  27
ENDBRANCH  13  26
TORSDOF 6
ENDMDL
MODEL 7
REMARK VINA RESULT:      -7.2      1.741      4.211
REMARK  Name = 
REMARK  10 active torsions:
REMARK  status: ('A' for Active; 'I' for Inactive)
REMARK    1  A    between atoms: C_1  and  O_2
REMARK    2  A    between atoms: O_2  and  C_3
REMARK    3  A    between atoms: C_5  and  O_6
REMARK    4  A    between atoms: O_6  and  C_7
REMARK    5  A    between atoms: C_7  and  C_8
REMARK    6  A    between atoms: C_12  and  O_13
REMARK    7  A    between atoms: C_18  and  C_19
REMARK    8  A    between atoms: C_20  and  O_21
REMARK    9  A    between atoms: O_21  and  C_22
REMARK   10  A    between atoms: C_22  and  C_23
REMARK                            x       y       z     vdW  Elec       q    Type
REMARK                         _______ _______ _______ _____ _____    ______ ____
ROOT
ATOM      1  C   UNL     1       4.109   3.383  18.879  0.00  0.00    +0.000 A 
ATOM      2  C   UNL     1       4.591   3.886  17.669  0.00  0.00    +0.000 A 
ATOM      3  C   UNL     1       4.329   5.206  17.300  0.00  0.00    +0.000 A 
ATOM      4  C   UNL     1       3.538   6.039  18.116  0.00  0.00    +0.000 A 
ATOM      5  C   UNL     1       3.013   5.520  19.308  0.00  0.00    +0.000 A 
ATOM      6  C   UNL     1       3.310   4.198  19.690  0.00  0.00    +0.000 A 
ATOM      7  C   UNL     1       2.149   6.355  20.165  0.00  0.00    +0.000 C 
ATOM      8  O   UNL     1       1.712   5.905  21.218  0.00  0.00    +0.000 OA
ATOM      9  C   UNL     1       1.803   7.726  19.751  0.00  0.00    +0.000 A 
ATOM     10  C   UNL     1       0.932   8.492  20.541  0.00  0.00    +0.000 A 
ATOM     11  C   UNL     1       0.594   9.802  20.169  0.00  0.00    +0.000 A 
ATOM     12  C   UNL     1      -0.343  10.601  21.030  0.00  0.00    +0.000 C 
ATOM     13  C   UNL     1       1.148  10.335  18.989  0.00  0.00    +0.000 A 
ATOM     14  C   UNL     1       2.015   9.571  18.205  0.00  0.00    +0.000 A 
ATOM     15  C   UNL     1       2.339   8.260  18.586  0.00  0.00    +0.000 A 
ATOM     16  C   UNL     1       3.248   7.450  17.745  0.00  0.00    +0.000 C 
ATOM     17  O   UNL     1       3.748   7.967  16.754  0.00  0.00    +0.000 OA
ENDROOT
BRANCH   1  19
ATOM     18  C   UNL     1       3.659   1.073  18.602  0.00  0.00    +0.000 C 
ATOM     19  O   UNL     1       4.344   2.102  19.310  0.00  0.00    +0.000 OA
ENDBRANCH   1  19
BRANCH   6  20
ATOM     20  O   UNL     1       2.844   3.657  20.866  0.00  0.00    +0.000 OA
ATOM     21  H   UNL     1       2.005   3.179  20.690  0.00  0.00    +0.000 HD
ENDBRANCH   6  20
BRANCH   3  22
ATOM     22  O   UNL     1       4.867   5.752  16.094  0.00  0.00    +0.000 OA
BRANCH  22  23
ATOM     23  C   UNL     1       6.022   5.382  15.398  0.00  0.00    +0.000 C 
ATOM     24  C   UNL     1       5.664   4.459  14.270  0.00  0.00    +0.000 C 
ATOM     25  O   UNL     1       7.161   5.767  15.619  0.00  0.00    +0.000 OA
ENDBRANCH  22  23
ENDBRANCH   3  22
BRANCH  13  26
ATOM     26  O   UNL     1       0.766  11.669  18.669  0.00  0.00    +0.000 OA
BRANCH  26  27
ATOM     27  C   UNL     1      -0.503  12.114  18.278  0.00  0.00    +0.000 C 
ATOM     28  C   UNL     1      -0.627  13.589  18.528  0.00  0.00    +0.000 C 
ATOM     29  O   UNL     1      -1.404  11.437  17.806  0.00  0.00    +0.000 OA
ENDBRANCH  26  27
ENDBRANCH  13  26
TORSDOF 6
ENDMDL
MODEL 8
REMARK VINA RESULT:      -7.2      2.007      4.478
REMARK  Name = 
REMARK  10 active torsions:
REMARK  status: ('A' for Active; 'I' for Inactive)
REMARK    1  A    between atoms: C_1  and  O_2
REMARK    2  A    between atoms: O_2  and  C_3
REMARK    3  A    between atoms: C_5  and  O_6
REMARK    4  A    between atoms: O_6  and  C_7
REMARK    5  A    between atoms: C_7  and  C_8
REMARK    6  A    between atoms: C_12  and  O_13
REMARK    7  A    between atoms: C_18  and  C_19
REMARK    8  A    between atoms: C_20  and  O_21
REMARK    9  A    between atoms: O_21  and  C_22
REMARK   10  A    between atoms: C_22  and  C_23
REMARK                            x       y       z     vdW  Elec       q    Type
REMARK                         _______ _______ _______ _____ _____    ______ ____
ROOT
ATOM      1  C   UNL     1       3.549   4.025  19.400  0.00  0.00    +0.000 A 
ATOM      2  C   UNL     1       4.083   4.426  18.174  0.00  0.00    +0.000 A 
ATOM      3  C   UNL     1       3.868   5.721  17.700  0.00  0.00    +0.000 A 
ATOM      4  C   UNL     1       3.073   6.630  18.425  0.00  0.00    +0.000 A 
ATOM      5  C   UNL     1       2.495   6.214  19.633  0.00  0.00    +0.000 A 
ATOM      6  C   UNL     1       2.745   4.916  20.121  0.00  0.00    +0.000 A 
ATOM      7  C   UNL     1       1.626   7.130  20.396  0.00  0.00    +0.000 C 
ATOM      8  O   UNL     1       1.144   6.769  21.464  0.00  0.00    +0.000 OA
ATOM      9  C   UNL     1       1.330   8.474  19.871  0.00  0.00    +0.000 A 
ATOM     10  C   UNL     1       0.453   9.317  20.572  0.00  0.00    +0.000 A 
ATOM     11  C   UNL     1       0.162  10.603  20.094  0.00  0.00    +0.000 A 
ATOM     12  C   UNL     1      -0.782  11.485  20.861  0.00  0.00    +0.000 C 
ATOM     13  C   UNL     1       0.768  11.034  18.898  0.00  0.00    +0.000 A 
ATOM     14  C   UNL     1       1.640  10.194  18.202  0.00  0.00    +0.000 A 
ATOM     15  C   UNL     1       1.917   8.907  18.690  0.00  0.00    +0.000 A 
ATOM     16  C   UNL     1       2.832   8.016  17.942  0.00  0.00    +0.000 C 
ATOM     17  O   UNL     1       3.377   8.447  16.934  0.00  0.00    +0.000 OA
ENDROOT
BRANCH   1  19
ATOM     18  C   UNL     1       3.685   1.693  19.007  0.00  0.00    +0.000 C 
ATOM     19  O   UNL     1       3.737   2.775  19.932  0.00  0.00    +0.000 OA
ENDBRANCH   1  19
BRANCH   6  20
ATOM     20  O   UNL     1       2.228   4.476  21.316  0.00  0.00    +0.000 OA
ATOM     21  H   UNL     1       1.805   5.230  21.781  0.00  0.00    +0.000 HD
ENDBRANCH   6  20
BRANCH   3  22
ATOM     22  O   UNL     1       4.459   6.163  16.477  0.00  0.00    +0.000 OA
BRANCH  22  23
ATOM     23  C   UNL     1       5.806   6.169  16.100  0.00  0.00    +0.000 C 
ATOM     24  C   UNL     1       6.625   6.864  17.147  0.00  0.00    +0.000 C 
ATOM     25  O   UNL     1       6.285   5.657  15.098  0.00  0.00    +0.000 OA
ENDBRANCH  22  23
ENDBRANCH   3  22
BRANCH  13  26
ATOM     26  O   UNL     1       0.431  12.349  18.467  0.00  0.00    +0.000 OA
BRANCH  26  27
ATOM     27  C   UNL     1       1.253  13.482  18.489  0.00  0.00    +0.000 C 
ATOM     28  C   UNL     1       0.499  14.649  19.062  0.00  0.00    +0.000 C 
ATOM     29  O   UNL     1       2.410  13.556  18.105  0.00  0.00    +0.000 OA
ENDBRANCH  26  27
ENDBRANCH  13  26
TORSDOF 6
ENDMDL
MODEL 9
REMARK VINA RESULT:      -7.0      2.657      7.972
REMARK  Name = 
REMARK  10 active torsions:
REMARK  status: ('A' for Active; 'I' for Inactive)
REMARK    1  A    between atoms: C_1  and  O_2
REMARK    2  A    between atoms: O_2  and  C_3
REMARK    3  A    between atoms: C_5  and  O_6
REMARK    4  A    between atoms: O_6  and  C_7
REMARK    5  A    between atoms: C_7  and  C_8
REMARK    6  A    between atoms: C_12  and  O_13
REMARK    7  A    between atoms: C_18  and  C_19
REMARK    8  A    between atoms: C_20  and  O_21
REMARK    9  A    between atoms: O_21  and  C_22
REMARK   10  A    between atoms: C_22  and  C_23
REMARK                            x       y       z     vdW  Elec       q    Type
REMARK                         _______ _______ _______ _____ _____    ______ ____
ROOT
ATOM      1  C   UNL     1       0.475  13.422  19.243  0.00  0.00    +0.000 A 
ATOM      2  C   UNL     1      -0.151  13.181  20.468  0.00  0.00    +0.000 A 
ATOM      3  C   UNL     1      -0.051  11.929  21.077  0.00  0.00    +0.000 A 
ATOM      4  C   UNL     1       0.643  10.876  20.449  0.00  0.00    +0.000 A 
ATOM      5  C   UNL     1       1.231  11.103  19.196  0.00  0.00    +0.000 A 
ATOM      6  C   UNL     1       1.154  12.378  18.604  0.00  0.00    +0.000 A 
ATOM      7  C   UNL     1       1.931  10.010  18.494  0.00  0.00    +0.000 C 
ATOM      8  O   UNL     1       2.465  10.220  17.410  0.00  0.00    +0.000 OA
ATOM      9  C   UNL     1       1.982   8.663  19.091  0.00  0.00    +0.000 A 
ATOM     10  C   UNL     1       2.596   7.615  18.389  0.00  0.00    +0.000 A 
ATOM     11  C   UNL     1       2.661   6.326  18.941  0.00  0.00    +0.000 A 
ATOM     12  C   UNL     1       3.321   5.219  18.169  0.00  0.00    +0.000 C 
ATOM     13  C   UNL     1       2.100   6.106  20.214  0.00  0.00    +0.000 A 
ATOM     14  C   UNL     1       1.488   7.151  20.910  0.00  0.00    +0.000 A 
ATOM     15  C   UNL     1       1.426   8.433  20.342  0.00  0.00    +0.000 A 
ATOM     16  C   UNL     1       0.766   9.534  21.079  0.00  0.00    +0.000 C 
ATOM     17  O   UNL     1       0.336   9.314  22.204  0.00  0.00    +0.000 OA
ENDROOT
BRANCH   1  19
ATOM     18  C   UNL     1      -0.151  15.705  19.335  0.00  0.00    +0.000 C 
ATOM     19  O   UNL     1       0.431  14.633  18.600  0.00  0.00    +0.000 OA
ENDBRANCH   1  19
BRANCH   6  20
ATOM     20  O   UNL     1       1.744  12.656  17.393  0.00  0.00    +0.000 OA
ATOM     21  H   UNL     1       2.681  12.366  17.417  0.00  0.00    +0.000 HD
ENDBRANCH   6  20
BRANCH   3  22
ATOM     22  O   UNL     1      -0.635  11.686  22.357  0.00  0.00    +0.000 OA
BRANCH  22  23
ATOM     23  C   UNL     1      -1.372  12.555  23.169  0.00  0.00    +0.000 C 
ATOM     24  C   UNL     1      -2.784  12.065  23.290  0.00  0.00    +0.000 C 
ATOM     25  O   UNL     1      -0.951  13.549  23.743  0.00  0.00    +0.000 OA
ENDBRANCH  22  23
ENDBRANCH   3  22
BRANCH  13  26
ATOM     26  O   UNL     1       2.199   4.777  20.717  0.00  0.00    +0.000 OA
BRANCH  26  27
ATOM     27  C   UNL     1       1.279   3.737  20.543  0.00  0.00    +0.000 C 
ATOM     28  C   UNL     1       1.484   2.691  21.601  0.00  0.00    +0.000 C 
ATOM     29  O   UNL     1       0.427   3.650  19.672  0.00  0.00    +0.000 OA
ENDBRANCH  26  27
ENDBRANCH  13  26
TORSDOF 6
ENDMDL
