MODEL 1
REMARK VINA RESULT:      -8.7      0.000      0.000
REMARK  Name = 
REMARK  7 active torsions:
REMARK  status: ('A' for Active; 'I' for Inactive)
REMARK    1  A    between atoms: C_1  and  C_2
REMARK    2  A    between atoms: N_6  and  C_7
REMARK    3  A    between atoms: N_13  and  C_14
REMARK    4  A    between atoms: C_14  and  C_15
REMARK    5  A    between atoms: C_18  and  C_19
REMARK    6  A    between atoms: C_27  and  N_28
REMARK    7  A    between atoms: N_28  and  C_29
REMARK                            x       y       z     vdW  Elec       q    Type
REMARK                         _______ _______ _______ _____ _____    ______ ____
ROOT
ATOM      1  C   UNL     1       4.022  14.060  18.116  0.00  0.00    +0.000 C 
ATOM      2  C   UNL     1       3.419  15.107  19.038  0.00  0.00    +0.000 C 
ATOM      3  C   UNL     1       3.517  16.513  18.390  0.00  0.00    +0.000 C 
ATOM      4  N   UNL     1       2.129  16.998  18.122  0.00  0.00    +0.000 NA
ATOM      5  C   UNL     1       1.362  16.098  18.678  0.00  0.00    +0.000 C 
ATOM      6  N   UNL     1      -0.003  16.271  18.757  0.00  0.00    +0.000 N 
ATOM      7  C   UNL     1      -0.680  17.386  18.130  0.00  0.00    +0.000 C 
ATOM      8  C   UNL     1      -0.754  15.484  19.621  0.00  0.00    +0.000 C 
ATOM      9  O   UNL     1      -1.836  15.836  20.084  0.00  0.00    +0.000 OA
ATOM     10  C   UNL     1      -0.102  14.246  19.978  0.00  0.00    +0.000 A 
ATOM     11  C   UNL     1       1.277  14.024  19.800  0.00  0.00    +0.000 A 
ATOM     12  N   UNL     1       1.653  12.832  20.277  0.00  0.00    +0.000 NA
ATOM     13  N   UNL     1       0.486  12.266  20.704  0.00  0.00    +0.000 N 
ATOM     14  C   UNL     1      -0.622  13.075  20.479  0.00  0.00    +0.000 A 
ATOM     15  N   UNL     1       1.994  14.995  19.197  0.00  0.00    +0.000 N 
ENDROOT
BRANCH  14  16
ATOM     16  N   UNL     1      -1.902  12.658  20.704  0.00  0.00    +0.000 N 
ATOM     17  H   UNL     1      -2.380  12.968  21.546  0.00  0.00    +0.000 HD
BRANCH  16  18
ATOM     18  C   UNL     1      -2.806  12.241  19.691  0.00  0.00    +0.000 A 
ATOM     19  C   UNL     1      -4.186  12.496  19.768  0.00  0.00    +0.000 A 
ATOM     20  C   UNL     1      -5.065  12.063  18.771  0.00  0.00    +0.000 A 
ATOM     21  C   UNL     1      -4.574  11.392  17.657  0.00  0.00    +0.000 A 
ATOM     22  C   UNL     1      -3.209  11.136  17.554  0.00  0.00    +0.000 A 
ATOM     23  C   UNL     1      -2.333  11.552  18.566  0.00  0.00    +0.000 A 
ENDBRANCH  16  18
ENDBRANCH  14  16
BRANCH  13  24
ATOM     24  C   UNL     1       0.401  10.900  21.229  0.00  0.00    +0.000 C 
BRANCH  24  25
ATOM     25  C   UNL     1       0.857   9.744  20.367  0.00  0.00    +0.000 A 
ATOM     26  C   UNL     1       1.070   9.908  18.995  0.00  0.00    +0.000 A 
ATOM     27  C   UNL     1       1.721   8.914  18.245  0.00  0.00    +0.000 A 
ATOM     28  C   UNL     1       2.195   7.726  18.832  0.00  0.00    +0.000 A 
ATOM     29  C   UNL     1       1.898   7.540  20.193  0.00  0.00    +0.000 A 
ATOM     30  C   UNL     1       1.238   8.527  20.947  0.00  0.00    +0.000 A 
BRANCH  28  31
ATOM     31  C   UNL     1       3.027   6.757  18.071  0.00  0.00    +0.000 A 
ATOM     32  C   UNL     1       4.106   7.197  17.279  0.00  0.00    +0.000 A 
ATOM     33  C   UNL     1       4.915   6.299  16.573  0.00  0.00    +0.000 A 
ATOM     34  C   UNL     1       4.673   4.932  16.651  0.00  0.00    +0.000 A 
ATOM     35  C   UNL     1       3.615   4.463  17.425  0.00  0.00    +0.000 A 
ATOM     36  C   UNL     1       2.799   5.368  18.120  0.00  0.00    +0.000 A 
ENDBRANCH  28  31
ENDBRANCH  24  25
ENDBRANCH  13  24
TORSDOF 5
ENDMDL
MODEL 2
REMARK VINA RESULT:      -8.6      0.725      1.605
REMARK  Name = 
REMARK  7 active torsions:
REMARK  status: ('A' for Active; 'I' for Inactive)
REMARK    1  A    between atoms: C_1  and  C_2
REMARK    2  A    between atoms: N_6  and  C_7
REMARK    3  A    between atoms: N_13  and  C_14
REMARK    4  A    between atoms: C_14  and  C_15
REMARK    5  A    between atoms: C_18  and  C_19
REMARK    6  A    between atoms: C_27  and  N_28
REMARK    7  A    between atoms: N_28  and  C_29
REMARK                            x       y       z     vdW  Elec       q    Type
REMARK                         _______ _______ _______ _____ _____    ______ ____
ROOT
ATOM      1  C   UNL     1       4.083  14.061  18.682  0.00  0.00    +0.000 C 
ATOM      2  C   UNL     1       3.329  14.903  19.698  0.00  0.00    +0.000 C 
ATOM      3  C   UNL     1       3.535  16.411  19.403  0.00  0.00    +0.000 C 
ATOM      4  N   UNL     1       2.214  16.994  19.019  0.00  0.00    +0.000 NA
ATOM      5  C   UNL     1       1.364  16.024  19.225  0.00  0.00    +0.000 C 
ATOM      6  N   UNL     1       0.006  16.225  19.110  0.00  0.00    +0.000 N 
ATOM      7  C   UNL     1      -0.554  17.475  18.639  0.00  0.00    +0.000 C 
ATOM      8  C   UNL     1      -0.882  15.298  19.639  0.00  0.00    +0.000 C 
ATOM      9  O   UNL     1      -2.028  15.580  19.979  0.00  0.00    +0.000 OA
ATOM     10  C   UNL     1      -0.300  13.989  19.818  0.00  0.00    +0.000 A 
ATOM     11  C   UNL     1       1.089  13.760  19.830  0.00  0.00    +0.000 A 
ATOM     12  N   UNL     1       1.378  12.479  20.088  0.00  0.00    +0.000 NA
ATOM     13  N   UNL     1       0.156  11.877  20.176  0.00  0.00    +0.000 N 
ATOM     14  C   UNL     1      -0.897  12.756  19.952  0.00  0.00    +0.000 A 
ATOM     15  N   UNL     1       1.898  14.812  19.586  0.00  0.00    +0.000 N 
ENDROOT
BRANCH  14  16
ATOM     16  N   UNL     1      -2.196  12.348  19.861  0.00  0.00    +0.000 N 
ATOM     17  H   UNL     1      -2.872  12.700  20.535  0.00  0.00    +0.000 HD
BRANCH  16  18
ATOM     18  C   UNL     1      -2.814  11.878  18.671  0.00  0.00    +0.000 A 
ATOM     19  C   UNL     1      -2.072  11.535  17.527  0.00  0.00    +0.000 A 
ATOM     20  C   UNL     1      -2.697  11.091  16.358  0.00  0.00    +0.000 A 
ATOM     21  C   UNL     1      -4.079  10.949  16.322  0.00  0.00    +0.000 A 
ATOM     22  C   UNL     1      -4.834  11.273  17.446  0.00  0.00    +0.000 A 
ATOM     23  C   UNL     1      -4.207  11.740  18.609  0.00  0.00    +0.000 A 
ENDBRANCH  16  18
ENDBRANCH  14  16
BRANCH  13  24
ATOM     24  C   UNL     1      -0.017  10.434  20.364  0.00  0.00    +0.000 C 
BRANCH  24  25
ATOM     25  C   UNL     1       1.022   9.484  19.811  0.00  0.00    +0.000 A 
ATOM     26  C   UNL     1       1.426   8.358  20.533  0.00  0.00    +0.000 A 
ATOM     27  C   UNL     1       2.199   7.354  19.926  0.00  0.00    +0.000 A 
ATOM     28  C   UNL     1       2.589   7.426  18.576  0.00  0.00    +0.000 A 
ATOM     29  C   UNL     1       2.247   8.603  17.888  0.00  0.00    +0.000 A 
ATOM     30  C   UNL     1       1.482   9.616  18.494  0.00  0.00    +0.000 A 
BRANCH  28  31
ATOM     31  C   UNL     1       3.262   6.288  17.895  0.00  0.00    +0.000 A 
ATOM     32  C   UNL     1       2.700   4.996  17.923  0.00  0.00    +0.000 A 
ATOM     33  C   UNL     1       3.306   3.917  17.269  0.00  0.00    +0.000 A 
ATOM     34  C   UNL     1       4.487   4.103  16.559  0.00  0.00    +0.000 A 
ATOM     35  C   UNL     1       5.068   5.367  16.512  0.00  0.00    +0.000 A 
ATOM     36  C   UNL     1       4.464   6.444  17.179  0.00  0.00    +0.000 A 
ENDBRANCH  28  31
ENDBRANCH  24  25
ENDBRANCH  13  24
TORSDOF 5
ENDMDL
MODEL 3
REMARK VINA RESULT:      -8.5      1.220      1.922
REMARK  Name = 
REMARK  7 active torsions:
REMARK  status: ('A' for Active; 'I' for Inactive)
REMARK    1  A    between atoms: C_1  and  C_2
REMARK    2  A    between atoms: N_6  and  C_7
REMARK    3  A    between atoms: N_13  and  C_14
REMARK    4  A    between atoms: C_14  and  C_15
REMARK    5  A    between atoms: C_18  and  C_19
REMARK    6  A    between atoms: C_27  and  N_28
REMARK    7  A    between atoms: N_28  and  C_29
REMARK                            x       y       z     vdW  Elec       q    Type
REMARK                         _______ _______ _______ _____ _____    ______ ____
ROOT
ATOM      1  C   UNL     1       4.335  14.158  18.130  0.00  0.00    +0.000 C 
ATOM      2  C   UNL     1       3.709  15.064  19.177  0.00  0.00    +0.000 C 
ATOM      3  C   UNL     1       4.075  16.545  18.894  0.00  0.00    +0.000 C 
ATOM      4  N   UNL     1       2.818  17.278  18.554  0.00  0.00    +0.000 NA
ATOM      5  C   UNL     1       1.870  16.406  18.774  0.00  0.00    +0.000 C 
ATOM      6  N   UNL     1       0.540  16.760  18.700  0.00  0.00    +0.000 N 
ATOM      7  C   UNL     1       0.112  18.072  18.260  0.00  0.00    +0.000 C 
ATOM      8  C   UNL     1      -0.432  15.930  19.244  0.00  0.00    +0.000 C 
ATOM      9  O   UNL     1      -1.529  16.335  19.621  0.00  0.00    +0.000 OA
ATOM     10  C   UNL     1       0.004  14.562  19.391  0.00  0.00    +0.000 A 
ATOM     11  C   UNL     1       1.359  14.179  19.361  0.00  0.00    +0.000 A 
ATOM     12  N   UNL     1       1.509  12.870  19.595  0.00  0.00    +0.000 NA
ATOM     13  N   UNL     1       0.230  12.408  19.712  0.00  0.00    +0.000 N 
ATOM     14  C   UNL     1      -0.724  13.402  19.529  0.00  0.00    +0.000 A 
ATOM     15  N   UNL     1       2.274  15.136  19.105  0.00  0.00    +0.000 N 
ENDROOT
BRANCH  14  16
ATOM     16  N   UNL     1      -2.063  13.144  19.470  0.00  0.00    +0.000 N 
ATOM     17  H   UNL     1      -2.430  12.624  18.677  0.00  0.00    +0.000 HD
BRANCH  16  18
ATOM     18  C   UNL     1      -2.926  13.093  20.598  0.00  0.00    +0.000 A 
ATOM     19  C   UNL     1      -4.289  12.769  20.483  0.00  0.00    +0.000 A 
ATOM     20  C   UNL     1      -5.129  12.741  21.600  0.00  0.00    +0.000 A 
ATOM     21  C   UNL     1      -4.612  13.004  22.863  0.00  0.00    +0.000 A 
ATOM     22  C   UNL     1      -3.262  13.318  23.002  0.00  0.00    +0.000 A 
ATOM     23  C   UNL     1      -2.427  13.368  21.878  0.00  0.00    +0.000 A 
ENDBRANCH  16  18
ENDBRANCH  14  16
BRANCH  13  24
ATOM     24  C   UNL     1      -0.100  10.990  19.888  0.00  0.00    +0.000 C 
BRANCH  24  25
ATOM     25  C   UNL     1       0.903   9.938  19.469  0.00  0.00    +0.000 A 
ATOM     26  C   UNL     1       1.223   8.871  20.312  0.00  0.00    +0.000 A 
ATOM     27  C   UNL     1       1.959   7.773  19.835  0.00  0.00    +0.000 A 
ATOM     28  C   UNL     1       2.393   7.690  18.499  0.00  0.00    +0.000 A 
ATOM     29  C   UNL     1       2.136   8.808  17.687  0.00  0.00    +0.000 A 
ATOM     30  C   UNL     1       1.409   9.914  18.162  0.00  0.00    +0.000 A 
BRANCH  28  31
ATOM     31  C   UNL     1       3.024   6.456  17.958  0.00  0.00    +0.000 A 
ATOM     32  C   UNL     1       4.275   6.510  17.312  0.00  0.00    +0.000 A 
ATOM     33  C   UNL     1       4.896   5.357  16.816  0.00  0.00    +0.000 A 
ATOM     34  C   UNL     1       4.286   4.117  16.963  0.00  0.00    +0.000 A 
ATOM     35  C   UNL     1       3.049   4.029  17.596  0.00  0.00    +0.000 A 
ATOM     36  C   UNL     1       2.424   5.189  18.080  0.00  0.00    +0.000 A 
ENDBRANCH  28  31
ENDBRANCH  24  25
ENDBRANCH  13  24
TORSDOF 5
ENDMDL
MODEL 4
REMARK VINA RESULT:      -8.5      1.343      2.196
REMARK  Name = 
REMARK  7 active torsions:
REMARK  status: ('A' for Active; 'I' for Inactive)
REMARK    1  A    between atoms: C_1  and  C_2
REMARK    2  A    between atoms: N_6  and  C_7
REMARK    3  A    between atoms: N_13  and  C_14
REMARK    4  A    between atoms: C_14  and  C_15
REMARK    5  A    between atoms: C_18  and  C_19
REMARK    6  A    between atoms: C_27  and  N_28
REMARK    7  A    between atoms: N_28  and  C_29
REMARK                            x       y       z     vdW  Elec       q    Type
REMARK                         _______ _______ _______ _____ _____    ______ ____
ROOT
ATOM      1  C   UNL     1       3.866  14.039  18.155  0.00  0.00    +0.000 C 
ATOM      2  C   UNL     1       3.289  14.897  19.268  0.00  0.00    +0.000 C 
ATOM      3  C   UNL     1       3.532  16.400  18.967  0.00  0.00    +0.000 C 
ATOM      4  N   UNL     1       2.204  17.052  18.760  0.00  0.00    +0.000 NA
ATOM      5  C   UNL     1       1.339  16.120  19.060  0.00  0.00    +0.000 C 
ATOM      6  N   UNL     1      -0.012  16.389  19.120  0.00  0.00    +0.000 N 
ATOM      7  C   UNL     1      -0.563  17.673  18.740  0.00  0.00    +0.000 C 
ATOM      8  C   UNL     1      -0.871  15.496  19.747  0.00  0.00    +0.000 C 
ATOM      9  O   UNL     1      -1.950  15.827  20.232  0.00  0.00    +0.000 OA
ATOM     10  C   UNL     1      -0.337  14.158  19.835  0.00  0.00    +0.000 A 
ATOM     11  C   UNL     1       1.029  13.862  19.668  0.00  0.00    +0.000 A 
ATOM     12  N   UNL     1       1.284  12.564  19.872  0.00  0.00    +0.000 NA
ATOM     13  N   UNL     1       0.054  12.020  20.107  0.00  0.00    +0.000 N 
ATOM     14  C   UNL     1      -0.974  12.953  20.029  0.00  0.00    +0.000 A 
ATOM     15  N   UNL     1       1.852  14.878  19.336  0.00  0.00    +0.000 N 
ENDROOT
BRANCH  14  16
ATOM     16  N   UNL     1      -2.293  12.610  20.098  0.00  0.00    +0.000 N 
ATOM     17  H   UNL     1      -2.664  11.940  19.427  0.00  0.00    +0.000 HD
BRANCH  16  18
ATOM     18  C   UNL     1      -3.092  12.701  21.269  0.00  0.00    +0.000 A 
ATOM     19  C   UNL     1      -4.433  13.119  21.229  0.00  0.00    +0.000 A 
ATOM     20  C   UNL     1      -5.201  13.221  22.393  0.00  0.00    +0.000 A 
ATOM     21  C   UNL     1      -4.648  12.874  23.621  0.00  0.00    +0.000 A 
ATOM     22  C   UNL     1      -3.323  12.448  23.683  0.00  0.00    +0.000 A 
ATOM     23  C   UNL     1      -2.550  12.368  22.518  0.00  0.00    +0.000 A 
ENDBRANCH  16  18
ENDBRANCH  14  16
BRANCH  13  24
ATOM     24  C   UNL     1      -0.166  10.583  20.298  0.00  0.00    +0.000 C 
BRANCH  24  25
ATOM     25  C   UNL     1       0.849   9.600  19.760  0.00  0.00    +0.000 A 
ATOM     26  C   UNL     1       1.349   8.569  20.562  0.00  0.00    +0.000 A 
ATOM     27  C   UNL     1       2.096   7.520  20.000  0.00  0.00    +0.000 A 
ATOM     28  C   UNL     1       2.364   7.450  18.621  0.00  0.00    +0.000 A 
ATOM     29  C   UNL     1       1.928   8.536  17.843  0.00  0.00    +0.000 A 
ATOM     30  C   UNL     1       1.188   9.594  18.401  0.00  0.00    +0.000 A 
BRANCH  28  31
ATOM     31  C   UNL     1       3.010   6.257  18.010  0.00  0.00    +0.000 A 
ATOM     32  C   UNL     1       2.351   5.011  17.990  0.00  0.00    +0.000 A 
ATOM     33  C   UNL     1       2.932   3.883  17.400  0.00  0.00    +0.000 A 
ATOM     34  C   UNL     1       4.184   3.973  16.803  0.00  0.00    +0.000 A 
ATOM     35  C   UNL     1       4.861   5.189  16.805  0.00  0.00    +0.000 A 
ATOM     36  C   UNL     1       4.281   6.315  17.409  0.00  0.00    +0.000 A 
ENDBRANCH  28  31
ENDBRANCH  24  25
ENDBRANCH  13  24
TORSDOF 5
ENDMDL
MODEL 5
REMARK VINA RESULT:      -8.5      1.126      1.694
REMARK  Name = 
REMARK  7 active torsions:
REMARK  status: ('A' for Active; 'I' for Inactive)
REMARK    1  A    between atoms: C_1  and  C_2
REMARK    2  A    between atoms: N_6  and  C_7
REMARK    3  A    between atoms: N_13  and  C_14
REMARK    4  A    between atoms: C_14  and  C_15
REMARK    5  A    between atoms: C_18  and  C_19
REMARK    6  A    between atoms: C_27  and  N_28
REMARK    7  A    between atoms: N_28  and  C_29
REMARK                            x       y       z     vdW  Elec       q    Type
REMARK                         _______ _______ _______ _____ _____    ______ ____
ROOT
ATOM      1  C   UNL     1       3.918  14.058  20.038  0.00  0.00    +0.000 C 
ATOM      2  C   UNL     1       2.907  14.802  20.894  0.00  0.00    +0.000 C 
ATOM      3  C   UNL     1       3.015  16.329  20.646  0.00  0.00    +0.000 C 
ATOM      4  N   UNL     1       1.739  16.790  20.018  0.00  0.00    +0.000 NA
ATOM      5  C   UNL     1       0.966  15.738  20.058  0.00  0.00    +0.000 C 
ATOM      6  N   UNL     1      -0.360  15.810  19.687  0.00  0.00    +0.000 N 
ATOM      7  C   UNL     1      -0.941  17.009  19.121  0.00  0.00    +0.000 C 
ATOM      8  C   UNL     1      -1.236  14.790  20.036  0.00  0.00    +0.000 C 
ATOM      9  O   UNL     1      -2.447  14.954  20.153  0.00  0.00    +0.000 OA
ATOM     10  C   UNL     1      -0.572  13.540  20.320  0.00  0.00    +0.000 A 
ATOM     11  C   UNL     1       0.806  13.446  20.596  0.00  0.00    +0.000 A 
ATOM     12  N   UNL     1       1.166  12.194  20.902  0.00  0.00    +0.000 NA
ATOM     13  N   UNL     1       0.015  11.476  20.755  0.00  0.00    +0.000 N 
ATOM     14  C   UNL     1      -1.059  12.253  20.336  0.00  0.00    +0.000 A 
ATOM     15  N   UNL     1       1.539  14.576  20.511  0.00  0.00    +0.000 N 
ENDROOT
BRANCH  14  16
ATOM     16  N   UNL     1      -2.270  11.724  19.999  0.00  0.00    +0.000 N 
ATOM     17  H   UNL     1      -3.071  11.899  20.602  0.00  0.00    +0.000 HD
BRANCH  16  18
ATOM     18  C   UNL     1      -2.657  11.364  18.680  0.00  0.00    +0.000 A 
ATOM     19  C   UNL     1      -1.859  10.542  17.864  0.00  0.00    +0.000 A 
ATOM     20  C   UNL     1      -2.245  10.212  16.562  0.00  0.00    +0.000 A 
ATOM     21  C   UNL     1      -3.457  10.672  16.060  0.00  0.00    +0.000 A 
ATOM     22  C   UNL     1      -4.269  11.480  16.854  0.00  0.00    +0.000 A 
ATOM     23  C   UNL     1      -3.869  11.828  18.151  0.00  0.00    +0.000 A 
ENDBRANCH  16  18
ENDBRANCH  14  16
BRANCH  13  24
ATOM     24  C   UNL     1      -0.047  10.018  20.904  0.00  0.00    +0.000 C 
BRANCH  24  25
ATOM     25  C   UNL     1       0.984   9.157  20.210  0.00  0.00    +0.000 A 
ATOM     26  C   UNL     1       1.504   8.016  20.828  0.00  0.00    +0.000 A 
ATOM     27  C   UNL     1       2.268   7.090  20.099  0.00  0.00    +0.000 A 
ATOM     28  C   UNL     1       2.535   7.256  18.728  0.00  0.00    +0.000 A 
ATOM     29  C   UNL     1       2.077   8.450  18.142  0.00  0.00    +0.000 A 
ATOM     30  C   UNL     1       1.320   9.385  18.869  0.00  0.00    +0.000 A 
BRANCH  28  31
ATOM     31  C   UNL     1       3.200   6.195  17.926  0.00  0.00    +0.000 A 
ATOM     32  C   UNL     1       4.345   6.483  17.155  0.00  0.00    +0.000 A 
ATOM     33  C   UNL     1       4.998   5.493  16.412  0.00  0.00    +0.000 A 
ATOM     34  C   UNL     1       4.531   4.184  16.429  0.00  0.00    +0.000 A 
ATOM     35  C   UNL     1       3.403   3.866  17.180  0.00  0.00    +0.000 A 
ATOM     36  C   UNL     1       2.743   4.864  17.913  0.00  0.00    +0.000 A 
ENDBRANCH  28  31
ENDBRANCH  24  25
ENDBRANCH  13  24
TORSDOF 5
ENDMDL
MODEL 6
REMARK VINA RESULT:      -8.4      2.058      3.107
REMARK  Name = 
REMARK  7 active torsions:
REMARK  status: ('A' for Active; 'I' for Inactive)
REMARK    1  A    between atoms: C_1  and  C_2
REMARK    2  A    between atoms: N_6  and  C_7
REMARK    3  A    between atoms: N_13  and  C_14
REMARK    4  A    between atoms: C_14  and  C_15
REMARK    5  A    between atoms: C_18  and  C_19
REMARK    6  A    between atoms: C_27  and  N_28
REMARK    7  A    between atoms: N_28  and  C_29
REMARK                            x       y       z     vdW  Elec       q    Type
REMARK                         _______ _______ _______ _____ _____    ______ ____
ROOT
ATOM      1  C   UNL     1       3.410  14.963  18.956  0.00  0.00    +0.000 C 
ATOM      2  C   UNL     1       2.831  14.584  20.309  0.00  0.00    +0.000 C 
ATOM      3  C   UNL     1       2.491  15.860  21.123  0.00  0.00    +0.000 C 
ATOM      4  N   UNL     1       1.010  15.910  21.312  0.00  0.00    +0.000 NA
ATOM      5  C   UNL     1       0.588  14.768  20.837  0.00  0.00    +0.000 C 
ATOM      6  N   UNL     1      -0.730  14.384  20.961  0.00  0.00    +0.000 N 
ATOM      7  C   UNL     1      -1.744  15.261  21.508  0.00  0.00    +0.000 C 
ATOM      8  C   UNL     1      -1.091  13.059  20.751  0.00  0.00    +0.000 C 
ATOM      9  O   UNL     1      -2.089  12.546  21.249  0.00  0.00    +0.000 OA
ATOM     10  C   UNL     1      -0.137  12.329  19.950  0.00  0.00    +0.000 A 
ATOM     11  C   UNL     1       1.182  12.770  19.731  0.00  0.00    +0.000 A 
ATOM     12  N   UNL     1       1.890  11.884  19.022  0.00  0.00    +0.000 NA
ATOM     13  N   UNL     1       0.990  10.899  18.733  0.00  0.00    +0.000 N 
ATOM     14  C   UNL     1      -0.281  11.165  19.229  0.00  0.00    +0.000 A 
ATOM     15  N   UNL     1       1.531  13.971  20.237  0.00  0.00    +0.000 N 
ENDROOT
BRANCH  14  16
ATOM     16  N   UNL     1      -1.365  10.385  18.948  0.00  0.00    +0.000 N 
ATOM     17  H   UNL     1      -1.760   9.806  19.685  0.00  0.00    +0.000 HD
BRANCH  16  18
ATOM     18  C   UNL     1      -2.293  10.637  17.902  0.00  0.00    +0.000 A 
ATOM     19  C   UNL     1      -2.065  10.214  16.581  0.00  0.00    +0.000 A 
ATOM     20  C   UNL     1      -2.980  10.487  15.560  0.00  0.00    +0.000 A 
ATOM     21  C   UNL     1      -4.161  11.160  15.849  0.00  0.00    +0.000 A 
ATOM     22  C   UNL     1      -4.413  11.581  17.153  0.00  0.00    +0.000 A 
ATOM     23  C   UNL     1      -3.483  11.326  18.170  0.00  0.00    +0.000 A 
ENDBRANCH  16  18
ENDBRANCH  14  16
BRANCH  13  24
ATOM     24  C   UNL     1       1.306   9.746  17.885  0.00  0.00    +0.000 C 
BRANCH  24  25
ATOM     25  C   UNL     1       1.968   8.532  18.499  0.00  0.00    +0.000 A 
ATOM     26  C   UNL     1       1.757   8.197  19.839  0.00  0.00    +0.000 A 
ATOM     27  C   UNL     1       2.168   6.951  20.341  0.00  0.00    +0.000 A 
ATOM     28  C   UNL     1       2.792   5.987  19.528  0.00  0.00    +0.000 A 
ATOM     29  C   UNL     1       3.072   6.372  18.206  0.00  0.00    +0.000 A 
ATOM     30  C   UNL     1       2.672   7.622  17.700  0.00  0.00    +0.000 A 
BRANCH  28  31
ATOM     31  C   UNL     1       3.074   4.613  20.021  0.00  0.00    +0.000 A 
ATOM     32  C   UNL     1       2.305   4.046  21.057  0.00  0.00    +0.000 A 
ATOM     33  C   UNL     1       2.539   2.746  21.520  0.00  0.00    +0.000 A 
ATOM     34  C   UNL     1       3.542   1.972  20.949  0.00  0.00    +0.000 A 
ATOM     35  C   UNL     1       4.320   2.501  19.923  0.00  0.00    +0.000 A 
ATOM     36  C   UNL     1       4.091   3.810  19.471  0.00  0.00    +0.000 A 
ENDBRANCH  28  31
ENDBRANCH  24  25
ENDBRANCH  13  24
TORSDOF 5
ENDMDL
MODEL 7
REMARK VINA RESULT:      -8.4      2.808      5.224
REMARK  Name = 
REMARK  7 active torsions:
REMARK  status: ('A' for Active; 'I' for Inactive)
REMARK    1  A    between atoms: C_1  and  C_2
REMARK    2  A    between atoms: N_6  and  C_7
REMARK    3  A    between atoms: N_13  and  C_14
REMARK    4  A    between atoms: C_14  and  C_15
REMARK    5  A    between atoms: C_18  and  C_19
REMARK    6  A    between atoms: C_27  and  N_28
REMARK    7  A    between atoms: N_28  and  C_29
REMARK                            x       y       z     vdW  Elec       q    Type
REMARK                         _______ _______ _______ _____ _____    ______ ____
ROOT
ATOM      1  C   UNL     1      -2.775   9.552  15.831  0.00  0.00    +0.000 C 
ATOM      2  C   UNL     1      -3.085  11.013  16.114  0.00  0.00    +0.000 C 
ATOM      3  C   UNL     1      -4.566  11.322  15.774  0.00  0.00    +0.000 C 
ATOM      4  N   UNL     1      -5.271  11.677  17.044  0.00  0.00    +0.000 NA
ATOM      5  C   UNL     1      -4.317  11.730  17.934  0.00  0.00    +0.000 C 
ATOM      6  N   UNL     1      -4.560  12.166  19.219  0.00  0.00    +0.000 N 
ATOM      7  C   UNL     1      -5.893  12.473  19.693  0.00  0.00    +0.000 C 
ATOM      8  C   UNL     1      -3.501  12.523  20.044  0.00  0.00    +0.000 C 
ATOM      9  O   UNL     1      -3.613  13.308  20.982  0.00  0.00    +0.000 OA
ATOM     10  C   UNL     1      -2.244  11.937  19.644  0.00  0.00    +0.000 A 
ATOM     11  C   UNL     1      -2.021  11.392  18.365  0.00  0.00    +0.000 A 
ATOM     12  N   UNL     1      -0.757  10.981  18.214  0.00  0.00    +0.000 NA
ATOM     13  N   UNL     1      -0.189  11.210  19.434  0.00  0.00    +0.000 N 
ATOM     14  C   UNL     1      -1.085  11.736  20.358  0.00  0.00    +0.000 A 
ATOM     15  N   UNL     1      -3.066  11.354  17.512  0.00  0.00    +0.000 N 
ENDROOT
BRANCH  14  16
ATOM     16  N   UNL     1      -0.770  11.919  21.673  0.00  0.00    +0.000 N 
ATOM     17  H   UNL     1      -0.267  11.186  22.167  0.00  0.00    +0.000 HD
BRANCH  16  18
ATOM     18  C   UNL     1      -0.635  13.185  22.303  0.00  0.00    +0.000 A 
ATOM     19  C   UNL     1      -1.369  13.533  23.451  0.00  0.00    +0.000 A 
ATOM     20  C   UNL     1      -1.238  14.790  24.048  0.00  0.00    +0.000 A 
ATOM     21  C   UNL     1      -0.341  15.716  23.526  0.00  0.00    +0.000 A 
ATOM     22  C   UNL     1       0.403  15.390  22.394  0.00  0.00    +0.000 A 
ATOM     23  C   UNL     1       0.253  14.138  21.785  0.00  0.00    +0.000 A 
ENDBRANCH  16  18
ENDBRANCH  14  16
BRANCH  13  24
ATOM     24  C   UNL     1       1.187  10.826  19.765  0.00  0.00    +0.000 C 
BRANCH  24  25
ATOM     25  C   UNL     1       1.562   9.361  19.794  0.00  0.00    +0.000 A 
ATOM     26  C   UNL     1       1.246   8.559  20.894  0.00  0.00    +0.000 A 
ATOM     27  C   UNL     1       1.371   7.161  20.823  0.00  0.00    +0.000 A 
ATOM     28  C   UNL     1       1.803   6.509  19.653  0.00  0.00    +0.000 A 
ATOM     29  C   UNL     1       2.196   7.334  18.586  0.00  0.00    +0.000 A 
ATOM     30  C   UNL     1       2.083   8.734  18.654  0.00  0.00    +0.000 A 
BRANCH  28  31
ATOM     31  C   UNL     1       1.775   5.027  19.529  0.00  0.00    +0.000 A 
ATOM     32  C   UNL     1       1.463   4.216  20.638  0.00  0.00    +0.000 A 
ATOM     33  C   UNL     1       1.409   2.821  20.537  0.00  0.00    +0.000 A 
ATOM     34  C   UNL     1       1.655   2.199  19.317  0.00  0.00    +0.000 A 
ATOM     35  C   UNL     1       1.965   2.972  18.202  0.00  0.00    +0.000 A 
ATOM     36  C   UNL     1       2.031   4.369  18.311  0.00  0.00    +0.000 A 
ENDBRANCH  28  31
ENDBRANCH  24  25
ENDBRANCH  13  24
TORSDOF 5
ENDMDL
MODEL 8
REMARK VINA RESULT:      -8.4      1.619      2.475
REMARK  Name = 
REMARK  7 active torsions:
REMARK  status: ('A' for Active; 'I' for Inactive)
REMARK    1  A    between atoms: C_1  and  C_2
REMARK    2  A    between atoms: N_6  and  C_7
REMARK    3  A    between atoms: N_13  and  C_14
REMARK    4  A    between atoms: C_14  and  C_15
REMARK    5  A    between atoms: C_18  and  C_19
REMARK    6  A    between atoms: C_27  and  N_28
REMARK    7  A    between atoms: N_28  and  C_29
REMARK                            x       y       z     vdW  Elec       q    Type
REMARK                         _______ _______ _______ _____ _____    ______ ____
ROOT
ATOM      1  C   UNL     1       3.047  14.551  17.933  0.00  0.00    +0.000 C 
ATOM      2  C   UNL     1       2.591  15.248  19.204  0.00  0.00    +0.000 C 
ATOM      3  C   UNL     1       2.763  16.784  19.065  0.00  0.00    +0.000 C 
ATOM      4  N   UNL     1       1.405  17.408  19.098  0.00  0.00    +0.000 NA
ATOM      5  C   UNL     1       0.604  16.416  19.380  0.00  0.00    +0.000 C 
ATOM      6  N   UNL     1      -0.735  16.626  19.631  0.00  0.00    +0.000 N 
ATOM      7  C   UNL     1      -1.357  17.925  19.479  0.00  0.00    +0.000 C 
ATOM      8  C   UNL     1      -1.493  15.633  20.239  0.00  0.00    +0.000 C 
ATOM      9  O   UNL     1      -2.512  15.865  20.885  0.00  0.00    +0.000 OA
ATOM     10  C   UNL     1      -0.924  14.314  20.097  0.00  0.00    +0.000 A 
ATOM     11  C   UNL     1       0.419  14.091  19.736  0.00  0.00    +0.000 A 
ATOM     12  N   UNL     1       0.724  12.788  19.746  0.00  0.00    +0.000 NA
ATOM     13  N   UNL     1      -0.456  12.176  20.055  0.00  0.00    +0.000 N 
ATOM     14  C   UNL     1      -1.506  13.073  20.214  0.00  0.00    +0.000 A 
ATOM     15  N   UNL     1       1.173  15.168  19.437  0.00  0.00    +0.000 N 
ENDROOT
BRANCH  14  16
ATOM     16  N   UNL     1      -2.799  12.676  20.394  0.00  0.00    +0.000 N 
ATOM     17  H   UNL     1      -3.205  12.007  19.744  0.00  0.00    +0.000 HD
BRANCH  16  18
ATOM     18  C   UNL     1      -3.490  12.712  21.635  0.00  0.00    +0.000 A 
ATOM     19  C   UNL     1      -2.857  12.411  22.853  0.00  0.00    +0.000 A 
ATOM     20  C   UNL     1      -3.556  12.433  24.064  0.00  0.00    +0.000 A 
ATOM     21  C   UNL     1      -4.899  12.790  24.083  0.00  0.00    +0.000 A 
ATOM     22  C   UNL     1      -5.545  13.101  22.889  0.00  0.00    +0.000 A 
ATOM     23  C   UNL     1      -4.848  13.057  21.674  0.00  0.00    +0.000 A 
ENDBRANCH  16  18
ENDBRANCH  14  16
BRANCH  13  24
ATOM     24  C   UNL     1      -0.620  10.719  20.091  0.00  0.00    +0.000 C 
BRANCH  24  25
ATOM     25  C   UNL     1       0.509   9.833  19.614  0.00  0.00    +0.000 A 
ATOM     26  C   UNL     1       1.059   8.855  20.447  0.00  0.00    +0.000 A 
ATOM     27  C   UNL     1       1.929   7.880  19.932  0.00  0.00    +0.000 A 
ATOM     28  C   UNL     1       2.275   7.832  18.569  0.00  0.00    +0.000 A 
ATOM     29  C   UNL     1       1.781   8.872  17.762  0.00  0.00    +0.000 A 
ATOM     30  C   UNL     1       0.918   9.857  18.274  0.00  0.00    +0.000 A 
BRANCH  28  31
ATOM     31  C   UNL     1       3.060   6.704  18.001  0.00  0.00    +0.000 A 
ATOM     32  C   UNL     1       2.572   5.383  18.062  0.00  0.00    +0.000 A 
ATOM     33  C   UNL     1       3.285   4.310  17.514  0.00  0.00    +0.000 A 
ATOM     34  C   UNL     1       4.501   4.532  16.877  0.00  0.00    +0.000 A 
ATOM     35  C   UNL     1       5.010   5.825  16.798  0.00  0.00    +0.000 A 
ATOM     36  C   UNL     1       4.299   6.896  17.362  0.00  0.00    +0.000 A 
ENDBRANCH  28  31
ENDBRANCH  24  25
ENDBRANCH  13  24
TORSDOF 5
ENDMDL
MODEL 9
REMARK VINA RESULT:      -8.4      2.031      5.486
REMARK  Name = 
REMARK  7 active torsions:
REMARK  status: ('A' for Active; 'I' for Inactive)
REMARK    1  A    between atoms: C_1  and  C_2
REMARK    2  A    between atoms: N_6  and  C_7
REMARK    3  A    between atoms: N_13  and  C_14
REMARK    4  A    between atoms: C_14  and  C_15
REMARK    5  A    between atoms: C_18  and  C_19
REMARK    6  A    between atoms: C_27  and  N_28
REMARK    7  A    between atoms: N_28  and  C_29
REMARK                            x       y       z     vdW  Elec       q    Type
REMARK                         _______ _______ _______ _____ _____    ______ ____
ROOT
ATOM      1  C   UNL     1      -3.836   9.402  17.806  0.00  0.00    +0.000 C 
ATOM      2  C   UNL     1      -3.795  10.918  17.703  0.00  0.00    +0.000 C 
ATOM      3  C   UNL     1      -5.154  11.523  18.141  0.00  0.00    +0.000 C 
ATOM      4  N   UNL     1      -4.929  12.324  19.382  0.00  0.00    +0.000 NA
ATOM      5  C   UNL     1      -3.631  12.321  19.533  0.00  0.00    +0.000 C 
ATOM      6  N   UNL     1      -3.022  13.080  20.509  0.00  0.00    +0.000 N 
ATOM      7  C   UNL     1      -3.777  13.825  21.494  0.00  0.00    +0.000 C 
ATOM      8  C   UNL     1      -1.655  13.321  20.451  0.00  0.00    +0.000 C 
ATOM      9  O   UNL     1      -1.120  14.296  20.971  0.00  0.00    +0.000 OA
ATOM     10  C   UNL     1      -0.939  12.351  19.657  0.00  0.00    +0.000 A 
ATOM     11  C   UNL     1      -1.571  11.495  18.733  0.00  0.00    +0.000 A 
ATOM     12  N   UNL     1      -0.685  10.744  18.068  0.00  0.00    +0.000 NA
ATOM     13  N   UNL     1       0.515  11.081  18.623  0.00  0.00    +0.000 N 
ATOM     14  C   UNL     1       0.396  12.016  19.645  0.00  0.00    +0.000 A 
ATOM     15  N   UNL     1      -2.916  11.545  18.655  0.00  0.00    +0.000 N 
ENDROOT
BRANCH  14  16
ATOM     16  N   UNL     1       1.447  12.398  20.426  0.00  0.00    +0.000 N 
ATOM     17  H   UNL     1       1.899  11.706  21.019  0.00  0.00    +0.000 HD
BRANCH  16  18
ATOM     18  C   UNL     1       2.286  13.514  20.163  0.00  0.00    +0.000 A 
ATOM     19  C   UNL     1       3.191  14.013  21.116  0.00  0.00    +0.000 A 
ATOM     20  C   UNL     1       3.996  15.123  20.848  0.00  0.00    +0.000 A 
ATOM     21  C   UNL     1       3.936  15.738  19.603  0.00  0.00    +0.000 A 
ATOM     22  C   UNL     1       3.054  15.256  18.638  0.00  0.00    +0.000 A 
ATOM     23  C   UNL     1       2.232  14.157  18.918  0.00  0.00    +0.000 A 
ENDBRANCH  16  18
ENDBRANCH  14  16
BRANCH  13  24
ATOM     24  C   UNL     1       1.779  10.432  18.260  0.00  0.00    +0.000 C 
BRANCH  24  25
ATOM     25  C   UNL     1       2.057   9.026  18.744  0.00  0.00    +0.000 A 
ATOM     26  C   UNL     1       1.701   8.626  20.035  0.00  0.00    +0.000 A 
ATOM     27  C   UNL     1       1.734   7.270  20.401  0.00  0.00    +0.000 A 
ATOM     28  C   UNL     1       2.109   6.261  19.494  0.00  0.00    +0.000 A 
ATOM     29  C   UNL     1       2.544   6.688  18.228  0.00  0.00    +0.000 A 
ATOM     30  C   UNL     1       2.523   8.045  17.860  0.00  0.00    +0.000 A 
BRANCH  28  31
ATOM     31  C   UNL     1       1.983   4.818  19.834  0.00  0.00    +0.000 A 
ATOM     32  C   UNL     1       1.793   3.853  18.824  0.00  0.00    +0.000 A 
ATOM     33  C   UNL     1       1.694   2.489  19.121  0.00  0.00    +0.000 A 
ATOM     34  C   UNL     1       1.794   2.051  20.437  0.00  0.00    +0.000 A 
ATOM     35  C   UNL     1       1.982   2.979  21.458  0.00  0.00    +0.000 A 
ATOM     36  C   UNL     1       2.067   4.347  21.158  0.00  0.00    +0.000 A 
ENDBRANCH  28  31
ENDBRANCH  24  25
ENDBRANCH  13  24
TORSDOF 5
ENDMDL
