MODEL 1
REMARK VINA RESULT:      -7.2      0.000      0.000
REMARK  Name = 
REMARK  8 active torsions:
REMARK  status: ('A' for Active; 'I' for Inactive)
REMARK    1  A    between atoms: C_1  and  C_2
REMARK    2  A    between atoms: C_2  and  C_3
REMARK    3  A    between atoms: C_3  and  N_4
REMARK    4  A    between atoms: C_10  and  N_11
REMARK    5  A    between atoms: C_12  and  C_14
REMARK    6  A    between atoms: N_17  and  S_18
REMARK    7  A    between atoms: S_18  and  C_21
REMARK    8  A    between atoms: C_28  and  C_29
REMARK                            x       y       z     vdW  Elec       q    Type
REMARK                         _______ _______ _______ _____ _____    ______ ____
ROOT
ATOM      1  N   UNL     1       0.978  10.724  18.822  0.00  0.00    +0.000 N 
ATOM      2  C   UNL     1      -0.367  10.904  18.512  0.00  0.00    +0.000 C 
ATOM      3  O   UNL     1      -1.129  10.005  18.168  0.00  0.00    +0.000 OA
ATOM      4  H   UNL     1       1.434  11.441  19.375  0.00  0.00    +0.000 HD
ENDROOT
BRANCH   1  11
ATOM      5  N   UNL     1       3.076   4.926  18.587  0.00  0.00    +0.000 NA
ATOM      6  C   UNL     1       3.147   5.057  20.067  0.00  0.00    +0.000 C 
ATOM      7  C   UNL     1       2.261   6.160  20.707  0.00  0.00    +0.000 C 
ATOM      8  C   UNL     1       2.076   7.351  19.798  0.00  0.00    +0.000 A 
ATOM      9  C   UNL     1       2.637   7.345  18.536  0.00  0.00    +0.000 A 
ATOM     10  S   UNL     1       2.309   8.759  17.674  0.00  0.00    +0.000 S 
ATOM     11  C   UNL     1       1.470   9.437  19.002  0.00  0.00    +0.000 A 
ATOM     12  C   UNL     1       1.294   8.547  20.053  0.00  0.00    +0.000 A 
ATOM     13  C   UNL     1       3.444   6.220  17.969  0.00  0.00    +0.000 C 
BRANCH  12  14
ATOM     14  C   UNL     1       0.509   8.753  21.271  0.00  0.00    +0.000 C 
ATOM     15  N   UNL     1       1.123   9.363  22.324  0.00  0.00    +0.000 N 
ATOM     16  O   UNL     1      -0.669   8.418  21.387  0.00  0.00    +0.000 OA
ATOM     17  H   UNL     1       2.124   9.478  22.357  0.00  0.00    +0.000 HD
ATOM     18  H   UNL     1       0.592   9.415  23.184  0.00  0.00    +0.000 HD
ENDBRANCH  12  14
BRANCH   5  19
ATOM     19  C   UNL     1       1.760   4.413  18.162  0.00  0.00    +0.000 C 
BRANCH  19  21
ATOM     20  C   UNL     1       0.628   2.486  19.424  0.00  0.00    +0.000 C 
ATOM     21  C   UNL     1       1.557   2.895  18.290  0.00  0.00    +0.000 C 
ENDBRANCH  19  21
ENDBRANCH   5  19
ENDBRANCH   1  11
BRANCH   2  22
ATOM     22  C   UNL     1      -0.790  12.374  18.454  0.00  0.00    +0.000 C 
ATOM     23  C   UNL     1       0.162  13.287  19.227  0.00  0.00    +0.000 C 
ATOM     24  C   UNL     1       0.125  13.087  20.740  0.00  0.00    +0.000 C 
ATOM     25  N   UNL     1      -1.260  13.034  21.283  0.00  0.00    +0.000 NA
ATOM     26  C   UNL     1      -2.227  12.207  20.518  0.00  0.00    +0.000 C 
ATOM     27  C   UNL     1      -2.198  12.534  19.029  0.00  0.00    +0.000 C 
BRANCH  25  28
ATOM     28  S   UNL     1      -1.295  12.709  22.986  0.00  0.00    +0.000 S 
ATOM     29  O   UNL     1      -1.074  11.289  23.172  0.00  0.00    +0.000 OA
ATOM     30  O   UNL     1      -0.470  13.695  23.652  0.00  0.00    +0.000 OA
BRANCH  28  31
ATOM     31  C   UNL     1      -2.980  12.974  23.545  0.00  0.00    +0.000 A 
ATOM     32  C   UNL     1      -3.868  12.142  24.206  0.00  0.00    +0.000 A 
ATOM     33  C   UNL     1      -5.162  12.723  24.342  0.00  0.00    +0.000 A 
ATOM     34  C   UNL     1      -5.211  13.994  23.816  0.00  0.00    +0.000 A 
ATOM     35  S   UNL     1      -3.700  14.488  23.189  0.00  0.00    +0.000 S 
ENDBRANCH  28  31
ENDBRANCH  25  28
ENDBRANCH   2  22
TORSDOF 7
ENDMDL
MODEL 2
REMARK VINA RESULT:      -7.0      1.178      1.480
REMARK  Name = 
REMARK  8 active torsions:
REMARK  status: ('A' for Active; 'I' for Inactive)
REMARK    1  A    between atoms: C_1  and  C_2
REMARK    2  A    between atoms: C_2  and  C_3
REMARK    3  A    between atoms: C_3  and  N_4
REMARK    4  A    between atoms: C_10  and  N_11
REMARK    5  A    between atoms: C_12  and  C_14
REMARK    6  A    between atoms: N_17  and  S_18
REMARK    7  A    between atoms: S_18  and  C_21
REMARK    8  A    between atoms: C_28  and  C_29
REMARK                            x       y       z     vdW  Elec       q    Type
REMARK                         _______ _______ _______ _____ _____    ______ ____
ROOT
ATOM      1  N   UNL     1       1.108  10.635  18.971  0.00  0.00    +0.000 N 
ATOM      2  C   UNL     1      -0.193  10.894  18.550  0.00  0.00    +0.000 C 
ATOM      3  O   UNL     1      -0.963  10.048  18.103  0.00  0.00    +0.000 OA
ATOM      4  H   UNL     1       1.545  11.306  19.592  0.00  0.00    +0.000 HD
ENDROOT
BRANCH   1  11
ATOM      5  N   UNL     1       2.872   4.728  18.689  0.00  0.00    +0.000 NA
ATOM      6  C   UNL     1       2.914   4.832  20.172  0.00  0.00    +0.000 C 
ATOM      7  C   UNL     1       2.078   5.975  20.810  0.00  0.00    +0.000 C 
ATOM      8  C   UNL     1       1.984   7.189  19.916  0.00  0.00    +0.000 A 
ATOM      9  C   UNL     1       2.575   7.169  18.668  0.00  0.00    +0.000 A 
ATOM     10  S   UNL     1       2.351   8.613  17.822  0.00  0.00    +0.000 S 
ATOM     11  C   UNL     1       1.520   9.318  19.141  0.00  0.00    +0.000 A 
ATOM     12  C   UNL     1       1.267   8.424  20.173  0.00  0.00    +0.000 A 
ATOM     13  C   UNL     1       3.329   6.008  18.101  0.00  0.00    +0.000 C 
BRANCH  12  14
ATOM     14  C   UNL     1       0.466   8.657  21.375  0.00  0.00    +0.000 C 
ATOM     15  N   UNL     1       0.952   9.533  22.300  0.00  0.00    +0.000 N 
ATOM     16  O   UNL     1      -0.619   8.117  21.586  0.00  0.00    +0.000 OA
ATOM     17  H   UNL     1       1.909   9.849  22.276  0.00  0.00    +0.000 HD
ATOM     18  H   UNL     1       0.427   9.612  23.162  0.00  0.00    +0.000 HD
ENDBRANCH  12  14
BRANCH   5  19
ATOM     19  C   UNL     1       1.540   4.300  18.225  0.00  0.00    +0.000 C 
BRANCH  19  21
ATOM     20  C   UNL     1       2.240   1.831  18.279  0.00  0.00    +0.000 C 
ATOM     21  C   UNL     1       1.146   2.851  18.557  0.00  0.00    +0.000 C 
ENDBRANCH  19  21
ENDBRANCH   5  19
ENDBRANCH   1  11
BRANCH   2  22
ATOM     22  C   UNL     1      -0.539  12.384  18.516  0.00  0.00    +0.000 C 
ATOM     23  C   UNL     1       0.233  13.189  19.563  0.00  0.00    +0.000 C 
ATOM     24  C   UNL     1      -0.171  12.883  21.003  0.00  0.00    +0.000 C 
ATOM     25  N   UNL     1      -1.646  12.865  21.200  0.00  0.00    +0.000 NA
ATOM     26  C   UNL     1      -2.431  12.147  20.164  0.00  0.00    +0.000 C 
ATOM     27  C   UNL     1      -2.037  12.577  18.755  0.00  0.00    +0.000 C 
BRANCH  25  28
ATOM     28  S   UNL     1      -2.097  12.421  22.814  0.00  0.00    +0.000 S 
ATOM     29  O   UNL     1      -3.483  11.999  22.787  0.00  0.00    +0.000 OA
ATOM     30  O   UNL     1      -1.059  11.571  23.357  0.00  0.00    +0.000 OA
BRANCH  28  31
ATOM     31  C   UNL     1      -2.107  13.924  23.797  0.00  0.00    +0.000 A 
ATOM     32  C   UNL     1      -1.081  14.758  24.206  0.00  0.00    +0.000 A 
ATOM     33  C   UNL     1      -1.530  15.780  25.092  0.00  0.00    +0.000 A 
ATOM     34  C   UNL     1      -2.889  15.718  25.302  0.00  0.00    +0.000 A 
ATOM     35  S   UNL     1      -3.616  14.451  24.414  0.00  0.00    +0.000 S 
ENDBRANCH  28  31
ENDBRANCH  25  28
ENDBRANCH   2  22
TORSDOF 7
ENDMDL
MODEL 3
REMARK VINA RESULT:      -6.7      3.400      4.933
REMARK  Name = 
REMARK  8 active torsions:
REMARK  status: ('A' for Active; 'I' for Inactive)
REMARK    1  A    between atoms: C_1  and  C_2
REMARK    2  A    between atoms: C_2  and  C_3
REMARK    3  A    between atoms: C_3  and  N_4
REMARK    4  A    between atoms: C_10  and  N_11
REMARK    5  A    between atoms: C_12  and  C_14
REMARK    6  A    between atoms: N_17  and  S_18
REMARK    7  A    between atoms: S_18  and  C_21
REMARK    8  A    between atoms: C_28  and  C_29
REMARK                            x       y       z     vdW  Elec       q    Type
REMARK                         _______ _______ _______ _____ _____    ______ ____
ROOT
ATOM      1  N   UNL     1       1.373   8.043  18.778  0.00  0.00    +0.000 N 
ATOM      2  C   UNL     1       1.177   8.650  20.016  0.00  0.00    +0.000 C 
ATOM      3  O   UNL     1       1.857   8.429  21.014  0.00  0.00    +0.000 OA
ATOM      4  H   UNL     1       0.979   8.499  17.963  0.00  0.00    +0.000 HD
ENDROOT
BRANCH   1  11
ATOM      5  N   UNL     1       6.559   5.328  16.827  0.00  0.00    +0.000 NA
ATOM      6  C   UNL     1       6.503   4.630  18.140  0.00  0.00    +0.000 C 
ATOM      7  C   UNL     1       5.115   4.575  18.835  0.00  0.00    +0.000 C 
ATOM      8  C   UNL     1       4.267   5.786  18.526  0.00  0.00    +0.000 A 
ATOM      9  C   UNL     1       4.746   6.758  17.671  0.00  0.00    +0.000 A 
ATOM     10  S   UNL     1       3.648   8.022  17.446  0.00  0.00    +0.000 S 
ATOM     11  C   UNL     1       2.540   7.324  18.547  0.00  0.00    +0.000 A 
ATOM     12  C   UNL     1       2.915   6.059  18.977  0.00  0.00    +0.000 A 
ATOM     13  C   UNL     1       6.082   6.719  16.999  0.00  0.00    +0.000 C 
BRANCH  12  14
ATOM     14  C   UNL     1       2.138   5.133  19.804  0.00  0.00    +0.000 C 
ATOM     15  N   UNL     1       2.249   5.248  21.158  0.00  0.00    +0.000 N 
ATOM     16  O   UNL     1       1.388   4.274  19.342  0.00  0.00    +0.000 OA
ATOM     17  H   UNL     1       2.984   5.790  21.583  0.00  0.00    +0.000 HD
ATOM     18  H   UNL     1       1.774   4.543  21.708  0.00  0.00    +0.000 HD
ENDBRANCH  12  14
BRANCH   5  19
ATOM     19  C   UNL     1       5.833   4.570  15.792  0.00  0.00    +0.000 C 
BRANCH  19  21
ATOM     20  C   UNL     1       5.732   3.734  13.367  0.00  0.00    +0.000 C 
ATOM     21  C   UNL     1       6.399   4.668  14.366  0.00  0.00    +0.000 C 
ENDBRANCH  19  21
ENDBRANCH   5  19
ENDBRANCH   1  11
BRANCH   2  22
ATOM     22  C   UNL     1      -0.095   9.497  20.088  0.00  0.00    +0.000 C 
ATOM     23  C   UNL     1      -0.360  10.265  18.792  0.00  0.00    +0.000 C 
ATOM     24  C   UNL     1       0.650  11.375  18.509  0.00  0.00    +0.000 C 
ATOM     25  N   UNL     1       0.915  12.233  19.695  0.00  0.00    +0.000 NA
ATOM     26  C   UNL     1       1.113  11.521  20.983  0.00  0.00    +0.000 C 
ATOM     27  C   UNL     1       0.010  10.497  21.238  0.00  0.00    +0.000 C 
BRANCH  25  28
ATOM     28  S   UNL     1       2.135  13.428  19.393  0.00  0.00    +0.000 S 
ATOM     29  O   UNL     1       2.808  13.702  20.647  0.00  0.00    +0.000 OA
ATOM     30  O   UNL     1       2.872  13.034  18.211  0.00  0.00    +0.000 OA
BRANCH  28  31
ATOM     31  C   UNL     1       1.292  14.962  18.995  0.00  0.00    +0.000 A 
ATOM     32  C   UNL     1      -0.054  15.262  18.870  0.00  0.00    +0.000 A 
ATOM     33  C   UNL     1      -0.276  16.592  18.409  0.00  0.00    +0.000 A 
ATOM     34  C   UNL     1       0.905  17.278  18.233  0.00  0.00    +0.000 A 
ATOM     35  S   UNL     1       2.265  16.328  18.647  0.00  0.00    +0.000 S 
ENDBRANCH  28  31
ENDBRANCH  25  28
ENDBRANCH   2  22
TORSDOF 7
ENDMDL
MODEL 4
REMARK VINA RESULT:      -6.6      2.587      3.516
REMARK  Name = 
REMARK  8 active torsions:
REMARK  status: ('A' for Active; 'I' for Inactive)
REMARK    1  A    between atoms: C_1  and  C_2
REMARK    2  A    between atoms: C_2  and  C_3
REMARK    3  A    between atoms: C_3  and  N_4
REMARK    4  A    between atoms: C_10  and  N_11
REMARK    5  A    between atoms: C_12  and  C_14
REMARK    6  A    between atoms: N_17  and  S_18
REMARK    7  A    between atoms: S_18  and  C_21
REMARK    8  A    between atoms: C_28  and  C_29
REMARK                            x       y       z     vdW  Elec       q    Type
REMARK                         _______ _______ _______ _____ _____    ______ ____
ROOT
ATOM      1  N   UNL     1       0.342  10.809  19.308  0.00  0.00    +0.000 N 
ATOM      2  C   UNL     1       0.753  11.832  20.158  0.00  0.00    +0.000 C 
ATOM      3  O   UNL     1       1.546  11.692  21.085  0.00  0.00    +0.000 OA
ATOM      4  H   UNL     1      -0.057  11.071  18.414  0.00  0.00    +0.000 HD
ENDROOT
BRANCH   1  11
ATOM      5  N   UNL     1       3.238   5.450  18.319  0.00  0.00    +0.000 NA
ATOM      6  C   UNL     1       3.386   5.436  19.799  0.00  0.00    +0.000 C 
ATOM      7  C   UNL     1       2.394   6.320  20.603  0.00  0.00    +0.000 C 
ATOM      8  C   UNL     1       1.979   7.557  19.843  0.00  0.00    +0.000 A 
ATOM      9  C   UNL     1       2.451   7.767  18.562  0.00  0.00    +0.000 A 
ATOM     10  S   UNL     1       1.866   9.197  17.882  0.00  0.00    +0.000 S 
ATOM     11  C   UNL     1       1.026   9.599  19.318  0.00  0.00    +0.000 A 
ATOM     12  C   UNL     1       1.051   8.589  20.270  0.00  0.00    +0.000 A 
ATOM     13  C   UNL     1       3.373   6.842  17.833  0.00  0.00    +0.000 C 
BRANCH  12  14
ATOM     14  C   UNL     1       0.326   8.546  21.541  0.00  0.00    +0.000 C 
ATOM     15  N   UNL     1       0.903   9.151  22.618  0.00  0.00    +0.000 N 
ATOM     16  O   UNL     1      -0.771   8.009  21.681  0.00  0.00    +0.000 OA
ATOM     17  H   UNL     1       1.872   9.428  22.612  0.00  0.00    +0.000 HD
ATOM     18  H   UNL     1       0.428   9.033  23.505  0.00  0.00    +0.000 HD
ENDBRANCH  12  14
BRANCH   5  19
ATOM     19  C   UNL     1       1.985   4.792  17.905  0.00  0.00    +0.000 C 
BRANCH  19  21
ATOM     20  C   UNL     1       0.874   2.850  19.163  0.00  0.00    +0.000 C 
ATOM     21  C   UNL     1       1.915   3.274  18.138  0.00  0.00    +0.000 C 
ENDBRANCH  19  21
ENDBRANCH   5  19
ENDBRANCH   1  11
BRANCH   2  22
ATOM     22  C   UNL     1      -0.018  13.139  19.959  0.00  0.00    +0.000 C 
ATOM     23  C   UNL     1      -1.417  13.092  20.577  0.00  0.00    +0.000 C 
ATOM     24  C   UNL     1      -2.377  12.138  19.871  0.00  0.00    +0.000 C 
ATOM     25  N   UNL     1      -2.358  12.289  18.390  0.00  0.00    +0.000 NA
ATOM     26  C   UNL     1      -1.016  12.403  17.765  0.00  0.00    +0.000 C 
ATOM     27  C   UNL     1      -0.151  13.444  18.468  0.00  0.00    +0.000 C 
BRANCH  25  28
ATOM     28  S   UNL     1      -3.378  11.136  17.591  0.00  0.00    +0.000 S 
ATOM     29  O   UNL     1      -3.375  11.448  16.176  0.00  0.00    +0.000 OA
ATOM     30  O   UNL     1      -3.034   9.816  18.074  0.00  0.00    +0.000 OA
BRANCH  28  31
ATOM     31  C   UNL     1      -5.064  11.461  18.116  0.00  0.00    +0.000 A 
ATOM     32  C   UNL     1      -5.846  10.879  19.098  0.00  0.00    +0.000 A 
ATOM     33  C   UNL     1      -7.186  11.364  19.087  0.00  0.00    +0.000 A 
ATOM     34  C   UNL     1      -7.375  12.328  18.123  0.00  0.00    +0.000 A 
ATOM     35  S   UNL     1      -5.938  12.660  17.258  0.00  0.00    +0.000 S 
ENDBRANCH  28  31
ENDBRANCH  25  28
ENDBRANCH   2  22
TORSDOF 7
ENDMDL
MODEL 5
REMARK VINA RESULT:      -6.4      1.460      1.640
REMARK  Name = 
REMARK  8 active torsions:
REMARK  status: ('A' for Active; 'I' for Inactive)
REMARK    1  A    between atoms: C_1  and  C_2
REMARK    2  A    between atoms: C_2  and  C_3
REMARK    3  A    between atoms: C_3  and  N_4
REMARK    4  A    between atoms: C_10  and  N_11
REMARK    5  A    between atoms: C_12  and  C_14
REMARK    6  A    between atoms: N_17  and  S_18
REMARK    7  A    between atoms: S_18  and  C_21
REMARK    8  A    between atoms: C_28  and  C_29
REMARK                            x       y       z     vdW  Elec       q    Type
REMARK                         _______ _______ _______ _____ _____    ______ ____
ROOT
ATOM      1  N   UNL     1       0.322  10.824  18.857  0.00  0.00    +0.000 N 
ATOM      2  C   UNL     1       0.864  11.989  19.391  0.00  0.00    +0.000 C 
ATOM      3  O   UNL     1       1.800  12.020  20.186  0.00  0.00    +0.000 OA
ATOM      4  H   UNL     1      -0.221  10.905  18.004  0.00  0.00    +0.000 HD
ENDROOT
BRANCH   1  11
ATOM      5  N   UNL     1       3.235   5.395  18.514  0.00  0.00    +0.000 NA
ATOM      6  C   UNL     1       3.326   5.527  19.993  0.00  0.00    +0.000 C 
ATOM      7  C   UNL     1       2.306   6.486  20.667  0.00  0.00    +0.000 C 
ATOM      8  C   UNL     1       1.925   7.642  19.773  0.00  0.00    +0.000 A 
ATOM      9  C   UNL     1       2.447   7.724  18.497  0.00  0.00    +0.000 A 
ATOM     10  S   UNL     1       1.894   9.080  17.657  0.00  0.00    +0.000 S 
ATOM     11  C   UNL     1       1.000   9.621  19.012  0.00  0.00    +0.000 A 
ATOM     12  C   UNL     1       0.984   8.710  20.059  0.00  0.00    +0.000 A 
ATOM     13  C   UNL     1       3.394   6.732  17.899  0.00  0.00    +0.000 C 
BRANCH  12  14
ATOM     14  C   UNL     1       0.211   8.793  21.299  0.00  0.00    +0.000 C 
ATOM     15  N   UNL     1       0.527   9.787  22.177  0.00  0.00    +0.000 N 
ATOM     16  O   UNL     1      -0.708   8.026  21.580  0.00  0.00    +0.000 OA
ATOM     17  H   UNL     1       1.383  10.312  22.094  0.00  0.00    +0.000 HD
ATOM     18  H   UNL     1       0.041   9.772  23.065  0.00  0.00    +0.000 HD
ENDBRANCH  12  14
BRANCH   5  19
ATOM     19  C   UNL     1       1.997   4.698  18.120  0.00  0.00    +0.000 C 
BRANCH  19  21
ATOM     20  C   UNL     1       0.622   2.649  18.824  0.00  0.00    +0.000 C 
ATOM     21  C   UNL     1       1.972   3.181  18.366  0.00  0.00    +0.000 C 
ENDBRANCH  19  21
ENDBRANCH   5  19
ENDBRANCH   1  11
BRANCH   2  22
ATOM     22  C   UNL     1       0.068  13.249  19.047  0.00  0.00    +0.000 C 
ATOM     23  C   UNL     1       0.103  14.288  20.169  0.00  0.00    +0.000 C 
ATOM     24  C   UNL     1      -0.649  13.867  21.430  0.00  0.00    +0.000 C 
ATOM     25  N   UNL     1      -1.999  13.313  21.141  0.00  0.00    +0.000 NA
ATOM     26  C   UNL     1      -2.079  12.350  20.013  0.00  0.00    +0.000 C 
ATOM     27  C   UNL     1      -1.389  12.883  18.762  0.00  0.00    +0.000 C 
BRANCH  25  28
ATOM     28  S   UNL     1      -2.806  12.748  22.568  0.00  0.00    +0.000 S 
ATOM     29  O   UNL     1      -4.170  12.420  22.205  0.00  0.00    +0.000 OA
ATOM     30  O   UNL     1      -1.946  11.785  23.223  0.00  0.00    +0.000 OA
BRANCH  28  31
ATOM     31  C   UNL     1      -2.965  14.148  23.680  0.00  0.00    +0.000 A 
ATOM     32  C   UNL     1      -2.146  14.607  24.698  0.00  0.00    +0.000 A 
ATOM     33  C   UNL     1      -2.727  15.690  25.419  0.00  0.00    +0.000 A 
ATOM     34  C   UNL     1      -3.953  16.049  24.906  0.00  0.00    +0.000 A 
ATOM     35  S   UNL     1      -4.382  15.101  23.550  0.00  0.00    +0.000 S 
ENDBRANCH  28  31
ENDBRANCH  25  28
ENDBRANCH   2  22
TORSDOF 7
ENDMDL
MODEL 6
REMARK VINA RESULT:      -6.2      1.325      1.461
REMARK  Name = 
REMARK  8 active torsions:
REMARK  status: ('A' for Active; 'I' for Inactive)
REMARK    1  A    between atoms: C_1  and  C_2
REMARK    2  A    between atoms: C_2  and  C_3
REMARK    3  A    between atoms: C_3  and  N_4
REMARK    4  A    between atoms: C_10  and  N_11
REMARK    5  A    between atoms: C_12  and  C_14
REMARK    6  A    between atoms: N_17  and  S_18
REMARK    7  A    between atoms: S_18  and  C_21
REMARK    8  A    between atoms: C_28  and  C_29
REMARK                            x       y       z     vdW  Elec       q    Type
REMARK                         _______ _______ _______ _____ _____    ______ ____
ROOT
ATOM      1  N   UNL     1       0.421  10.797  19.014  0.00  0.00    +0.000 N 
ATOM      2  C   UNL     1       1.105  11.976  19.297  0.00  0.00    +0.000 C 
ATOM      3  O   UNL     1       2.219  12.029  19.811  0.00  0.00    +0.000 OA
ATOM      4  H   UNL     1      -0.327  10.839  18.332  0.00  0.00    +0.000 HD
ENDROOT
BRANCH   1  11
ATOM      5  N   UNL     1       3.204   5.340  18.272  0.00  0.00    +0.000 NA
ATOM      6  C   UNL     1       3.467   5.451  19.731  0.00  0.00    +0.000 C 
ATOM      7  C   UNL     1       2.545   6.413  20.530  0.00  0.00    +0.000 C 
ATOM      8  C   UNL     1       2.078   7.585  19.700  0.00  0.00    +0.000 A 
ATOM      9  C   UNL     1       2.449   7.678  18.374  0.00  0.00    +0.000 A 
ATOM     10  S   UNL     1       1.820   9.051  17.619  0.00  0.00    +0.000 S 
ATOM     11  C   UNL     1       1.098   9.584  19.076  0.00  0.00    +0.000 A 
ATOM     12  C   UNL     1       1.191   8.660  20.107  0.00  0.00    +0.000 A 
ATOM     13  C   UNL     1       3.307   6.683  17.658  0.00  0.00    +0.000 C 
BRANCH  12  14
ATOM     14  C   UNL     1       0.569   8.735  21.429  0.00  0.00    +0.000 C 
ATOM     15  N   UNL     1      -0.735   8.354  21.538  0.00  0.00    +0.000 N 
ATOM     16  O   UNL     1       1.161   9.110  22.440  0.00  0.00    +0.000 OA
ATOM     17  H   UNL     1      -1.318   8.229  20.725  0.00  0.00    +0.000 HD
ATOM     18  H   UNL     1      -1.171   8.498  22.441  0.00  0.00    +0.000 HD
ENDBRANCH  12  14
BRANCH   5  19
ATOM     19  C   UNL     1       1.919   4.662  18.015  0.00  0.00    +0.000 C 
BRANCH  19  21
ATOM     20  C   UNL     1       2.537   2.178  17.827  0.00  0.00    +0.000 C 
ATOM     21  C   UNL     1       1.777   3.247  18.598  0.00  0.00    +0.000 C 
ENDBRANCH  19  21
ENDBRANCH   5  19
ENDBRANCH   1  11
BRANCH   2  22
ATOM     22  C   UNL     1       0.266  13.237  19.081  0.00  0.00    +0.000 C 
ATOM     23  C   UNL     1       0.532  14.306  20.142  0.00  0.00    +0.000 C 
ATOM     24  C   UNL     1       0.043  13.930  21.539  0.00  0.00    +0.000 C 
ATOM     25  N   UNL     1      -1.342  13.386  21.541  0.00  0.00    +0.000 NA
ATOM     26  C   UNL     1      -1.652  12.394  20.481  0.00  0.00    +0.000 C 
ATOM     27  C   UNL     1      -1.221  12.883  19.102  0.00  0.00    +0.000 C 
BRANCH  25  28
ATOM     28  S   UNL     1      -1.852  12.871  23.116  0.00  0.00    +0.000 S 
ATOM     29  O   UNL     1      -1.487  11.477  23.267  0.00  0.00    +0.000 OA
ATOM     30  O   UNL     1      -1.433  13.870  24.076  0.00  0.00    +0.000 OA
BRANCH  28  31
ATOM     31  C   UNL     1      -3.648  12.865  23.119  0.00  0.00    +0.000 A 
ATOM     32  C   UNL     1      -4.567  13.111  22.113  0.00  0.00    +0.000 A 
ATOM     33  C   UNL     1      -5.909  13.125  22.592  0.00  0.00    +0.000 A 
ATOM     34  C   UNL     1      -5.976  12.850  23.939  0.00  0.00    +0.000 A 
ATOM     35  S   UNL     1      -4.432  12.554  24.611  0.00  0.00    +0.000 S 
ENDBRANCH  28  31
ENDBRANCH  25  28
ENDBRANCH   2  22
TORSDOF 7
ENDMDL
MODEL 7
REMARK VINA RESULT:      -6.2      3.272      4.879
REMARK  Name = 
REMARK  8 active torsions:
REMARK  status: ('A' for Active; 'I' for Inactive)
REMARK    1  A    between atoms: C_1  and  C_2
REMARK    2  A    between atoms: C_2  and  C_3
REMARK    3  A    between atoms: C_3  and  N_4
REMARK    4  A    between atoms: C_10  and  N_11
REMARK    5  A    between atoms: C_12  and  C_14
REMARK    6  A    between atoms: N_17  and  S_18
REMARK    7  A    between atoms: S_18  and  C_21
REMARK    8  A    between atoms: C_28  and  C_29
REMARK                            x       y       z     vdW  Elec       q    Type
REMARK                         _______ _______ _______ _____ _____    ______ ____
ROOT
ATOM      1  N   UNL     1       1.213   8.020  19.211  0.00  0.00    +0.000 N 
ATOM      2  C   UNL     1       1.149   8.575  20.486  0.00  0.00    +0.000 C 
ATOM      3  O   UNL     1       1.955   8.348  21.385  0.00  0.00    +0.000 OA
ATOM      4  H   UNL     1       0.705   8.487  18.468  0.00  0.00    +0.000 HD
ENDROOT
BRANCH   1  11
ATOM      5  N   UNL     1       6.251   5.643  16.557  0.00  0.00    +0.000 NA
ATOM      6  C   UNL     1       6.336   4.835  17.803  0.00  0.00    +0.000 C 
ATOM      7  C   UNL     1       5.023   4.679  18.618  0.00  0.00    +0.000 C 
ATOM      8  C   UNL     1       4.121   5.884  18.494  0.00  0.00    +0.000 A 
ATOM      9  C   UNL     1       4.494   6.940  17.687  0.00  0.00    +0.000 A 
ATOM     10  S   UNL     1       3.351   8.183  17.676  0.00  0.00    +0.000 S 
ATOM     11  C   UNL     1       2.369   7.361  18.810  0.00  0.00    +0.000 A 
ATOM     12  C   UNL     1       2.812   6.076  19.092  0.00  0.00    +0.000 A 
ATOM     13  C   UNL     1       5.760   6.999  16.892  0.00  0.00    +0.000 C 
BRANCH  12  14
ATOM     14  C   UNL     1       2.140   5.060  19.904  0.00  0.00    +0.000 C 
ATOM     15  N   UNL     1       2.252   5.156  21.259  0.00  0.00    +0.000 N 
ATOM     16  O   UNL     1       1.475   4.140  19.429  0.00  0.00    +0.000 OA
ATOM     17  H   UNL     1       2.934   5.760  21.691  0.00  0.00    +0.000 HD
ATOM     18  H   UNL     1       1.855   4.396  21.797  0.00  0.00    +0.000 HD
ENDBRANCH  12  14
BRANCH   5  19
ATOM     19  C   UNL     1       5.447   4.953  15.531  0.00  0.00    +0.000 C 
BRANCH  19  21
ATOM     20  C   UNL     1       5.950   3.685  13.357  0.00  0.00    +0.000 C 
ATOM     21  C   UNL     1       6.106   3.732  14.869  0.00  0.00    +0.000 C 
ENDBRANCH  19  21
ENDBRANCH   5  19
ENDBRANCH   1  11
BRANCH   2  22
ATOM     22  C   UNL     1      -0.135   9.364  20.746  0.00  0.00    +0.000 C 
ATOM     23  C   UNL     1      -0.742   9.935  19.463  0.00  0.00    +0.000 C 
ATOM     24  C   UNL     1       0.092  11.041  18.820  0.00  0.00    +0.000 C 
ATOM     25  N   UNL     1       0.549  12.064  19.799  0.00  0.00    +0.000 NA
ATOM     26  C   UNL     1       1.083  11.545  21.083  0.00  0.00    +0.000 C 
ATOM     27  C   UNL     1       0.148  10.516  21.710  0.00  0.00    +0.000 C 
BRANCH  25  28
ATOM     28  S   UNL     1       1.575  13.262  19.078  0.00  0.00    +0.000 S 
ATOM     29  O   UNL     1       2.691  12.575  18.457  0.00  0.00    +0.000 OA
ATOM     30  O   UNL     1       0.743  14.181  18.330  0.00  0.00    +0.000 OA
BRANCH  28  31
ATOM     31  C   UNL     1       2.320  14.201  20.415  0.00  0.00    +0.000 A 
ATOM     32  C   UNL     1       3.587  14.157  20.971  0.00  0.00    +0.000 A 
ATOM     33  C   UNL     1       3.710  14.999  22.114  0.00  0.00    +0.000 A 
ATOM     34  C   UNL     1       2.548  15.689  22.371  0.00  0.00    +0.000 A 
ATOM     35  S   UNL     1       1.328  15.339  21.225  0.00  0.00    +0.000 S 
ENDBRANCH  28  31
ENDBRANCH  25  28
ENDBRANCH   2  22
TORSDOF 7
ENDMDL
MODEL 8
REMARK VINA RESULT:      -6.2      1.273      1.437
REMARK  Name = 
REMARK  8 active torsions:
REMARK  status: ('A' for Active; 'I' for Inactive)
REMARK    1  A    between atoms: C_1  and  C_2
REMARK    2  A    between atoms: C_2  and  C_3
REMARK    3  A    between atoms: C_3  and  N_4
REMARK    4  A    between atoms: C_10  and  N_11
REMARK    5  A    between atoms: C_12  and  C_14
REMARK    6  A    between atoms: N_17  and  S_18
REMARK    7  A    between atoms: S_18  and  C_21
REMARK    8  A    between atoms: C_28  and  C_29
REMARK                            x       y       z     vdW  Elec       q    Type
REMARK                         _______ _______ _______ _____ _____    ______ ____
ROOT
ATOM      1  N   UNL     1       0.342  10.889  19.010  0.00  0.00    +0.000 N 
ATOM      2  C   UNL     1       1.056  12.073  19.173  0.00  0.00    +0.000 C 
ATOM      3  O   UNL     1       2.191  12.143  19.636  0.00  0.00    +0.000 OA
ATOM      4  H   UNL     1      -0.434  10.893  18.358  0.00  0.00    +0.000 HD
ENDROOT
BRANCH   1  11
ATOM      5  N   UNL     1       3.181   5.431  18.535  0.00  0.00    +0.000 NA
ATOM      6  C   UNL     1       3.250   5.513  20.019  0.00  0.00    +0.000 C 
ATOM      7  C   UNL     1       2.233   6.465  20.707  0.00  0.00    +0.000 C 
ATOM      8  C   UNL     1       1.884   7.655  19.846  0.00  0.00    +0.000 A 
ATOM      9  C   UNL     1       2.427   7.771  18.583  0.00  0.00    +0.000 A 
ATOM     10  S   UNL     1       1.907   9.162  17.779  0.00  0.00    +0.000 S 
ATOM     11  C   UNL     1       1.000   9.672  19.137  0.00  0.00    +0.000 A 
ATOM     12  C   UNL     1       0.954   8.727  20.153  0.00  0.00    +0.000 A 
ATOM     13  C   UNL     1       3.369   6.785  17.967  0.00  0.00    +0.000 C 
BRANCH  12  14
ATOM     14  C   UNL     1       0.162   8.781  21.383  0.00  0.00    +0.000 C 
ATOM     15  N   UNL     1       0.440   9.776  22.272  0.00  0.00    +0.000 N 
ATOM     16  O   UNL     1      -0.742   7.989  21.645  0.00  0.00    +0.000 OA
ATOM     17  H   UNL     1       1.284  10.323  22.205  0.00  0.00    +0.000 HD
ATOM     18  H   UNL     1      -0.057   9.742  23.153  0.00  0.00    +0.000 HD
ENDBRANCH  12  14
BRANCH   5  19
ATOM     19  C   UNL     1       1.940   4.766  18.098  0.00  0.00    +0.000 C 
BRANCH  19  21
ATOM     20  C   UNL     1       3.137   2.503  17.918  0.00  0.00    +0.000 C 
ATOM     21  C   UNL     1       2.119   3.457  17.312  0.00  0.00    +0.000 C 
ENDBRANCH  19  21
ENDBRANCH   5  19
ENDBRANCH   1  11
BRANCH   2  22
ATOM     22  C   UNL     1       0.229  13.330  18.896  0.00  0.00    +0.000 C 
ATOM     23  C   UNL     1       0.578  14.480  19.841  0.00  0.00    +0.000 C 
ATOM     24  C   UNL     1       0.166  14.239  21.292  0.00  0.00    +0.000 C 
ATOM     25  N   UNL     1      -1.226  13.730  21.422  0.00  0.00    +0.000 NA
ATOM     26  C   UNL     1      -1.618  12.657  20.474  0.00  0.00    +0.000 C 
ATOM     27  C   UNL     1      -1.260  13.015  19.034  0.00  0.00    +0.000 C 
BRANCH  25  28
ATOM     28  S   UNL     1      -1.651  13.367  23.063  0.00  0.00    +0.000 S 
ATOM     29  O   UNL     1      -1.801  11.930  23.175  0.00  0.00    +0.000 OA
ATOM     30  O   UNL     1      -0.760  14.104  23.935  0.00  0.00    +0.000 OA
BRANCH  28  31
ATOM     31  C   UNL     1      -3.304  14.010  23.341  0.00  0.00    +0.000 A 
ATOM     32  C   UNL     1      -3.742  15.219  23.856  0.00  0.00    +0.000 A 
ATOM     33  C   UNL     1      -5.157  15.260  24.022  0.00  0.00    +0.000 A 
ATOM     34  C   UNL     1      -5.758  14.098  23.593  0.00  0.00    +0.000 A 
ATOM     35  S   UNL     1      -4.622  12.980  22.973  0.00  0.00    +0.000 S 
ENDBRANCH  28  31
ENDBRANCH  25  28
ENDBRANCH   2  22
TORSDOF 7
ENDMDL
MODEL 9
REMARK VINA RESULT:      -6.1      3.624      5.070
REMARK  Name = 
REMARK  8 active torsions:
REMARK  status: ('A' for Active; 'I' for Inactive)
REMARK    1  A    between atoms: C_1  and  C_2
REMARK    2  A    between atoms: C_2  and  C_3
REMARK    3  A    between atoms: C_3  and  N_4
REMARK    4  A    between atoms: C_10  and  N_11
REMARK    5  A    between atoms: C_12  and  C_14
REMARK    6  A    between atoms: N_17  and  S_18
REMARK    7  A    between atoms: S_18  and  C_21
REMARK    8  A    between atoms: C_28  and  C_29
REMARK                            x       y       z     vdW  Elec       q    Type
REMARK                         _______ _______ _______ _____ _____    ______ ____
ROOT
ATOM      1  N   UNL     1       0.358  10.915  19.464  0.00  0.00    +0.000 N 
ATOM      2  C   UNL     1       0.774  11.894  20.362  0.00  0.00    +0.000 C 
ATOM      3  O   UNL     1       1.550  11.699  21.293  0.00  0.00    +0.000 OA
ATOM      4  H   UNL     1      -0.023  11.222  18.576  0.00  0.00    +0.000 HD
ENDROOT
BRANCH   1  11
ATOM      5  N   UNL     1       3.146   5.536  18.293  0.00  0.00    +0.000 NA
ATOM      6  C   UNL     1       3.299   5.472  19.771  0.00  0.00    +0.000 C 
ATOM      7  C   UNL     1       2.327   6.349  20.607  0.00  0.00    +0.000 C 
ATOM      8  C   UNL     1       1.933   7.618  19.888  0.00  0.00    +0.000 A 
ATOM      9  C   UNL     1       2.404   7.859  18.613  0.00  0.00    +0.000 A 
ATOM     10  S   UNL     1       1.844   9.321  17.981  0.00  0.00    +0.000 S 
ATOM     11  C   UNL     1       1.018   9.693  19.432  0.00  0.00    +0.000 A 
ATOM     12  C   UNL     1       1.027   8.652  20.351  0.00  0.00    +0.000 A 
ATOM     13  C   UNL     1       3.306   6.940  17.851  0.00  0.00    +0.000 C 
BRANCH  12  14
ATOM     14  C   UNL     1       0.306   8.584  21.624  0.00  0.00    +0.000 C 
ATOM     15  N   UNL     1       0.890   9.158  22.714  0.00  0.00    +0.000 N 
ATOM     16  O   UNL     1      -0.794   8.050  21.755  0.00  0.00    +0.000 OA
ATOM     17  H   UNL     1       1.860   9.430  22.711  0.00  0.00    +0.000 HD
ATOM     18  H   UNL     1       0.418   9.022  23.599  0.00  0.00    +0.000 HD
ENDBRANCH  12  14
BRANCH   5  19
ATOM     19  C   UNL     1       1.879   4.915  17.864  0.00  0.00    +0.000 C 
BRANCH  19  21
ATOM     20  C   UNL     1       0.869   2.803  18.916  0.00  0.00    +0.000 C 
ATOM     21  C   UNL     1       1.839   3.379  17.895  0.00  0.00    +0.000 C 
ENDBRANCH  19  21
ENDBRANCH   5  19
ENDBRANCH   1  11
BRANCH   2  22
ATOM     22  C   UNL     1       0.031  13.222  20.207  0.00  0.00    +0.000 C 
ATOM     23  C   UNL     1       0.003  13.711  18.758  0.00  0.00    +0.000 C 
ATOM     24  C   UNL     1       1.367  14.136  18.219  0.00  0.00    +0.000 C 
ATOM     25  N   UNL     1       2.111  15.019  19.157  0.00  0.00    +0.000 NA
ATOM     26  C   UNL     1       2.103  14.608  20.583  0.00  0.00    +0.000 C 
ATOM     27  C   UNL     1       0.693  14.293  21.074  0.00  0.00    +0.000 C 
BRANCH  25  28
ATOM     28  S   UNL     1       3.697  15.417  18.580  0.00  0.00    +0.000 S 
ATOM     29  O   UNL     1       4.324  14.192  18.126  0.00  0.00    +0.000 OA
ATOM     30  O   UNL     1       3.587  16.574  17.717  0.00  0.00    +0.000 OA
BRANCH  28  31
ATOM     31  C   UNL     1       4.672  15.917  20.002  0.00  0.00    +0.000 A 
ATOM     32  C   UNL     1       5.601  15.228  20.764  0.00  0.00    +0.000 A 
ATOM     33  C   UNL     1       6.044  15.977  21.892  0.00  0.00    +0.000 A 
ATOM     34  C   UNL     1       5.470  17.228  21.936  0.00  0.00    +0.000 A 
ATOM     35  S   UNL     1       4.426  17.500  20.609  0.00  0.00    +0.000 S 
ENDBRANCH  28  31
ENDBRANCH  25  28
ENDBRANCH   2  22
TORSDOF 7
ENDMDL
