MODEL 1
REMARK VINA RESULT:      -7.6      0.000      0.000
REMARK  Name = 
REMARK  7 active torsions:
REMARK  status: ('A' for Active; 'I' for Inactive)
REMARK    1  A    between atoms: C_1  and  C_2
REMARK    2  A    between atoms: C_2  and  C_3
REMARK    3  A    between atoms: C_3  and  O_5
REMARK    4  A    between atoms: O_5  and  C_6
REMARK    5  A    between atoms: C_8  and  N_9
REMARK    6  A    between atoms: C_18  and  C_19
REMARK    7  A    between atoms: C_19  and  O_20
REMARK                            x       y       z     vdW  Elec       q    Type
REMARK                         _______ _______ _______ _____ _____    ______ ____
ROOT
ATOM      1  C   UNL     1       3.451   4.346  19.626  0.00  0.00    +0.000 C 
ATOM      2  C   UNL     1       4.371   5.539  19.511  0.00  0.00    +0.000 C 
ATOM      3  C   UNL     1       5.720   4.954  19.103  0.00  0.00    +0.000 C 
ATOM      4  O   UNL     1       5.725   3.574  19.517  0.00  0.00    +0.000 OA
ATOM      5  C   UNL     1       4.406   3.207  19.964  0.00  0.00    +0.000 C 
ENDROOT
BRANCH   3   6
ATOM      6  N   UNL     1       6.041   5.061  17.679  0.00  0.00    +0.000 N 
ATOM      7  C   UNL     1       5.077   5.326  16.729  0.00  0.00    +0.000 A 
ATOM      8  C   UNL     1       5.364   5.325  15.430  0.00  0.00    +0.000 A 
ATOM      9  C   UNL     1       6.765   5.033  15.082  0.00  0.00    +0.000 A 
ATOM     10  N   UNL     1       7.151   5.048  13.769  0.00  0.00    +0.000 N 
ATOM     11  N   UNL     1       7.669   4.743  15.962  0.00  0.00    +0.000 NA
ATOM     12  C   UNL     1       7.340   4.699  17.295  0.00  0.00    +0.000 A 
ATOM     13  O   UNL     1       8.164   4.339  18.133  0.00  0.00    +0.000 OA
ATOM     14  H   UNL     1       6.466   4.770  13.079  0.00  0.00    +0.000 HD
ATOM     15  H   UNL     1       8.059   4.614  13.630  0.00  0.00    +0.000 HD
ENDBRANCH   3   6
BRANCH   1  16
ATOM     16  O   UNL     1       2.503   4.492  20.699  0.00  0.00    +0.000 OA
BRANCH  16  17
ATOM     17  C   UNL     1       1.562   3.512  20.830  0.00  0.00    +0.000 C 
ATOM     18  O   UNL     1       1.460   2.772  21.794  0.00  0.00    +0.000 OA
BRANCH  17  20
ATOM     19  C   UNL     1       0.606   2.203  18.891  0.00  0.00    +0.000 C 
ATOM     20  C   UNL     1       0.645   3.534  19.630  0.00  0.00    +0.000 C 
ENDBRANCH  17  20
ENDBRANCH  16  17
ENDBRANCH   1  16
BRANCH   5  21
ATOM     21  C   UNL     1       4.006   1.903  19.270  0.00  0.00    +0.000 C 
BRANCH  21  22
ATOM     22  O   UNL     1       4.061   2.053  17.852  0.00  0.00    +0.000 OA
ATOM     23  H   UNL     1       4.867   1.584  17.560  0.00  0.00    +0.000 HD
ENDBRANCH  21  22
ENDBRANCH   5  21
TORSDOF 6
ENDMDL
MODEL 2
REMARK VINA RESULT:      -7.5      1.498      1.695
REMARK  Name = 
REMARK  7 active torsions:
REMARK  status: ('A' for Active; 'I' for Inactive)
REMARK    1  A    between atoms: C_1  and  C_2
REMARK    2  A    between atoms: C_2  and  C_3
REMARK    3  A    between atoms: C_3  and  O_5
REMARK    4  A    between atoms: O_5  and  C_6
REMARK    5  A    between atoms: C_8  and  N_9
REMARK    6  A    between atoms: C_18  and  C_19
REMARK    7  A    between atoms: C_19  and  O_20
REMARK                            x       y       z     vdW  Elec       q    Type
REMARK                         _______ _______ _______ _____ _____    ______ ____
ROOT
ATOM      1  C   UNL     1       2.623   4.324  18.085  0.00  0.00    +0.000 C 
ATOM      2  C   UNL     1       3.481   5.566  18.144  0.00  0.00    +0.000 C 
ATOM      3  C   UNL     1       4.917   5.047  18.174  0.00  0.00    +0.000 C 
ATOM      4  O   UNL     1       4.868   3.697  18.672  0.00  0.00    +0.000 OA
ATOM      5  C   UNL     1       3.495   3.271  18.758  0.00  0.00    +0.000 C 
ENDROOT
BRANCH   3   6
ATOM      6  N   UNL     1       5.622   5.093  16.892  0.00  0.00    +0.000 N 
ATOM      7  C   UNL     1       5.291   4.262  15.843  0.00  0.00    +0.000 A 
ATOM      8  C   UNL     1       6.001   4.247  14.718  0.00  0.00    +0.000 A 
ATOM      9  C   UNL     1       7.145   5.172  14.668  0.00  0.00    +0.000 A 
ATOM     10  N   UNL     1       7.905   5.245  13.533  0.00  0.00    +0.000 N 
ATOM     11  N   UNL     1       7.490   5.928  15.661  0.00  0.00    +0.000 NA
ATOM     12  C   UNL     1       6.773   5.891  16.833  0.00  0.00    +0.000 A 
ATOM     13  O   UNL     1       7.141   6.535  17.814  0.00  0.00    +0.000 OA
ATOM     14  H   UNL     1       8.007   4.399  12.986  0.00  0.00    +0.000 HD
ATOM     15  H   UNL     1       8.783   5.729  13.689  0.00  0.00    +0.000 HD
ENDBRANCH   3   6
BRANCH   1  16
ATOM     16  O   UNL     1       1.404   4.470  18.836  0.00  0.00    +0.000 OA
BRANCH  16  17
ATOM     17  C   UNL     1       1.509   4.436  20.197  0.00  0.00    +0.000 C 
ATOM     18  O   UNL     1       1.945   5.347  20.882  0.00  0.00    +0.000 OA
BRANCH  17  20
ATOM     19  C   UNL     1       1.771   2.544  21.851  0.00  0.00    +0.000 C 
ATOM     20  C   UNL     1       0.950   3.131  20.711  0.00  0.00    +0.000 C 
ENDBRANCH  17  20
ENDBRANCH  16  17
ENDBRANCH   1  16
BRANCH   5  21
ATOM     21  C   UNL     1       3.368   1.906  18.078  0.00  0.00    +0.000 C 
BRANCH  21  22
ATOM     22  O   UNL     1       2.110   1.794  17.413  0.00  0.00    +0.000 OA
ATOM     23  H   UNL     1       1.557   2.524  17.750  0.00  0.00    +0.000 HD
ENDBRANCH  21  22
ENDBRANCH   5  21
TORSDOF 6
ENDMDL
MODEL 3
REMARK VINA RESULT:      -7.3      2.963      6.213
REMARK  Name = 
REMARK  7 active torsions:
REMARK  status: ('A' for Active; 'I' for Inactive)
REMARK    1  A    between atoms: C_1  and  C_2
REMARK    2  A    between atoms: C_2  and  C_3
REMARK    3  A    between atoms: C_3  and  O_5
REMARK    4  A    between atoms: O_5  and  C_6
REMARK    5  A    between atoms: C_8  and  N_9
REMARK    6  A    between atoms: C_18  and  C_19
REMARK    7  A    between atoms: C_19  and  O_20
REMARK                            x       y       z     vdW  Elec       q    Type
REMARK                         _______ _______ _______ _____ _____    ______ ____
ROOT
ATOM      1  C   UNL     1       5.578   4.731  16.458  0.00  0.00    +0.000 C 
ATOM      2  C   UNL     1       4.243   4.205  16.932  0.00  0.00    +0.000 C 
ATOM      3  C   UNL     1       4.159   4.620  18.399  0.00  0.00    +0.000 C 
ATOM      4  O   UNL     1       5.509   4.822  18.859  0.00  0.00    +0.000 OA
ATOM      5  C   UNL     1       6.408   4.764  17.736  0.00  0.00    +0.000 C 
ENDROOT
BRANCH   3   6
ATOM      6  N   UNL     1       3.347   5.809  18.663  0.00  0.00    +0.000 N 
ATOM      7  C   UNL     1       3.380   6.917  17.844  0.00  0.00    +0.000 A 
ATOM      8  C   UNL     1       2.711   8.026  18.148  0.00  0.00    +0.000 A 
ATOM      9  C   UNL     1       1.936   7.985  19.400  0.00  0.00    +0.000 A 
ATOM     10  N   UNL     1       1.190   9.072  19.767  0.00  0.00    +0.000 N 
ATOM     11  N   UNL     1       1.929   6.965  20.197  0.00  0.00    +0.000 NA
ATOM     12  C   UNL     1       2.668   5.849  19.890  0.00  0.00    +0.000 A 
ATOM     13  O   UNL     1       2.743   4.909  20.679  0.00  0.00    +0.000 OA
ATOM     14  H   UNL     1       1.535   9.985  19.500  0.00  0.00    +0.000 HD
ATOM     15  H   UNL     1       0.892   9.024  20.737  0.00  0.00    +0.000 HD
ENDBRANCH   3   6
BRANCH   1  16
ATOM     16  O   UNL     1       6.208   3.843  15.516  0.00  0.00    +0.000 OA
BRANCH  16  17
ATOM     17  C   UNL     1       6.709   4.405  14.377  0.00  0.00    +0.000 C 
ATOM     18  O   UNL     1       7.557   5.281  14.350  0.00  0.00    +0.000 OA
BRANCH  17  20
ATOM     19  C   UNL     1       7.006   3.751  11.954  0.00  0.00    +0.000 C 
ATOM     20  C   UNL     1       6.094   3.731  13.173  0.00  0.00    +0.000 C 
ENDBRANCH  17  20
ENDBRANCH  16  17
ENDBRANCH   1  16
BRANCH   5  21
ATOM     21  C   UNL     1       7.327   5.987  17.787  0.00  0.00    +0.000 C 
BRANCH  21  22
ATOM     22  O   UNL     1       6.948   6.940  16.795  0.00  0.00    +0.000 OA
ATOM     23  H   UNL     1       5.972   6.927  16.764  0.00  0.00    +0.000 HD
ENDBRANCH  21  22
ENDBRANCH   5  21
TORSDOF 6
ENDMDL
MODEL 4
REMARK VINA RESULT:      -7.2      2.829      6.162
REMARK  Name = 
REMARK  7 active torsions:
REMARK  status: ('A' for Active; 'I' for Inactive)
REMARK    1  A    between atoms: C_1  and  C_2
REMARK    2  A    between atoms: C_2  and  C_3
REMARK    3  A    between atoms: C_3  and  O_5
REMARK    4  A    between atoms: O_5  and  C_6
REMARK    5  A    between atoms: C_8  and  N_9
REMARK    6  A    between atoms: C_18  and  C_19
REMARK    7  A    between atoms: C_19  and  O_20
REMARK                            x       y       z     vdW  Elec       q    Type
REMARK                         _______ _______ _______ _____ _____    ______ ____
ROOT
ATOM      1  C   UNL     1       6.270   4.932  16.568  0.00  0.00    +0.000 C 
ATOM      2  C   UNL     1       6.283   3.830  17.603  0.00  0.00    +0.000 C 
ATOM      3  C   UNL     1       5.633   4.448  18.838  0.00  0.00    +0.000 C 
ATOM      4  O   UNL     1       5.779   5.877  18.724  0.00  0.00    +0.000 OA
ATOM      5  C   UNL     1       6.286   6.199  17.415  0.00  0.00    +0.000 C 
ENDROOT
BRANCH   3   6
ATOM      6  N   UNL     1       4.228   4.094  19.045  0.00  0.00    +0.000 N 
ATOM      7  C   UNL     1       3.199   4.942  18.696  0.00  0.00    +0.000 A 
ATOM      8  C   UNL     1       1.932   4.650  18.978  0.00  0.00    +0.000 A 
ATOM      9  C   UNL     1       1.707   3.370  19.671  0.00  0.00    +0.000 A 
ATOM     10  N   UNL     1       0.429   2.977  19.964  0.00  0.00    +0.000 N 
ATOM     11  N   UNL     1       2.668   2.585  20.039  0.00  0.00    +0.000 NA
ATOM     12  C   UNL     1       3.973   2.930  19.784  0.00  0.00    +0.000 A 
ATOM     13  O   UNL     1       4.899   2.239  20.207  0.00  0.00    +0.000 OA
ATOM     14  H   UNL     1      -0.247   3.703  20.164  0.00  0.00    +0.000 HD
ATOM     15  H   UNL     1       0.406   2.214  20.633  0.00  0.00    +0.000 HD
ENDBRANCH   3   6
BRANCH   1  16
ATOM     16  O   UNL     1       7.446   4.911  15.738  0.00  0.00    +0.000 OA
BRANCH  16  17
ATOM     17  C   UNL     1       7.248   4.918  14.388  0.00  0.00    +0.000 C 
ATOM     18  O   UNL     1       7.896   5.580  13.594  0.00  0.00    +0.000 OA
BRANCH  17  20
ATOM     19  C   UNL     1       6.198   3.497  12.580  0.00  0.00    +0.000 C 
ATOM     20  C   UNL     1       6.151   3.941  14.036  0.00  0.00    +0.000 C 
ENDBRANCH  17  20
ENDBRANCH  16  17
ENDBRANCH   1  16
BRANCH   5  21
ATOM     21  C   UNL     1       5.407   7.298  16.812  0.00  0.00    +0.000 C 
BRANCH  21  22
ATOM     22  O   UNL     1       5.068   6.983  15.463  0.00  0.00    +0.000 OA
ATOM     23  H   UNL     1       5.699   6.296  15.176  0.00  0.00    +0.000 HD
ENDBRANCH  21  22
ENDBRANCH   5  21
TORSDOF 6
ENDMDL
MODEL 5
REMARK VINA RESULT:      -7.2      1.408      1.627
REMARK  Name = 
REMARK  7 active torsions:
REMARK  status: ('A' for Active; 'I' for Inactive)
REMARK    1  A    between atoms: C_1  and  C_2
REMARK    2  A    between atoms: C_2  and  C_3
REMARK    3  A    between atoms: C_3  and  O_5
REMARK    4  A    between atoms: O_5  and  C_6
REMARK    5  A    between atoms: C_8  and  N_9
REMARK    6  A    between atoms: C_18  and  C_19
REMARK    7  A    between atoms: C_19  and  O_20
REMARK                            x       y       z     vdW  Elec       q    Type
REMARK                         _______ _______ _______ _____ _____    ______ ____
ROOT
ATOM      1  C   UNL     1       3.139   4.394  18.427  0.00  0.00    +0.000 C 
ATOM      2  C   UNL     1       3.648   5.736  17.957  0.00  0.00    +0.000 C 
ATOM      3  C   UNL     1       5.165   5.576  17.888  0.00  0.00    +0.000 C 
ATOM      4  O   UNL     1       5.517   4.494  18.770  0.00  0.00    +0.000 OA
ATOM      5  C   UNL     1       4.316   3.839  19.222  0.00  0.00    +0.000 C 
ENDROOT
BRANCH   3   6
ATOM      6  N   UNL     1       5.705   5.338  16.548  0.00  0.00    +0.000 N 
ATOM      7  C   UNL     1       5.062   4.535  15.630  0.00  0.00    +0.000 A 
ATOM      8  C   UNL     1       5.610   4.250  14.452  0.00  0.00    +0.000 A 
ATOM      9  C   UNL     1       6.931   4.849  14.197  0.00  0.00    +0.000 A 
ATOM     10  N   UNL     1       7.548   4.634  12.994  0.00  0.00    +0.000 N 
ATOM     11  N   UNL     1       7.563   5.571  15.066  0.00  0.00    +0.000 NA
ATOM     12  C   UNL     1       7.001   5.811  16.297  0.00  0.00    +0.000 A 
ATOM     13  O   UNL     1       7.626   6.419  17.164  0.00  0.00    +0.000 OA
ATOM     14  H   UNL     1       7.377   3.749  12.535  0.00  0.00    +0.000 HD
ATOM     15  H   UNL     1       8.530   4.892  13.015  0.00  0.00    +0.000 HD
ENDBRANCH   3   6
BRANCH   1  16
ATOM     16  O   UNL     1       2.004   4.520  19.303  0.00  0.00    +0.000 OA
BRANCH  16  17
ATOM     17  C   UNL     1       1.239   3.405  19.487  0.00  0.00    +0.000 C 
ATOM     18  O   UNL     1       0.917   2.630  18.602  0.00  0.00    +0.000 OA
BRANCH  17  20
ATOM     19  C   UNL     1       2.007   2.540  21.735  0.00  0.00    +0.000 C 
ATOM     20  C   UNL     1       0.913   3.257  20.955  0.00  0.00    +0.000 C 
ENDBRANCH  17  20
ENDBRANCH  16  17
ENDBRANCH   1  16
BRANCH   5  21
ATOM     21  C   UNL     1       4.481   2.331  19.019  0.00  0.00    +0.000 C 
BRANCH  21  22
ATOM     22  O   UNL     1       3.913   1.929  17.773  0.00  0.00    +0.000 OA
ATOM     23  H   UNL     1       4.640   1.954  17.122  0.00  0.00    +0.000 HD
ENDBRANCH  21  22
ENDBRANCH   5  21
TORSDOF 6
ENDMDL
MODEL 6
REMARK VINA RESULT:      -7.2      1.902      2.615
REMARK  Name = 
REMARK  7 active torsions:
REMARK  status: ('A' for Active; 'I' for Inactive)
REMARK    1  A    between atoms: C_1  and  C_2
REMARK    2  A    between atoms: C_2  and  C_3
REMARK    3  A    between atoms: C_3  and  O_5
REMARK    4  A    between atoms: O_5  and  C_6
REMARK    5  A    between atoms: C_8  and  N_9
REMARK    6  A    between atoms: C_18  and  C_19
REMARK    7  A    between atoms: C_19  and  O_20
REMARK                            x       y       z     vdW  Elec       q    Type
REMARK                         _______ _______ _______ _____ _____    ______ ____
ROOT
ATOM      1  C   UNL     1       3.033   5.418  19.117  0.00  0.00    +0.000 C 
ATOM      2  C   UNL     1       4.514   5.581  19.375  0.00  0.00    +0.000 C 
ATOM      3  C   UNL     1       5.160   4.368  18.710  0.00  0.00    +0.000 C 
ATOM      4  O   UNL     1       4.148   3.348  18.613  0.00  0.00    +0.000 OA
ATOM      5  C   UNL     1       2.872   3.909  18.979  0.00  0.00    +0.000 C 
ENDROOT
BRANCH   3   6
ATOM      6  N   UNL     1       5.756   4.621  17.398  0.00  0.00    +0.000 N 
ATOM      7  C   UNL     1       4.998   4.679  16.247  0.00  0.00    +0.000 A 
ATOM      8  C   UNL     1       5.563   4.814  15.050  0.00  0.00    +0.000 A 
ATOM      9  C   UNL     1       7.033   4.904  15.039  0.00  0.00    +0.000 A 
ATOM     10  N   UNL     1       7.689   5.080  13.852  0.00  0.00    +0.000 N 
ATOM     11  N   UNL     1       7.757   4.810  16.108  0.00  0.00    +0.000 NA
ATOM     12  C   UNL     1       7.157   4.620  17.329  0.00  0.00    +0.000 A 
ATOM     13  O   UNL     1       7.834   4.439  18.340  0.00  0.00    +0.000 OA
ATOM     14  H   UNL     1       7.273   4.671  13.025  0.00  0.00    +0.000 HD
ATOM     15  H   UNL     1       8.685   4.897  13.932  0.00  0.00    +0.000 HD
ENDBRANCH   3   6
BRANCH   1  16
ATOM     16  O   UNL     1       2.236   5.872  20.227  0.00  0.00    +0.000 OA
BRANCH  16  17
ATOM     17  C   UNL     1       1.857   7.183  20.219  0.00  0.00    +0.000 C 
ATOM     18  O   UNL     1       1.351   7.765  21.164  0.00  0.00    +0.000 OA
BRANCH  17  20
ATOM     19  C   UNL     1       1.511   9.127  18.642  0.00  0.00    +0.000 C 
ATOM     20  C   UNL     1       2.218   7.802  18.889  0.00  0.00    +0.000 C 
ENDBRANCH  17  20
ENDBRANCH  16  17
ENDBRANCH   1  16
BRANCH   5  21
ATOM     21  C   UNL     1       1.854   3.542  17.897  0.00  0.00    +0.000 C 
BRANCH  21  22
ATOM     22  O   UNL     1       2.004   2.176  17.511  0.00  0.00    +0.000 OA
ATOM     23  H   UNL     1       1.306   2.002  16.851  0.00  0.00    +0.000 HD
ENDBRANCH  21  22
ENDBRANCH   5  21
TORSDOF 6
ENDMDL
MODEL 7
REMARK VINA RESULT:      -7.2      2.131      2.758
REMARK  Name = 
REMARK  7 active torsions:
REMARK  status: ('A' for Active; 'I' for Inactive)
REMARK    1  A    between atoms: C_1  and  C_2
REMARK    2  A    between atoms: C_2  and  C_3
REMARK    3  A    between atoms: C_3  and  O_5
REMARK    4  A    between atoms: O_5  and  C_6
REMARK    5  A    between atoms: C_8  and  N_9
REMARK    6  A    between atoms: C_18  and  C_19
REMARK    7  A    between atoms: C_19  and  O_20
REMARK                            x       y       z     vdW  Elec       q    Type
REMARK                         _______ _______ _______ _____ _____    ______ ____
ROOT
ATOM      1  C   UNL     1       3.096   5.310  19.020  0.00  0.00    +0.000 C 
ATOM      2  C   UNL     1       4.572   5.534  19.254  0.00  0.00    +0.000 C 
ATOM      3  C   UNL     1       5.256   4.330  18.611  0.00  0.00    +0.000 C 
ATOM      4  O   UNL     1       4.282   3.271  18.551  0.00  0.00    +0.000 OA
ATOM      5  C   UNL     1       2.991   3.792  18.920  0.00  0.00    +0.000 C 
ENDROOT
BRANCH   3   6
ATOM      6  N   UNL     1       5.826   4.574  17.285  0.00  0.00    +0.000 N 
ATOM      7  C   UNL     1       5.047   4.615  16.148  0.00  0.00    +0.000 A 
ATOM      8  C   UNL     1       5.588   4.741  14.939  0.00  0.00    +0.000 A 
ATOM      9  C   UNL     1       7.057   4.841  14.901  0.00  0.00    +0.000 A 
ATOM     10  N   UNL     1       7.691   5.009  13.699  0.00  0.00    +0.000 N 
ATOM     11  N   UNL     1       7.802   4.763  15.957  0.00  0.00    +0.000 NA
ATOM     12  C   UNL     1       7.225   4.581  17.191  0.00  0.00    +0.000 A 
ATOM     13  O   UNL     1       7.922   4.416  18.191  0.00  0.00    +0.000 OA
ATOM     14  H   UNL     1       7.263   4.588  12.885  0.00  0.00    +0.000 HD
ATOM     15  H   UNL     1       8.689   4.834  13.763  0.00  0.00    +0.000 HD
ENDBRANCH   3   6
BRANCH   1  16
ATOM     16  O   UNL     1       2.296   5.760  20.129  0.00  0.00    +0.000 OA
BRANCH  16  17
ATOM     17  C   UNL     1       1.901   7.067  20.115  0.00  0.00    +0.000 C 
ATOM     18  O   UNL     1       2.138   7.854  19.214  0.00  0.00    +0.000 OA
BRANCH  17  20
ATOM     19  C   UNL     1       1.083   8.832  21.728  0.00  0.00    +0.000 C 
ATOM     20  C   UNL     1       1.084   7.357  21.352  0.00  0.00    +0.000 C 
ENDBRANCH  17  20
ENDBRANCH  16  17
ENDBRANCH   1  16
BRANCH   5  21
ATOM     21  C   UNL     1       1.974   3.362  17.860  0.00  0.00    +0.000 C 
BRANCH  21  22
ATOM     22  O   UNL     1       1.185   4.474  17.441  0.00  0.00    +0.000 OA
ATOM     23  H   UNL     1       0.524   4.620  18.144  0.00  0.00    +0.000 HD
ENDBRANCH  21  22
ENDBRANCH   5  21
TORSDOF 6
ENDMDL
MODEL 8
REMARK VINA RESULT:      -7.2      2.739      6.101
REMARK  Name = 
REMARK  7 active torsions:
REMARK  status: ('A' for Active; 'I' for Inactive)
REMARK    1  A    between atoms: C_1  and  C_2
REMARK    2  A    between atoms: C_2  and  C_3
REMARK    3  A    between atoms: C_3  and  O_5
REMARK    4  A    between atoms: O_5  and  C_6
REMARK    5  A    between atoms: C_8  and  N_9
REMARK    6  A    between atoms: C_18  and  C_19
REMARK    7  A    between atoms: C_19  and  O_20
REMARK                            x       y       z     vdW  Elec       q    Type
REMARK                         _______ _______ _______ _____ _____    ______ ____
ROOT
ATOM      1  C   UNL     1       5.930   4.668  17.056  0.00  0.00    +0.000 C 
ATOM      2  C   UNL     1       4.597   3.982  17.244  0.00  0.00    +0.000 C 
ATOM      3  C   UNL     1       4.344   4.029  18.749  0.00  0.00    +0.000 C 
ATOM      4  O   UNL     1       5.625   4.178  19.390  0.00  0.00    +0.000 OA
ATOM      5  C   UNL     1       6.630   4.433  18.389  0.00  0.00    +0.000 C 
ENDROOT
BRANCH   3   6
ATOM      6  N   UNL     1       3.426   5.080  19.193  0.00  0.00    +0.000 N 
ATOM      7  C   UNL     1       3.426   6.339  18.631  0.00  0.00    +0.000 A 
ATOM      8  C   UNL     1       2.655   7.312  19.108  0.00  0.00    +0.000 A 
ATOM      9  C   UNL     1       1.807   6.955  20.258  0.00  0.00    +0.000 A 
ATOM     10  N   UNL     1       0.957   7.888  20.785  0.00  0.00    +0.000 N 
ATOM     11  N   UNL     1       1.828   5.788  20.819  0.00  0.00    +0.000 NA
ATOM     12  C   UNL     1       2.669   4.812  20.343  0.00  0.00    +0.000 A 
ATOM     13  O   UNL     1       2.766   3.731  20.920  0.00  0.00    +0.000 OA
ATOM     14  H   UNL     1       1.247   8.857  20.745  0.00  0.00    +0.000 HD
ATOM     15  H   UNL     1       0.602   7.614  21.696  0.00  0.00    +0.000 HD
ENDBRANCH   3   6
BRANCH   1  16
ATOM     16  O   UNL     1       6.709   4.063  16.007  0.00  0.00    +0.000 OA
BRANCH  16  17
ATOM     17  C   UNL     1       6.765   4.728  14.817  0.00  0.00    +0.000 C 
ATOM     18  O   UNL     1       7.582   5.591  14.542  0.00  0.00    +0.000 OA
BRANCH  17  20
ATOM     19  C   UNL     1       6.286   3.522  12.648  0.00  0.00    +0.000 C 
ATOM     20  C   UNL     1       5.704   4.185  13.889  0.00  0.00    +0.000 C 
ENDBRANCH  17  20
ENDBRANCH  16  17
ENDBRANCH   1  16
BRANCH   5  21
ATOM     21  C   UNL     1       7.449   5.650  18.825  0.00  0.00    +0.000 C 
BRANCH  21  22
ATOM     22  O   UNL     1       7.847   5.524  20.189  0.00  0.00    +0.000 OA
ATOM     23  H   UNL     1       7.032   5.604  20.720  0.00  0.00    +0.000 HD
ENDBRANCH  21  22
ENDBRANCH   5  21
TORSDOF 6
ENDMDL
MODEL 9
REMARK VINA RESULT:      -7.1      3.209      6.443
REMARK  Name = 
REMARK  7 active torsions:
REMARK  status: ('A' for Active; 'I' for Inactive)
REMARK    1  A    between atoms: C_1  and  C_2
REMARK    2  A    between atoms: C_2  and  C_3
REMARK    3  A    between atoms: C_3  and  O_5
REMARK    4  A    between atoms: O_5  and  C_6
REMARK    5  A    between atoms: C_8  and  N_9
REMARK    6  A    between atoms: C_18  and  C_19
REMARK    7  A    between atoms: C_19  and  O_20
REMARK                            x       y       z     vdW  Elec       q    Type
REMARK                         _______ _______ _______ _____ _____    ______ ____
ROOT
ATOM      1  C   UNL     1       5.320   6.257  17.800  0.00  0.00    +0.000 C 
ATOM      2  C   UNL     1       3.917   6.783  17.992  0.00  0.00    +0.000 C 
ATOM      3  C   UNL     1       3.009   5.593  17.687  0.00  0.00    +0.000 C 
ATOM      4  O   UNL     1       3.761   4.691  16.853  0.00  0.00    +0.000 OA
ATOM      5  C   UNL     1       5.130   5.132  16.789  0.00  0.00    +0.000 C 
ENDROOT
BRANCH   3   6
ATOM      6  N   UNL     1       2.490   4.890  18.861  0.00  0.00    +0.000 N 
ATOM      7  C   UNL     1       3.054   5.033  20.111  0.00  0.00    +0.000 A 
ATOM      8  C   UNL     1       2.633   4.316  21.149  0.00  0.00    +0.000 A 
ATOM      9  C   UNL     1       1.532   3.376  20.876  0.00  0.00    +0.000 A 
ATOM     10  N   UNL     1       1.016   2.626  21.898  0.00  0.00    +0.000 N 
ATOM     11  N   UNL     1       1.022   3.203  19.699  0.00  0.00    +0.000 NA
ATOM     12  C   UNL     1       1.506   3.918  18.630  0.00  0.00    +0.000 A 
ATOM     13  O   UNL     1       1.093   3.701  17.492  0.00  0.00    +0.000 OA
ATOM     14  H   UNL     1       1.649   2.350  22.638  0.00  0.00    +0.000 HD
ATOM     15  H   UNL     1       0.437   1.863  21.561  0.00  0.00    +0.000 HD
ENDBRANCH   3   6
BRANCH   1  16
ATOM     16  O   UNL     1       6.199   7.248  17.235  0.00  0.00    +0.000 OA
BRANCH  16  17
ATOM     17  C   UNL     1       7.389   7.451  17.870  0.00  0.00    +0.000 C 
ATOM     18  O   UNL     1       7.969   6.616  18.544  0.00  0.00    +0.000 OA
BRANCH  17  20
ATOM     19  C   UNL     1       8.761   9.419  18.666  0.00  0.00    +0.000 C 
ATOM     20  C   UNL     1       7.894   8.840  17.557  0.00  0.00    +0.000 C 
ENDBRANCH  17  20
ENDBRANCH  16  17
ENDBRANCH   1  16
BRANCH   5  21
ATOM     21  C   UNL     1       6.038   3.937  17.089  0.00  0.00    +0.000 C 
BRANCH  21  22
ATOM     22  O   UNL     1       6.733   4.133  18.319  0.00  0.00    +0.000 OA
ATOM     23  H   UNL     1       6.052   4.348  18.985  0.00  0.00    +0.000 HD
ENDBRANCH  21  22
ENDBRANCH   5  21
TORSDOF 6
ENDMDL
