MODEL 1
REMARK VINA RESULT:      -6.6      0.000      0.000
REMARK  Name = 
REMARK  5 active torsions:
REMARK  status: ('A' for Active; 'I' for Inactive)
REMARK    1  A    between atoms: O_1  and  C_2
REMARK    2  A    between atoms: C_2  and  C_3
REMARK    3  A    between atoms: C_3  and  C_4
REMARK    4  A    between atoms: C_4  and  C_5
REMARK    5  A    between atoms: C_6  and  O_7
REMARK                            x       y       z     vdW  Elec       q    Type
REMARK                         _______ _______ _______ _____ _____    ______ ____
ROOT
ATOM      1  C   UNL     1       4.818   4.894  16.868  0.00  0.00    +0.000 A 
ATOM      2  C   UNL     1       4.881   6.297  16.958  0.00  0.00    +0.000 A 
ATOM      3  C   UNL     1       3.868   7.030  17.563  0.00  0.00    +0.000 A 
ATOM      4  C   UNL     1       2.754   6.379  18.082  0.00  0.00    +0.000 A 
ATOM      5  C   UNL     1       2.639   4.986  18.006  0.00  0.00    +0.000 A 
ATOM      6  C   UNL     1       1.508   4.355  18.550  0.00  0.00    +0.000 A 
ATOM      7  C   UNL     1       1.368   2.970  18.511  0.00  0.00    +0.000 A 
ATOM      8  C   UNL     1       2.354   2.201  17.914  0.00  0.00    +0.000 A 
ATOM      9  C   UNL     1       3.481   2.816  17.359  0.00  0.00    +0.000 A 
ATOM     10  C   UNL     1       3.668   4.220  17.394  0.00  0.00    +0.000 A 
ENDROOT
BRANCH   2  11
ATOM     11  O   UNL     1       5.922   7.041  16.472  0.00  0.00    +0.000 OA
ATOM     12  H   UNL     1       5.792   7.227  15.520  0.00  0.00    +0.000 HD
ENDBRANCH   2  11
BRANCH   1  13
ATOM     13  C   UNL     1       5.967   4.118  16.252  0.00  0.00    +0.000 C 
BRANCH  13  14
ATOM     14  C   UNL     1       5.885   3.977  14.728  0.00  0.00    +0.000 C 
BRANCH  14  15
ATOM     15  C   UNL     1       6.956   4.742  13.959  0.00  0.00    +0.000 C 
BRANCH  15  16
ATOM     16  O   UNL     1       7.754   5.498  14.866  0.00  0.00    +0.000 OA
ATOM     17  H   UNL     1       7.752   6.418  14.539  0.00  0.00    +0.000 HD
ENDBRANCH  15  16
ENDBRANCH  14  15
ENDBRANCH  13  14
ENDBRANCH   1  13
TORSDOF 5
ENDMDL
MODEL 2
REMARK VINA RESULT:      -6.2      3.045      5.622
REMARK  Name = 
REMARK  5 active torsions:
REMARK  status: ('A' for Active; 'I' for Inactive)
REMARK    1  A    between atoms: O_1  and  C_2
REMARK    2  A    between atoms: C_2  and  C_3
REMARK    3  A    between atoms: C_3  and  C_4
REMARK    4  A    between atoms: C_4  and  C_5
REMARK    5  A    between atoms: C_6  and  O_7
REMARK                            x       y       z     vdW  Elec       q    Type
REMARK                         _______ _______ _______ _____ _____    ______ ____
ROOT
ATOM      1  C   UNL     1       2.252   3.792  18.520  0.00  0.00    +0.000 A 
ATOM      2  C   UNL     1       2.841   2.572  18.140  0.00  0.00    +0.000 A 
ATOM      3  C   UNL     1       3.998   2.535  17.370  0.00  0.00    +0.000 A 
ATOM      4  C   UNL     1       4.587   3.719  16.945  0.00  0.00    +0.000 A 
ATOM      5  C   UNL     1       4.032   4.958  17.286  0.00  0.00    +0.000 A 
ATOM      6  C   UNL     1       4.658   6.139  16.853  0.00  0.00    +0.000 A 
ATOM      7  C   UNL     1       4.146   7.390  17.190  0.00  0.00    +0.000 A 
ATOM      8  C   UNL     1       2.993   7.473  17.955  0.00  0.00    +0.000 A 
ATOM      9  C   UNL     1       2.354   6.306  18.384  0.00  0.00    +0.000 A 
ATOM     10  C   UNL     1       2.853   5.015  18.077  0.00  0.00    +0.000 A 
ENDROOT
BRANCH   2  11
ATOM     11  O   UNL     1       2.341   1.347  18.490  0.00  0.00    +0.000 OA
ATOM     12  H   UNL     1       2.589   1.129  19.412  0.00  0.00    +0.000 HD
ENDBRANCH   2  11
BRANCH   1  13
ATOM     13  C   UNL     1       1.022   3.799  19.408  0.00  0.00    +0.000 C 
BRANCH  13  14
ATOM     14  C   UNL     1       1.326   3.955  20.902  0.00  0.00    +0.000 C 
BRANCH  14  15
ATOM     15  C   UNL     1       1.487   2.642  21.660  0.00  0.00    +0.000 C 
BRANCH  15  16
ATOM     16  O   UNL     1       2.862   2.431  21.973  0.00  0.00    +0.000 OA
ATOM     17  H   UNL     1       2.885   2.012  22.854  0.00  0.00    +0.000 HD
ENDBRANCH  15  16
ENDBRANCH  14  15
ENDBRANCH  13  14
ENDBRANCH   1  13
TORSDOF 5
ENDMDL
MODEL 3
REMARK VINA RESULT:      -6.2      1.564      1.905
REMARK  Name = 
REMARK  5 active torsions:
REMARK  status: ('A' for Active; 'I' for Inactive)
REMARK    1  A    between atoms: O_1  and  C_2
REMARK    2  A    between atoms: C_2  and  C_3
REMARK    3  A    between atoms: C_3  and  C_4
REMARK    4  A    between atoms: C_4  and  C_5
REMARK    5  A    between atoms: C_6  and  O_7
REMARK                            x       y       z     vdW  Elec       q    Type
REMARK                         _______ _______ _______ _____ _____    ______ ____
ROOT
ATOM      1  C   UNL     1       5.507   4.152  16.924  0.00  0.00    +0.000 A 
ATOM      2  C   UNL     1       6.644   4.672  17.570  0.00  0.00    +0.000 A 
ATOM      3  C   UNL     1       6.557   5.263  18.825  0.00  0.00    +0.000 A 
ATOM      4  C   UNL     1       5.325   5.364  19.461  0.00  0.00    +0.000 A 
ATOM      5  C   UNL     1       4.163   4.873  18.854  0.00  0.00    +0.000 A 
ATOM      6  C   UNL     1       2.935   4.979  19.527  0.00  0.00    +0.000 A 
ATOM      7  C   UNL     1       1.761   4.484  18.963  0.00  0.00    +0.000 A 
ATOM      8  C   UNL     1       1.802   3.890  17.712  0.00  0.00    +0.000 A 
ATOM      9  C   UNL     1       3.016   3.787  17.026  0.00  0.00    +0.000 A 
ATOM     10  C   UNL     1       4.234   4.263  17.573  0.00  0.00    +0.000 A 
ENDROOT
BRANCH   2  11
ATOM     11  O   UNL     1       7.902   4.638  17.033  0.00  0.00    +0.000 OA
ATOM     12  H   UNL     1       8.545   4.306  17.692  0.00  0.00    +0.000 HD
ENDBRANCH   2  11
BRANCH   1  13
ATOM     13  C   UNL     1       5.644   3.464  15.579  0.00  0.00    +0.000 C 
BRANCH  13  14
ATOM     14  C   UNL     1       5.600   4.415  14.378  0.00  0.00    +0.000 C 
BRANCH  14  15
ATOM     15  C   UNL     1       6.919   4.551  13.625  0.00  0.00    +0.000 C 
BRANCH  15  16
ATOM     16  O   UNL     1       7.757   5.496  14.286  0.00  0.00    +0.000 OA
ATOM     17  H   UNL     1       7.404   5.596  15.191  0.00  0.00    +0.000 HD
ENDBRANCH  15  16
ENDBRANCH  14  15
ENDBRANCH  13  14
ENDBRANCH   1  13
TORSDOF 5
ENDMDL
MODEL 4
REMARK VINA RESULT:      -6.1      1.646      2.082
REMARK  Name = 
REMARK  5 active torsions:
REMARK  status: ('A' for Active; 'I' for Inactive)
REMARK    1  A    between atoms: O_1  and  C_2
REMARK    2  A    between atoms: C_2  and  C_3
REMARK    3  A    between atoms: C_3  and  C_4
REMARK    4  A    between atoms: C_4  and  C_5
REMARK    5  A    between atoms: C_6  and  O_7
REMARK                            x       y       z     vdW  Elec       q    Type
REMARK                         _______ _______ _______ _____ _____    ______ ____
ROOT
ATOM      1  C   UNL     1       5.761   5.275  16.470  0.00  0.00    +0.000 A 
ATOM      2  C   UNL     1       6.813   5.989  17.073  0.00  0.00    +0.000 A 
ATOM      3  C   UNL     1       7.035   5.931  18.444  0.00  0.00    +0.000 A 
ATOM      4  C   UNL     1       6.198   5.170  19.252  0.00  0.00    +0.000 A 
ATOM      5  C   UNL     1       5.130   4.452  18.701  0.00  0.00    +0.000 A 
ATOM      6  C   UNL     1       4.309   3.682  19.541  0.00  0.00    +0.000 A 
ATOM      7  C   UNL     1       3.249   2.938  19.026  0.00  0.00    +0.000 A 
ATOM      8  C   UNL     1       2.991   2.968  17.665  0.00  0.00    +0.000 A 
ATOM      9  C   UNL     1       3.794   3.739  16.818  0.00  0.00    +0.000 A 
ATOM     10  C   UNL     1       4.891   4.496  17.300  0.00  0.00    +0.000 A 
ENDROOT
BRANCH   2  11
ATOM     11  O   UNL     1       7.689   6.778  16.378  0.00  0.00    +0.000 OA
ATOM     12  H   UNL     1       7.569   7.718  16.624  0.00  0.00    +0.000 HD
ENDBRANCH   2  11
BRANCH   1  13
ATOM     13  C   UNL     1       5.580   5.313  14.964  0.00  0.00    +0.000 C 
BRANCH  13  14
ATOM     14  C   UNL     1       6.364   4.233  14.209  0.00  0.00    +0.000 C 
BRANCH  14  15
ATOM     15  C   UNL     1       7.323   4.766  13.150  0.00  0.00    +0.000 C 
BRANCH  15  16
ATOM     16  O   UNL     1       8.212   5.713  13.737  0.00  0.00    +0.000 OA
ATOM     17  H   UNL     1       7.684   6.235  14.371  0.00  0.00    +0.000 HD
ENDBRANCH  15  16
ENDBRANCH  14  15
ENDBRANCH  13  14
ENDBRANCH   1  13
TORSDOF 5
ENDMDL
MODEL 5
REMARK VINA RESULT:      -6.1      1.073      1.360
REMARK  Name = 
REMARK  5 active torsions:
REMARK  status: ('A' for Active; 'I' for Inactive)
REMARK    1  A    between atoms: O_1  and  C_2
REMARK    2  A    between atoms: C_2  and  C_3
REMARK    3  A    between atoms: C_3  and  C_4
REMARK    4  A    between atoms: C_4  and  C_5
REMARK    5  A    between atoms: C_6  and  O_7
REMARK                            x       y       z     vdW  Elec       q    Type
REMARK                         _______ _______ _______ _____ _____    ______ ____
ROOT
ATOM      1  C   UNL     1       3.747   4.884  17.371  0.00  0.00    +0.000 A 
ATOM      2  C   UNL     1       3.913   6.263  17.594  0.00  0.00    +0.000 A 
ATOM      3  C   UNL     1       3.217   6.923  18.600  0.00  0.00    +0.000 A 
ATOM      4  C   UNL     1       2.322   6.223  19.400  0.00  0.00    +0.000 A 
ATOM      5  C   UNL     1       2.113   4.852  19.210  0.00  0.00    +0.000 A 
ATOM      6  C   UNL     1       1.212   4.168  20.043  0.00  0.00    +0.000 A 
ATOM      7  C   UNL     1       0.993   2.800  19.897  0.00  0.00    +0.000 A 
ATOM      8  C   UNL     1       1.664   2.103  18.904  0.00  0.00    +0.000 A 
ATOM      9  C   UNL     1       2.556   2.773  18.061  0.00  0.00    +0.000 A 
ATOM     10  C   UNL     1       2.820   4.160  18.189  0.00  0.00    +0.000 A 
ENDROOT
BRANCH   2  11
ATOM     11  O   UNL     1       4.756   7.053  16.860  0.00  0.00    +0.000 OA
ATOM     12  H   UNL     1       4.247   7.730  16.370  0.00  0.00    +0.000 HD
ENDBRANCH   2  11
BRANCH   1  13
ATOM     13  C   UNL     1       4.563   4.182  16.303  0.00  0.00    +0.000 C 
BRANCH  13  14
ATOM     14  C   UNL     1       6.060   4.081  16.619  0.00  0.00    +0.000 C 
BRANCH  14  15
ATOM     15  C   UNL     1       6.977   4.672  15.555  0.00  0.00    +0.000 C 
BRANCH  15  16
ATOM     16  O   UNL     1       7.421   5.964  15.964  0.00  0.00    +0.000 OA
ATOM     17  H   UNL     1       7.093   6.096  16.873  0.00  0.00    +0.000 HD
ENDBRANCH  15  16
ENDBRANCH  14  15
ENDBRANCH  13  14
ENDBRANCH   1  13
TORSDOF 5
ENDMDL
MODEL 6
REMARK VINA RESULT:      -6.0      2.000      3.503
REMARK  Name = 
REMARK  5 active torsions:
REMARK  status: ('A' for Active; 'I' for Inactive)
REMARK    1  A    between atoms: O_1  and  C_2
REMARK    2  A    between atoms: C_2  and  C_3
REMARK    3  A    between atoms: C_3  and  C_4
REMARK    4  A    between atoms: C_4  and  C_5
REMARK    5  A    between atoms: C_6  and  O_7
REMARK                            x       y       z     vdW  Elec       q    Type
REMARK                         _______ _______ _______ _____ _____    ______ ____
ROOT
ATOM      1  C   UNL     1       6.029   5.947  16.830  0.00  0.00    +0.000 A 
ATOM      2  C   UNL     1       6.554   5.189  15.767  0.00  0.00    +0.000 A 
ATOM      3  C   UNL     1       5.889   4.071  15.278  0.00  0.00    +0.000 A 
ATOM      4  C   UNL     1       4.688   3.671  15.851  0.00  0.00    +0.000 A 
ATOM      5  C   UNL     1       4.131   4.385  16.918  0.00  0.00    +0.000 A 
ATOM      6  C   UNL     1       2.910   3.963  17.469  0.00  0.00    +0.000 A 
ATOM      7  C   UNL     1       2.315   4.660  18.519  0.00  0.00    +0.000 A 
ATOM      8  C   UNL     1       2.945   5.779  19.039  0.00  0.00    +0.000 A 
ATOM      9  C   UNL     1       4.167   6.204  18.508  0.00  0.00    +0.000 A 
ATOM     10  C   UNL     1       4.795   5.533  17.429  0.00  0.00    +0.000 A 
ENDROOT
BRANCH   2  11
ATOM     11  O   UNL     1       7.733   5.483  15.137  0.00  0.00    +0.000 OA
ATOM     12  H   UNL     1       8.349   5.925  15.757  0.00  0.00    +0.000 HD
ENDBRANCH   2  11
BRANCH   1  13
ATOM     13  C   UNL     1       6.750   7.195  17.304  0.00  0.00    +0.000 C 
BRANCH  13  14
ATOM     14  C   UNL     1       7.834   6.933  18.356  0.00  0.00    +0.000 C 
BRANCH  14  15
ATOM     15  C   UNL     1       7.847   5.517  18.919  0.00  0.00    +0.000 C 
BRANCH  15  16
ATOM     16  O   UNL     1       7.884   5.565  20.344  0.00  0.00    +0.000 OA
ATOM     17  H   UNL     1       7.056   5.994  20.630  0.00  0.00    +0.000 HD
ENDBRANCH  15  16
ENDBRANCH  14  15
ENDBRANCH  13  14
ENDBRANCH   1  13
TORSDOF 5
ENDMDL
MODEL 7
REMARK VINA RESULT:      -6.0      2.865      4.849
REMARK  Name = 
REMARK  5 active torsions:
REMARK  status: ('A' for Active; 'I' for Inactive)
REMARK    1  A    between atoms: O_1  and  C_2
REMARK    2  A    between atoms: C_2  and  C_3
REMARK    3  A    between atoms: C_3  and  C_4
REMARK    4  A    between atoms: C_4  and  C_5
REMARK    5  A    between atoms: C_6  and  O_7
REMARK                            x       y       z     vdW  Elec       q    Type
REMARK                         _______ _______ _______ _____ _____    ______ ____
ROOT
ATOM      1  C   UNL     1       3.389   4.803  18.987  0.00  0.00    +0.000 A 
ATOM      2  C   UNL     1       2.706   5.907  19.532  0.00  0.00    +0.000 A 
ATOM      3  C   UNL     1       2.756   7.159  18.929  0.00  0.00    +0.000 A 
ATOM      4  C   UNL     1       3.505   7.343  17.773  0.00  0.00    +0.000 A 
ATOM      5  C   UNL     1       4.211   6.279  17.199  0.00  0.00    +0.000 A 
ATOM      6  C   UNL     1       4.950   6.493  16.023  0.00  0.00    +0.000 A 
ATOM      7  C   UNL     1       5.649   5.455  15.413  0.00  0.00    +0.000 A 
ATOM      8  C   UNL     1       5.628   4.191  15.982  0.00  0.00    +0.000 A 
ATOM      9  C   UNL     1       4.906   3.966  17.159  0.00  0.00    +0.000 A 
ATOM     10  C   UNL     1       4.168   4.992  17.800  0.00  0.00    +0.000 A 
ENDROOT
BRANCH   2  11
ATOM     11  O   UNL     1       1.951   5.844  20.671  0.00  0.00    +0.000 OA
ATOM     12  H   UNL     1       1.210   6.482  20.623  0.00  0.00    +0.000 HD
ENDBRANCH   2  11
BRANCH   1  13
ATOM     13  C   UNL     1       3.268   3.438  19.637  0.00  0.00    +0.000 C 
BRANCH  13  14
ATOM     14  C   UNL     1       2.283   2.494  18.939  0.00  0.00    +0.000 C 
BRANCH  14  15
ATOM     15  C   UNL     1       0.815   2.755  19.260  0.00  0.00    +0.000 C 
BRANCH  15  16
ATOM     16  O   UNL     1       0.681   3.142  20.625  0.00  0.00    +0.000 OA
ATOM     17  H   UNL     1      -0.102   2.675  20.972  0.00  0.00    +0.000 HD
ENDBRANCH  15  16
ENDBRANCH  14  15
ENDBRANCH  13  14
ENDBRANCH   1  13
TORSDOF 5
ENDMDL
MODEL 8
REMARK VINA RESULT:      -5.9      1.822      4.092
REMARK  Name = 
REMARK  5 active torsions:
REMARK  status: ('A' for Active; 'I' for Inactive)
REMARK    1  A    between atoms: O_1  and  C_2
REMARK    2  A    between atoms: C_2  and  C_3
REMARK    3  A    between atoms: C_3  and  C_4
REMARK    4  A    between atoms: C_4  and  C_5
REMARK    5  A    between atoms: C_6  and  O_7
REMARK                            x       y       z     vdW  Elec       q    Type
REMARK                         _______ _______ _______ _____ _____    ______ ____
ROOT
ATOM      1  C   UNL     1       3.361   5.891  18.040  0.00  0.00    +0.000 A 
ATOM      2  C   UNL     1       4.441   5.862  17.139  0.00  0.00    +0.000 A 
ATOM      3  C   UNL     1       4.844   4.679  16.530  0.00  0.00    +0.000 A 
ATOM      4  C   UNL     1       4.188   3.489  16.821  0.00  0.00    +0.000 A 
ATOM      5  C   UNL     1       3.116   3.464  17.721  0.00  0.00    +0.000 A 
ATOM      6  C   UNL     1       2.463   2.248  17.985  0.00  0.00    +0.000 A 
ATOM      7  C   UNL     1       1.380   2.188  18.859  0.00  0.00    +0.000 A 
ATOM      8  C   UNL     1       0.947   3.343  19.490  0.00  0.00    +0.000 A 
ATOM      9  C   UNL     1       1.593   4.559  19.244  0.00  0.00    +0.000 A 
ATOM     10  C   UNL     1       2.687   4.664  18.349  0.00  0.00    +0.000 A 
ENDROOT
BRANCH   2  11
ATOM     11  O   UNL     1       5.165   6.968  16.789  0.00  0.00    +0.000 OA
ATOM     12  H   UNL     1       4.569   7.687  16.495  0.00  0.00    +0.000 HD
ENDBRANCH   2  11
BRANCH   1  13
ATOM     13  C   UNL     1       2.909   7.207  18.645  0.00  0.00    +0.000 C 
BRANCH  13  14
ATOM     14  C   UNL     1       2.056   8.069  17.707  0.00  0.00    +0.000 C 
BRANCH  14  15
ATOM     15  C   UNL     1       1.595   9.394  18.304  0.00  0.00    +0.000 C 
BRANCH  15  16
ATOM     16  O   UNL     1       1.969  10.467  17.444  0.00  0.00    +0.000 OA
ATOM     17  H   UNL     1       1.593  10.265  16.567  0.00  0.00    +0.000 HD
ENDBRANCH  15  16
ENDBRANCH  14  15
ENDBRANCH  13  14
ENDBRANCH   1  13
TORSDOF 5
ENDMDL
MODEL 9
REMARK VINA RESULT:      -5.9      1.939      2.282
REMARK  Name = 
REMARK  5 active torsions:
REMARK  status: ('A' for Active; 'I' for Inactive)
REMARK    1  A    between atoms: O_1  and  C_2
REMARK    2  A    between atoms: C_2  and  C_3
REMARK    3  A    between atoms: C_3  and  C_4
REMARK    4  A    between atoms: C_4  and  C_5
REMARK    5  A    between atoms: C_6  and  O_7
REMARK                            x       y       z     vdW  Elec       q    Type
REMARK                         _______ _______ _______ _____ _____    ______ ____
ROOT
ATOM      1  C   UNL     1       5.671   5.038  16.381  0.00  0.00    +0.000 A 
ATOM      2  C   UNL     1       6.721   5.794  16.934  0.00  0.00    +0.000 A 
ATOM      3  C   UNL     1       6.917   5.866  18.308  0.00  0.00    +0.000 A 
ATOM      4  C   UNL     1       6.056   5.195  19.168  0.00  0.00    +0.000 A 
ATOM      5  C   UNL     1       4.989   4.440  18.668  0.00  0.00    +0.000 A 
ATOM      6  C   UNL     1       4.142   3.763  19.561  0.00  0.00    +0.000 A 
ATOM      7  C   UNL     1       3.082   2.986  19.100  0.00  0.00    +0.000 A 
ATOM      8  C   UNL     1       2.850   2.889  17.737  0.00  0.00    +0.000 A 
ATOM      9  C   UNL     1       3.678   3.566  16.836  0.00  0.00    +0.000 A 
ATOM     10  C   UNL     1       4.776   4.352  17.265  0.00  0.00    +0.000 A 
ENDROOT
BRANCH   2  11
ATOM     11  O   UNL     1       7.620   6.503  16.184  0.00  0.00    +0.000 OA
ATOM     12  H   UNL     1       7.230   7.354  15.899  0.00  0.00    +0.000 HD
ENDBRANCH   2  11
BRANCH   1  13
ATOM     13  C   UNL     1       5.518   4.934  14.876  0.00  0.00    +0.000 C 
BRANCH  13  14
ATOM     14  C   UNL     1       6.336   3.806  14.237  0.00  0.00    +0.000 C 
BRANCH  14  15
ATOM     15  C   UNL     1       6.335   3.803  12.712  0.00  0.00    +0.000 C 
BRANCH  15  16
ATOM     16  O   UNL     1       6.113   2.479  12.232  0.00  0.00    +0.000 OA
ATOM     17  H   UNL     1       6.604   1.881  12.827  0.00  0.00    +0.000 HD
ENDBRANCH  15  16
ENDBRANCH  14  15
ENDBRANCH  13  14
ENDBRANCH   1  13
TORSDOF 5
ENDMDL
