MODEL 1
REMARK VINA RESULT:      -6.8      0.000      0.000
REMARK  Name = 
REMARK  4 active torsions:
REMARK  status: ('A' for Active; 'I' for Inactive)
REMARK    1  A    between atoms: C_1  and  C_2
REMARK    2  A    between atoms: C_2  and  C_3
REMARK    3  A    between atoms: C_5  and  C_6
REMARK    4  A    between atoms: N_14  and  C_15
REMARK                            x       y       z     vdW  Elec       q    Type
REMARK                         _______ _______ _______ _____ _____    ______ ____
ROOT
ATOM      1  C   UNL     1       6.059   4.424  15.479  0.00  0.00    +0.000 C 
ATOM      2  C   UNL     1       5.058   5.564  15.568  0.00  0.00    +0.000 C 
ATOM      3  C   UNL     1       4.851   5.676  17.075  0.00  0.00    +0.000 C 
ATOM      4  C   UNL     1       4.050   6.951  17.429  0.00  0.00    +0.000 C 
ATOM      5  C   UNL     1       4.056   4.455  17.577  0.00  0.00    +0.000 C 
ATOM      6  C   UNL     1       4.422   3.728  18.637  0.00  0.00    +0.000 C 
ATOM      7  C   UNL     1       3.464   2.622  18.920  0.00  0.00    +0.000 C 
ATOM      8  C   UNL     1       2.671   2.553  17.619  0.00  0.00    +0.000 C 
ATOM      9  C   UNL     1       2.770   3.944  16.999  0.00  0.00    +0.000 C 
ATOM     10  C   UNL     1       5.614   4.031  19.487  0.00  0.00    +0.000 C 
ATOM     11  C   UNL     1       6.276   5.357  19.081  0.00  0.00    +0.000 C 
ATOM     12  N   UNL     1       6.263   5.623  17.613  0.00  0.00    +0.000 N 
ATOM     13  C   UNL     1       7.041   6.884  17.399  0.00  0.00    +0.000 C 
ATOM     14  C   UNL     1       6.913   4.569  16.769  0.00  0.00    +0.000 C 
ENDROOT
BRANCH   1  16
ATOM     15  C   UNL     1       6.067   3.651  13.065  0.00  0.00    +0.000 C 
ATOM     16  C   UNL     1       6.808   4.430  14.141  0.00  0.00    +0.000 C 
ENDBRANCH   1  16
TORSDOF 1
ENDMDL
MODEL 2
REMARK VINA RESULT:      -6.4      1.382      4.436
REMARK  Name = 
REMARK  4 active torsions:
REMARK  status: ('A' for Active; 'I' for Inactive)
REMARK    1  A    between atoms: C_1  and  C_2
REMARK    2  A    between atoms: C_2  and  C_3
REMARK    3  A    between atoms: C_5  and  C_6
REMARK    4  A    between atoms: N_14  and  C_15
REMARK                            x       y       z     vdW  Elec       q    Type
REMARK                         _______ _______ _______ _____ _____    ______ ____
ROOT
ATOM      1  C   UNL     1       2.980   3.284  17.713  0.00  0.00    +0.000 C 
ATOM      2  C   UNL     1       4.226   3.268  18.582  0.00  0.00    +0.000 C 
ATOM      3  C   UNL     1       4.768   4.678  18.370  0.00  0.00    +0.000 C 
ATOM      4  C   UNL     1       5.915   4.984  19.362  0.00  0.00    +0.000 C 
ATOM      5  C   UNL     1       5.325   4.805  16.939  0.00  0.00    +0.000 C 
ATOM      6  C   UNL     1       5.024   5.819  16.122  0.00  0.00    +0.000 C 
ATOM      7  C   UNL     1       5.717   5.709  14.808  0.00  0.00    +0.000 C 
ATOM      8  C   UNL     1       6.176   4.255  14.814  0.00  0.00    +0.000 C 
ATOM      9  C   UNL     1       6.294   3.864  16.284  0.00  0.00    +0.000 C 
ATOM     10  C   UNL     1       4.151   6.970  16.507  0.00  0.00    +0.000 C 
ATOM     11  C   UNL     1       3.766   6.917  17.993  0.00  0.00    +0.000 C 
ATOM     12  N   UNL     1       3.533   5.538  18.516  0.00  0.00    +0.000 N 
ATOM     13  C   UNL     1       3.063   5.689  19.929  0.00  0.00    +0.000 C 
ATOM     14  C   UNL     1       2.480   4.753  17.794  0.00  0.00    +0.000 C 
ENDROOT
BRANCH   1  16
ATOM     15  C   UNL     1       0.888   2.714  19.025  0.00  0.00    +0.000 C 
ATOM     16  C   UNL     1       1.990   2.186  18.121  0.00  0.00    +0.000 C 
ENDBRANCH   1  16
TORSDOF 1
ENDMDL
MODEL 3
REMARK VINA RESULT:      -6.2      1.825      4.900
REMARK  Name = 
REMARK  4 active torsions:
REMARK  status: ('A' for Active; 'I' for Inactive)
REMARK    1  A    between atoms: C_1  and  C_2
REMARK    2  A    between atoms: C_2  and  C_3
REMARK    3  A    between atoms: C_5  and  C_6
REMARK    4  A    between atoms: N_14  and  C_15
REMARK                            x       y       z     vdW  Elec       q    Type
REMARK                         _______ _______ _______ _____ _____    ______ ____
ROOT
ATOM      1  C   UNL     1       3.796   3.308  19.990  0.00  0.00    +0.000 C 
ATOM      2  C   UNL     1       3.477   4.794  19.963  0.00  0.00    +0.000 C 
ATOM      3  C   UNL     1       3.831   5.160  18.526  0.00  0.00    +0.000 C 
ATOM      4  C   UNL     1       3.349   6.590  18.185  0.00  0.00    +0.000 C 
ATOM      5  C   UNL     1       5.362   5.114  18.347  0.00  0.00    +0.000 C 
ATOM      6  C   UNL     1       5.963   4.485  17.333  0.00  0.00    +0.000 C 
ATOM      7  C   UNL     1       7.446   4.618  17.386  0.00  0.00    +0.000 C 
ATOM      8  C   UNL     1       7.668   5.096  18.818  0.00  0.00    +0.000 C 
ATOM      9  C   UNL     1       6.372   5.788  19.229  0.00  0.00    +0.000 C 
ATOM     10  C   UNL     1       5.231   3.788  16.231  0.00  0.00    +0.000 C 
ATOM     11  C   UNL     1       3.714   4.010  16.330  0.00  0.00    +0.000 C 
ATOM     12  N   UNL     1       3.191   4.048  17.727  0.00  0.00    +0.000 N 
ATOM     13  C   UNL     1       1.702   4.156  17.624  0.00  0.00    +0.000 C 
ATOM     14  C   UNL     1       3.477   2.826  18.548  0.00  0.00    +0.000 C 
ENDROOT
BRANCH   1  16
ATOM     15  C   UNL     1       1.638   3.062  21.295  0.00  0.00    +0.000 C 
ATOM     16  C   UNL     1       3.076   2.594  21.140  0.00  0.00    +0.000 C 
ENDBRANCH   1  16
TORSDOF 1
ENDMDL
MODEL 4
REMARK VINA RESULT:      -6.2      1.846      4.119
REMARK  Name = 
REMARK  4 active torsions:
REMARK  status: ('A' for Active; 'I' for Inactive)
REMARK    1  A    between atoms: C_1  and  C_2
REMARK    2  A    between atoms: C_2  and  C_3
REMARK    3  A    between atoms: C_5  and  C_6
REMARK    4  A    between atoms: N_14  and  C_15
REMARK                            x       y       z     vdW  Elec       q    Type
REMARK                         _______ _______ _______ _____ _____    ______ ____
ROOT
ATOM      1  C   UNL     1       5.215   4.845  19.258  0.00  0.00    +0.000 C 
ATOM      2  C   UNL     1       5.339   3.331  19.232  0.00  0.00    +0.000 C 
ATOM      3  C   UNL     1       4.017   2.923  18.593  0.00  0.00    +0.000 C 
ATOM      4  C   UNL     1       4.019   1.420  18.231  0.00  0.00    +0.000 C 
ATOM      5  C   UNL     1       2.866   3.176  19.587  0.00  0.00    +0.000 C 
ATOM      6  C   UNL     1       1.740   3.815  19.258  0.00  0.00    +0.000 C 
ATOM      7  C   UNL     1       0.785   3.900  20.399  0.00  0.00    +0.000 C 
ATOM      8  C   UNL     1       1.681   3.557  21.585  0.00  0.00    +0.000 C 
ATOM      9  C   UNL     1       2.819   2.716  21.015  0.00  0.00    +0.000 C 
ATOM     10  C   UNL     1       1.439   4.323  17.885  0.00  0.00    +0.000 C 
ATOM     11  C   UNL     1       2.513   3.893  16.874  0.00  0.00    +0.000 C 
ATOM     12  N   UNL     1       3.900   3.875  17.425  0.00  0.00    +0.000 N 
ATOM     13  C   UNL     1       4.810   3.547  16.283  0.00  0.00    +0.000 C 
ATOM     14  C   UNL     1       4.376   5.178  17.993  0.00  0.00    +0.000 C 
ENDROOT
BRANCH   1  16
ATOM     15  C   UNL     1       7.458   5.290  18.166  0.00  0.00    +0.000 C 
ATOM     16  C   UNL     1       6.584   5.525  19.387  0.00  0.00    +0.000 C 
ENDBRANCH   1  16
TORSDOF 1
ENDMDL
MODEL 5
REMARK VINA RESULT:      -6.1      1.530      2.424
REMARK  Name = 
REMARK  4 active torsions:
REMARK  status: ('A' for Active; 'I' for Inactive)
REMARK    1  A    between atoms: C_1  and  C_2
REMARK    2  A    between atoms: C_2  and  C_3
REMARK    3  A    between atoms: C_5  and  C_6
REMARK    4  A    between atoms: N_14  and  C_15
REMARK                            x       y       z     vdW  Elec       q    Type
REMARK                         _______ _______ _______ _____ _____    ______ ____
ROOT
ATOM      1  C   UNL     1       5.033   4.829  15.533  0.00  0.00    +0.000 C 
ATOM      2  C   UNL     1       5.835   6.110  15.686  0.00  0.00    +0.000 C 
ATOM      3  C   UNL     1       5.881   6.267  17.202  0.00  0.00    +0.000 C 
ATOM      4  C   UNL     1       6.869   7.384  17.613  0.00  0.00    +0.000 C 
ATOM      5  C   UNL     1       4.481   6.651  17.721  0.00  0.00    +0.000 C 
ATOM      6  C   UNL     1       3.888   6.040  18.752  0.00  0.00    +0.000 C 
ATOM      7  C   UNL     1       2.552   6.624  19.060  0.00  0.00    +0.000 C 
ATOM      8  C   UNL     1       2.260   7.426  17.797  0.00  0.00    +0.000 C 
ATOM      9  C   UNL     1       3.621   7.762  17.195  0.00  0.00    +0.000 C 
ATOM     10  C   UNL     1       4.521   4.947  19.551  0.00  0.00    +0.000 C 
ATOM     11  C   UNL     1       5.982   4.715  19.136  0.00  0.00    +0.000 C 
ATOM     12  N   UNL     1       6.236   4.876  17.674  0.00  0.00    +0.000 N 
ATOM     13  C   UNL     1       7.668   4.506  17.445  0.00  0.00    +0.000 C 
ATOM     14  C   UNL     1       5.416   3.991  16.784  0.00  0.00    +0.000 C 
ENDROOT
BRANCH   1  16
ATOM     15  C   UNL     1       6.700   4.304  13.697  0.00  0.00    +0.000 C 
ATOM     16  C   UNL     1       5.258   4.179  14.162  0.00  0.00    +0.000 C 
ENDBRANCH   1  16
TORSDOF 1
ENDMDL
MODEL 6
REMARK VINA RESULT:      -6.1      1.463      4.582
REMARK  Name = 
REMARK  4 active torsions:
REMARK  status: ('A' for Active; 'I' for Inactive)
REMARK    1  A    between atoms: C_1  and  C_2
REMARK    2  A    between atoms: C_2  and  C_3
REMARK    3  A    between atoms: C_5  and  C_6
REMARK    4  A    between atoms: N_14  and  C_15
REMARK                            x       y       z     vdW  Elec       q    Type
REMARK                         _______ _______ _______ _____ _____    ______ ____
ROOT
ATOM      1  C   UNL     1       3.653   7.336  17.899  0.00  0.00    +0.000 C 
ATOM      2  C   UNL     1       4.117   6.790  16.559  0.00  0.00    +0.000 C 
ATOM      3  C   UNL     1       4.837   5.513  16.978  0.00  0.00    +0.000 C 
ATOM      4  C   UNL     1       5.187   4.646  15.745  0.00  0.00    +0.000 C 
ATOM      5  C   UNL     1       6.151   5.876  17.697  0.00  0.00    +0.000 C 
ATOM      6  C   UNL     1       6.520   5.340  18.864  0.00  0.00    +0.000 C 
ATOM      7  C   UNL     1       7.844   5.846  19.324  0.00  0.00    +0.000 C 
ATOM      8  C   UNL     1       8.034   7.076  18.442  0.00  0.00    +0.000 C 
ATOM      9  C   UNL     1       7.201   6.820  17.189  0.00  0.00    +0.000 C 
ATOM     10  C   UNL     1       5.733   4.298  19.591  0.00  0.00    +0.000 C 
ATOM     11  C   UNL     1       4.531   3.817  18.764  0.00  0.00    +0.000 C 
ATOM     12  N   UNL     1       3.873   4.890  17.961  0.00  0.00    +0.000 N 
ATOM     13  C   UNL     1       2.671   4.269  17.320  0.00  0.00    +0.000 C 
ATOM     14  C   UNL     1       3.379   6.065  18.750  0.00  0.00    +0.000 C 
ENDROOT
BRANCH   1  16
ATOM     15  C   UNL     1       1.757   8.568  19.044  0.00  0.00    +0.000 C 
ATOM     16  C   UNL     1       2.496   8.330  17.737  0.00  0.00    +0.000 C 
ENDBRANCH   1  16
TORSDOF 1
ENDMDL
MODEL 7
REMARK VINA RESULT:      -6.0      2.261      5.259
REMARK  Name = 
REMARK  4 active torsions:
REMARK  status: ('A' for Active; 'I' for Inactive)
REMARK    1  A    between atoms: C_1  and  C_2
REMARK    2  A    between atoms: C_2  and  C_3
REMARK    3  A    between atoms: C_5  and  C_6
REMARK    4  A    between atoms: N_14  and  C_15
REMARK                            x       y       z     vdW  Elec       q    Type
REMARK                         _______ _______ _______ _____ _____    ______ ____
ROOT
ATOM      1  C   UNL     1       2.718   4.301  20.446  0.00  0.00    +0.000 C 
ATOM      2  C   UNL     1       1.516   4.232  19.519  0.00  0.00    +0.000 C 
ATOM      3  C   UNL     1       2.180   4.271  18.147  0.00  0.00    +0.000 C 
ATOM      4  C   UNL     1       1.158   3.960  17.029  0.00  0.00    +0.000 C 
ATOM      5  C   UNL     1       2.754   5.680  17.894  0.00  0.00    +0.000 C 
ATOM      6  C   UNL     1       3.996   5.897  17.453  0.00  0.00    +0.000 C 
ATOM      7  C   UNL     1       4.284   7.348  17.270  0.00  0.00    +0.000 C 
ATOM      8  C   UNL     1       3.146   7.995  18.052  0.00  0.00    +0.000 C 
ATOM      9  C   UNL     1       2.012   6.974  18.055  0.00  0.00    +0.000 C 
ATOM     10  C   UNL     1       4.963   4.809  17.111  0.00  0.00    +0.000 C 
ATOM     11  C   UNL     1       4.306   3.423  17.189  0.00  0.00    +0.000 C 
ATOM     12  N   UNL     1       3.311   3.279  18.292  0.00  0.00    +0.000 N 
ATOM     13  C   UNL     1       2.867   1.849  18.284  0.00  0.00    +0.000 C 
ATOM     14  C   UNL     1       3.839   3.557  19.667  0.00  0.00    +0.000 C 
ENDROOT
BRANCH   1  16
ATOM     15  C   UNL     1       1.529   2.527  21.810  0.00  0.00    +0.000 C 
ATOM     16  C   UNL     1       2.383   3.784  21.850  0.00  0.00    +0.000 C 
ENDBRANCH   1  16
TORSDOF 1
ENDMDL
MODEL 8
REMARK VINA RESULT:      -6.0      2.068      3.627
REMARK  Name = 
REMARK  4 active torsions:
REMARK  status: ('A' for Active; 'I' for Inactive)
REMARK    1  A    between atoms: C_1  and  C_2
REMARK    2  A    between atoms: C_2  and  C_3
REMARK    3  A    between atoms: C_5  and  C_6
REMARK    4  A    between atoms: N_14  and  C_15
REMARK                            x       y       z     vdW  Elec       q    Type
REMARK                         _______ _______ _______ _____ _____    ______ ____
ROOT
ATOM      1  C   UNL     1       5.968   5.165  19.327  0.00  0.00    +0.000 C 
ATOM      2  C   UNL     1       5.595   4.153  18.255  0.00  0.00    +0.000 C 
ATOM      3  C   UNL     1       4.094   4.384  18.121  0.00  0.00    +0.000 C 
ATOM      4  C   UNL     1       3.527   3.630  16.895  0.00  0.00    +0.000 C 
ATOM      5  C   UNL     1       3.379   3.859  19.381  0.00  0.00    +0.000 C 
ATOM      6  C   UNL     1       2.468   4.566  20.056  0.00  0.00    +0.000 C 
ATOM      7  C   UNL     1       1.916   3.813  21.218  0.00  0.00    +0.000 C 
ATOM      8  C   UNL     1       2.930   2.685  21.371  0.00  0.00    +0.000 C 
ATOM      9  C   UNL     1       3.556   2.500  19.992  0.00  0.00    +0.000 C 
ATOM     10  C   UNL     1       2.002   5.928  19.653  0.00  0.00    +0.000 C 
ATOM     11  C   UNL     1       2.587   6.348  18.295  0.00  0.00    +0.000 C 
ATOM     12  N   UNL     1       3.989   5.891  18.066  0.00  0.00    +0.000 N 
ATOM     13  C   UNL     1       4.423   6.481  16.760  0.00  0.00    +0.000 C 
ATOM     14  C   UNL     1       4.982   6.343  19.093  0.00  0.00    +0.000 C 
ENDROOT
BRANCH   1  16
ATOM     15  C   UNL     1       7.786   6.644  18.363  0.00  0.00    +0.000 C 
ATOM     16  C   UNL     1       7.466   5.492  19.302  0.00  0.00    +0.000 C 
ENDBRANCH   1  16
TORSDOF 1
ENDMDL
MODEL 9
REMARK VINA RESULT:      -6.0      2.181      4.457
REMARK  Name = 
REMARK  4 active torsions:
REMARK  status: ('A' for Active; 'I' for Inactive)
REMARK    1  A    between atoms: C_1  and  C_2
REMARK    2  A    between atoms: C_2  and  C_3
REMARK    3  A    between atoms: C_5  and  C_6
REMARK    4  A    between atoms: N_14  and  C_15
REMARK                            x       y       z     vdW  Elec       q    Type
REMARK                         _______ _______ _______ _____ _____    ______ ____
ROOT
ATOM      1  C   UNL     1       2.321   6.513  19.123  0.00  0.00    +0.000 C 
ATOM      2  C   UNL     1       3.655   6.117  19.734  0.00  0.00    +0.000 C 
ATOM      3  C   UNL     1       3.866   4.728  19.143  0.00  0.00    +0.000 C 
ATOM      4  C   UNL     1       5.298   4.217  19.429  0.00  0.00    +0.000 C 
ATOM      5  C   UNL     1       2.868   3.741  19.781  0.00  0.00    +0.000 C 
ATOM      6  C   UNL     1       2.118   2.894  19.069  0.00  0.00    +0.000 C 
ATOM      7  C   UNL     1       1.261   2.036  19.935  0.00  0.00    +0.000 C 
ATOM      8  C   UNL     1       1.319   2.776  21.267  0.00  0.00    +0.000 C 
ATOM      9  C   UNL     1       2.630   3.557  21.251  0.00  0.00    +0.000 C 
ATOM     10  C   UNL     1       2.184   2.768  17.581  0.00  0.00    +0.000 C 
ATOM     11  C   UNL     1       3.317   3.622  16.990  0.00  0.00    +0.000 C 
ATOM     12  N   UNL     1       3.524   4.927  17.684  0.00  0.00    +0.000 N 
ATOM     13  C   UNL     1       4.575   5.661  16.910  0.00  0.00    +0.000 C 
ATOM     14  C   UNL     1       2.323   5.822  17.731  0.00  0.00    +0.000 C 
ENDROOT
BRANCH   1  16
ATOM     15  C   UNL     1       2.152   8.640  17.755  0.00  0.00    +0.000 C 
ATOM     16  C   UNL     1       2.113   8.032  19.148  0.00  0.00    +0.000 C 
ENDBRANCH   1  16
TORSDOF 1
ENDMDL
