MODEL 1
REMARK VINA RESULT:      -8.2      0.000      0.000
REMARK  Name = 
REMARK  10 active torsions:
REMARK  status: ('A' for Active; 'I' for Inactive)
REMARK    1  A    between atoms: C_1  and  C_2
REMARK    2  A    between atoms: C_2  and  C_3
REMARK    3  A    between atoms: C_2  and  C_4
REMARK    4  A    between atoms: C_2  and  C_5
REMARK    5  A    between atoms: C_5  and  O_7
REMARK    6  A    between atoms: O_7  and  C_8
REMARK    7  A    between atoms: C_8  and  C_9
REMARK    8  A    between atoms: C_16  and  C_17
REMARK    9  A    between atoms: C_17  and  O_19
REMARK   10  A    between atoms: O_19  and  C_20
REMARK                            x       y       z     vdW  Elec       q    Type
REMARK                         _______ _______ _______ _____ _____    ______ ____
ROOT
ATOM      1  C   UNL     1       0.978   9.474  19.257  0.00  0.00    +0.000 A 
ATOM      2  C   UNL     1       0.911   9.001  20.579  0.00  0.00    +0.000 A 
ATOM      3  C   UNL     1       1.500   7.790  20.922  0.00  0.00    +0.000 A 
ATOM      4  C   UNL     1       2.148   7.050  19.938  0.00  0.00    +0.000 A 
ATOM      5  O   UNL     1       2.744   5.845  20.335  0.00  0.00    +0.000 OA
ATOM      6  C   UNL     1       3.473   5.067  19.443  0.00  0.00    +0.000 A 
ATOM      7  O   UNL     1       4.114   4.106  19.851  0.00  0.00    +0.000 OA
ATOM      8  C   UNL     1       3.455   5.478  18.020  0.00  0.00    +0.000 A 
ATOM      9  C   UNL     1       2.883   6.635  17.639  0.00  0.00    +0.000 A 
ATOM     10  C   UNL     1       2.220   7.483  18.619  0.00  0.00    +0.000 A 
ATOM     11  C   UNL     1       1.636   8.704  18.280  0.00  0.00    +0.000 A 
ENDROOT
BRANCH   8  12
ATOM     12  C   UNL     1       4.148   4.687  16.974  0.00  0.00    +0.000 C 
ATOM     13  O   UNL     1       3.917   3.508  16.737  0.00  0.00    +0.000 OA
BRANCH  12  14
ATOM     14  O   UNL     1       5.082   5.459  16.316  0.00  0.00    +0.000 OA
BRANCH  14  15
ATOM     15  C   UNL     1       6.217   5.797  17.067  0.00  0.00    +0.000 A 
ATOM     16  C   UNL     1       6.783   4.822  17.877  0.00  0.00    +0.000 A 
ATOM     17  N   UNL     1       7.797   5.068  18.742  0.00  0.00    +0.000 NA
ATOM     18  C   UNL     1       8.237   6.350  18.805  0.00  0.00    +0.000 A 
ATOM     19  C   UNL     1       7.717   7.386  18.042  0.00  0.00    +0.000 A 
ATOM     20 CL   UNL     1       8.311   8.989  18.202  0.00  0.00    +0.000 Cl
ATOM     21  C   UNL     1       6.683   7.108  17.160  0.00  0.00    +0.000 A 
ENDBRANCH  14  15
ENDBRANCH  12  14
ENDBRANCH   8  12
BRANCH   1  22
ATOM     22  C   UNL     1       0.326  10.785  18.890  0.00  0.00    +0.000 C 
BRANCH  22  23
ATOM     23  O   UNL     1      -1.076  10.598  18.661  0.00  0.00    +0.000 OA
BRANCH  23  24
ATOM     24  C   UNL     1      -1.659  11.529  17.855  0.00  0.00    +0.000 C 
ATOM     25  O   UNL     1      -1.217  12.656  17.669  0.00  0.00    +0.000 OA
BRANCH  24  27
ATOM     26  C   UNL     1      -4.137  11.823  17.739  0.00  0.00    +0.000 C 
ATOM     27  C   UNL     1      -2.949  10.990  17.233  0.00  0.00    +0.000 C 
ATOM     28  C   UNL     1      -3.141   9.529  17.662  0.00  0.00    +0.000 C 
ATOM     29  C   UNL     1      -2.886  11.091  15.703  0.00  0.00    +0.000 C 
ENDBRANCH  24  27
ENDBRANCH  23  24
ENDBRANCH  22  23
ENDBRANCH   1  22
TORSDOF 7
ENDMDL
MODEL 2
REMARK VINA RESULT:      -8.0      3.490      4.818
REMARK  Name = 
REMARK  10 active torsions:
REMARK  status: ('A' for Active; 'I' for Inactive)
REMARK    1  A    between atoms: C_1  and  C_2
REMARK    2  A    between atoms: C_2  and  C_3
REMARK    3  A    between atoms: C_2  and  C_4
REMARK    4  A    between atoms: C_2  and  C_5
REMARK    5  A    between atoms: C_5  and  O_7
REMARK    6  A    between atoms: O_7  and  C_8
REMARK    7  A    between atoms: C_8  and  C_9
REMARK    8  A    between atoms: C_16  and  C_17
REMARK    9  A    between atoms: C_17  and  O_19
REMARK   10  A    between atoms: O_19  and  C_20
REMARK                            x       y       z     vdW  Elec       q    Type
REMARK                         _______ _______ _______ _____ _____    ______ ____
ROOT
ATOM      1  C   UNL     1       0.979   8.865  20.107  0.00  0.00    +0.000 A 
ATOM      2  C   UNL     1       1.075   9.581  18.902  0.00  0.00    +0.000 A 
ATOM      3  C   UNL     1       1.942   9.158  17.901  0.00  0.00    +0.000 A 
ATOM      4  C   UNL     1       2.718   8.022  18.114  0.00  0.00    +0.000 A 
ATOM      5  O   UNL     1       3.563   7.622  17.069  0.00  0.00    +0.000 OA
ATOM      6  C   UNL     1       4.326   6.465  17.156  0.00  0.00    +0.000 A 
ATOM      7  O   UNL     1       4.931   6.055  16.172  0.00  0.00    +0.000 OA
ATOM      8  C   UNL     1       4.338   5.762  18.460  0.00  0.00    +0.000 A 
ATOM      9  C   UNL     1       3.527   6.145  19.462  0.00  0.00    +0.000 A 
ATOM     10  C   UNL     1       2.657   7.300  19.300  0.00  0.00    +0.000 A 
ATOM     11  C   UNL     1       1.778   7.723  20.299  0.00  0.00    +0.000 A 
ENDROOT
BRANCH   8  12
ATOM     12  C   UNL     1       5.166   4.551  18.682  0.00  0.00    +0.000 C 
ATOM     13  O   UNL     1       6.203   4.536  19.332  0.00  0.00    +0.000 OA
BRANCH  12  14
ATOM     14  O   UNL     1       4.609   3.456  18.055  0.00  0.00    +0.000 OA
BRANCH  14  15
ATOM     15  C   UNL     1       3.355   3.061  18.542  0.00  0.00    +0.000 A 
ATOM     16  C   UNL     1       2.279   3.064  17.665  0.00  0.00    +0.000 A 
ATOM     17  N   UNL     1       1.002   2.829  18.052  0.00  0.00    +0.000 NA
ATOM     18  C   UNL     1       0.804   2.605  19.375  0.00  0.00    +0.000 A 
ATOM     19  C   UNL     1       1.821   2.599  20.320  0.00  0.00    +0.000 A 
ATOM     20 CL   UNL     1       1.485   2.335  21.983  0.00  0.00    +0.000 Cl
ATOM     21  C   UNL     1       3.121   2.837  19.898  0.00  0.00    +0.000 A 
ENDBRANCH  14  15
ENDBRANCH  12  14
ENDBRANCH   8  12
BRANCH   1  22
ATOM     22  C   UNL     1       0.043   9.338  21.193  0.00  0.00    +0.000 C 
BRANCH  22  23
ATOM     23  O   UNL     1       0.580  10.495  21.846  0.00  0.00    +0.000 OA
BRANCH  23  24
ATOM     24  C   UNL     1      -0.347  11.349  22.364  0.00  0.00    +0.000 C 
ATOM     25  O   UNL     1      -1.060  11.094  23.327  0.00  0.00    +0.000 OA
BRANCH  24  27
ATOM     26  C   UNL     1      -0.664  13.821  22.533  0.00  0.00    +0.000 C 
ATOM     27  C   UNL     1      -0.398  12.655  21.569  0.00  0.00    +0.000 C 
ATOM     28  C   UNL     1      -1.540  12.577  20.547  0.00  0.00    +0.000 C 
ATOM     29  C   UNL     1       0.939  12.896  20.854  0.00  0.00    +0.000 C 
ENDBRANCH  24  27
ENDBRANCH  23  24
ENDBRANCH  22  23
ENDBRANCH   1  22
TORSDOF 7
ENDMDL
MODEL 3
REMARK VINA RESULT:      -8.0      4.743      9.540
REMARK  Name = 
REMARK  10 active torsions:
REMARK  status: ('A' for Active; 'I' for Inactive)
REMARK    1  A    between atoms: C_1  and  C_2
REMARK    2  A    between atoms: C_2  and  C_3
REMARK    3  A    between atoms: C_2  and  C_4
REMARK    4  A    between atoms: C_2  and  C_5
REMARK    5  A    between atoms: C_5  and  O_7
REMARK    6  A    between atoms: O_7  and  C_8
REMARK    7  A    between atoms: C_8  and  C_9
REMARK    8  A    between atoms: C_16  and  C_17
REMARK    9  A    between atoms: C_17  and  O_19
REMARK   10  A    between atoms: O_19  and  C_20
REMARK                            x       y       z     vdW  Elec       q    Type
REMARK                         _______ _______ _______ _____ _____    ______ ____
ROOT
ATOM      1  C   UNL     1       2.718   6.370  19.081  0.00  0.00    +0.000 A 
ATOM      2  C   UNL     1       2.893   7.179  17.946  0.00  0.00    +0.000 A 
ATOM      3  C   UNL     1       2.394   8.476  17.924  0.00  0.00    +0.000 A 
ATOM      4  C   UNL     1       1.713   8.957  19.039  0.00  0.00    +0.000 A 
ATOM      5  O   UNL     1       1.245  10.278  18.979  0.00  0.00    +0.000 OA
ATOM      6  C   UNL     1       0.614  10.874  20.064  0.00  0.00    +0.000 A 
ATOM      7  O   UNL     1       0.360  12.073  20.042  0.00  0.00    +0.000 OA
ATOM      8  C   UNL     1       0.308  10.007  21.225  0.00  0.00    +0.000 A 
ATOM      9  C   UNL     1       0.757   8.740  21.283  0.00  0.00    +0.000 A 
ATOM     10  C   UNL     1       1.511   8.179  20.172  0.00  0.00    +0.000 A 
ATOM     11  C   UNL     1       2.022   6.879  20.193  0.00  0.00    +0.000 A 
ENDROOT
BRANCH   8  12
ATOM     12  C   UNL     1      -0.417  10.524  22.411  0.00  0.00    +0.000 C 
ATOM     13  O   UNL     1      -0.100  10.288  23.570  0.00  0.00    +0.000 OA
BRANCH  12  14
ATOM     14  O   UNL     1      -1.491  11.300  22.027  0.00  0.00    +0.000 OA
BRANCH  14  15
ATOM     15  C   UNL     1      -1.867  12.297  22.938  0.00  0.00    +0.000 A 
ATOM     16  C   UNL     1      -3.119  12.208  23.530  0.00  0.00    +0.000 A 
ATOM     17  N   UNL     1      -3.639  13.178  24.322  0.00  0.00    +0.000 NA
ATOM     18  C   UNL     1      -2.874  14.284  24.502  0.00  0.00    +0.000 A 
ATOM     19  C   UNL     1      -1.620  14.459  23.936  0.00  0.00    +0.000 A 
ATOM     20 CL   UNL     1      -0.726  15.902  24.190  0.00  0.00    +0.000 Cl
ATOM     21  C   UNL     1      -1.106  13.450  23.133  0.00  0.00    +0.000 A 
ENDBRANCH  14  15
ENDBRANCH  12  14
ENDBRANCH   8  12
BRANCH   1  22
ATOM     22  C   UNL     1       3.253   4.959  19.092  0.00  0.00    +0.000 C 
BRANCH  22  23
ATOM     23  O   UNL     1       4.067   4.725  17.935  0.00  0.00    +0.000 OA
BRANCH  23  24
ATOM     24  C   UNL     1       5.409   4.695  18.170  0.00  0.00    +0.000 C 
ATOM     25  O   UNL     1       5.925   4.211  19.170  0.00  0.00    +0.000 OA
BRANCH  24  27
ATOM     26  C   UNL     1       7.458   4.561  16.746  0.00  0.00    +0.000 C 
ATOM     27  C   UNL     1       6.182   5.368  17.034  0.00  0.00    +0.000 C 
ATOM     28  C   UNL     1       6.571   6.789  17.464  0.00  0.00    +0.000 C 
ATOM     29  C   UNL     1       5.325   5.414  15.761  0.00  0.00    +0.000 C 
ENDBRANCH  24  27
ENDBRANCH  23  24
ENDBRANCH  22  23
ENDBRANCH   1  22
TORSDOF 7
ENDMDL
MODEL 4
REMARK VINA RESULT:      -7.9      1.993      2.452
REMARK  Name = 
REMARK  10 active torsions:
REMARK  status: ('A' for Active; 'I' for Inactive)
REMARK    1  A    between atoms: C_1  and  C_2
REMARK    2  A    between atoms: C_2  and  C_3
REMARK    3  A    between atoms: C_2  and  C_4
REMARK    4  A    between atoms: C_2  and  C_5
REMARK    5  A    between atoms: C_5  and  O_7
REMARK    6  A    between atoms: O_7  and  C_8
REMARK    7  A    between atoms: C_8  and  C_9
REMARK    8  A    between atoms: C_16  and  C_17
REMARK    9  A    between atoms: C_17  and  O_19
REMARK   10  A    between atoms: O_19  and  C_20
REMARK                            x       y       z     vdW  Elec       q    Type
REMARK                         _______ _______ _______ _____ _____    ______ ____
ROOT
ATOM      1  C   UNL     1       1.125   9.371  19.222  0.00  0.00    +0.000 A 
ATOM      2  C   UNL     1       0.919   9.036  20.571  0.00  0.00    +0.000 A 
ATOM      3  C   UNL     1       1.316   7.796  21.056  0.00  0.00    +0.000 A 
ATOM      4  C   UNL     1       1.913   6.889  20.185  0.00  0.00    +0.000 A 
ATOM      5  O   UNL     1       2.316   5.659  20.723  0.00  0.00    +0.000 OA
ATOM      6  C   UNL     1       2.982   4.713  19.953  0.00  0.00    +0.000 A 
ATOM      7  O   UNL     1       3.462   3.719  20.484  0.00  0.00    +0.000 OA
ATOM      8  C   UNL     1       3.101   4.988  18.502  0.00  0.00    +0.000 A 
ATOM      9  C   UNL     1       2.716   6.169  17.986  0.00  0.00    +0.000 A 
ATOM     10  C   UNL     1       2.119   7.184  18.842  0.00  0.00    +0.000 A 
ATOM     11  C   UNL     1       1.726   8.434  18.362  0.00  0.00    +0.000 A 
ENDROOT
BRANCH   8  12
ATOM     12  C   UNL     1       3.739   4.019  17.578  0.00  0.00    +0.000 C 
ATOM     13  O   UNL     1       3.126   3.331  16.772  0.00  0.00    +0.000 OA
BRANCH  12  14
ATOM     14  O   UNL     1       5.107   4.003  17.755  0.00  0.00    +0.000 OA
BRANCH  14  15
ATOM     15  C   UNL     1       5.863   4.295  16.611  0.00  0.00    +0.000 A 
ATOM     16  C   UNL     1       6.758   5.355  16.668  0.00  0.00    +0.000 A 
ATOM     17  N   UNL     1       7.442   5.811  15.591  0.00  0.00    +0.000 NA
ATOM     18  C   UNL     1       7.196   5.186  14.412  0.00  0.00    +0.000 A 
ATOM     19  C   UNL     1       6.308   4.130  14.265  0.00  0.00    +0.000 A 
ATOM     20 CL   UNL     1       6.031   3.412  12.731  0.00  0.00    +0.000 Cl
ATOM     21  C   UNL     1       5.622   3.678  15.384  0.00  0.00    +0.000 A 
ENDBRANCH  14  15
ENDBRANCH  12  14
ENDBRANCH   8  12
BRANCH   1  22
ATOM     22  C   UNL     1       0.679  10.716  18.702  0.00  0.00    +0.000 C 
BRANCH  22  23
ATOM     23  O   UNL     1      -0.468  10.568  17.855  0.00  0.00    +0.000 OA
BRANCH  23  24
ATOM     24  C   UNL     1      -1.433  11.515  18.021  0.00  0.00    +0.000 C 
ATOM     25  O   UNL     1      -1.253  12.600  18.559  0.00  0.00    +0.000 OA
BRANCH  24  27
ATOM     26  C   UNL     1      -2.852  11.361  15.969  0.00  0.00    +0.000 C 
ATOM     27  C   UNL     1      -2.777  11.034  17.469  0.00  0.00    +0.000 C 
ATOM     28  C   UNL     1      -3.911  11.765  18.200  0.00  0.00    +0.000 C 
ATOM     29  C   UNL     1      -2.916   9.516  17.654  0.00  0.00    +0.000 C 
ENDBRANCH  24  27
ENDBRANCH  23  24
ENDBRANCH  22  23
ENDBRANCH   1  22
TORSDOF 7
ENDMDL
MODEL 5
REMARK VINA RESULT:      -7.8      1.954      2.527
REMARK  Name = 
REMARK  10 active torsions:
REMARK  status: ('A' for Active; 'I' for Inactive)
REMARK    1  A    between atoms: C_1  and  C_2
REMARK    2  A    between atoms: C_2  and  C_3
REMARK    3  A    between atoms: C_2  and  C_4
REMARK    4  A    between atoms: C_2  and  C_5
REMARK    5  A    between atoms: C_5  and  O_7
REMARK    6  A    between atoms: O_7  and  C_8
REMARK    7  A    between atoms: C_8  and  C_9
REMARK    8  A    between atoms: C_16  and  C_17
REMARK    9  A    between atoms: C_17  and  O_19
REMARK   10  A    between atoms: O_19  and  C_20
REMARK                            x       y       z     vdW  Elec       q    Type
REMARK                         _______ _______ _______ _____ _____    ______ ____
ROOT
ATOM      1  C   UNL     1       0.342  10.883  19.488  0.00  0.00    +0.000 A 
ATOM      2  C   UNL     1       0.061  10.451  20.795  0.00  0.00    +0.000 A 
ATOM      3  C   UNL     1       0.482   9.199  21.227  0.00  0.00    +0.000 A 
ATOM      4  C   UNL     1       1.176   8.377  20.344  0.00  0.00    +0.000 A 
ATOM      5  O   UNL     1       1.598   7.131  20.829  0.00  0.00    +0.000 OA
ATOM      6  C   UNL     1       2.356   6.267  20.049  0.00  0.00    +0.000 A 
ATOM      7  O   UNL     1       2.844   5.260  20.548  0.00  0.00    +0.000 OA
ATOM      8  C   UNL     1       2.559   6.643  18.630  0.00  0.00    +0.000 A 
ATOM      9  C   UNL     1       2.155   7.838  18.165  0.00  0.00    +0.000 A 
ATOM     10  C   UNL     1       1.457   8.769  19.040  0.00  0.00    +0.000 A 
ATOM     11  C   UNL     1       1.041  10.031  18.614  0.00  0.00    +0.000 A 
ENDROOT
BRANCH   8  12
ATOM     12  C   UNL     1       3.300   5.764  17.693  0.00  0.00    +0.000 C 
ATOM     13  O   UNL     1       3.156   4.550  17.628  0.00  0.00    +0.000 OA
BRANCH  12  14
ATOM     14  O   UNL     1       4.167   6.502  16.914  0.00  0.00    +0.000 OA
BRANCH  14  15
ATOM     15  C   UNL     1       5.230   5.781  16.353  0.00  0.00    +0.000 A 
ATOM     16  C   UNL     1       6.481   5.889  16.944  0.00  0.00    +0.000 A 
ATOM     17  N   UNL     1       7.604   5.345  16.415  0.00  0.00    +0.000 NA
ATOM     18  C   UNL     1       7.459   4.688  15.237  0.00  0.00    +0.000 A 
ATOM     19  C   UNL     1       6.249   4.547  14.573  0.00  0.00    +0.000 A 
ATOM     20 CL   UNL     1       6.154   3.724  13.069  0.00  0.00    +0.000 Cl
ATOM     21  C   UNL     1       5.112   5.108  15.137  0.00  0.00    +0.000 A 
ENDBRANCH  14  15
ENDBRANCH  12  14
ENDBRANCH   8  12
BRANCH   1  22
ATOM     22  C   UNL     1      -0.129  12.240  19.024  0.00  0.00    +0.000 C 
BRANCH  22  23
ATOM     23  O   UNL     1      -1.096  12.101  17.975  0.00  0.00    +0.000 OA
BRANCH  23  24
ATOM     24  C   UNL     1      -2.383  11.945  18.393  0.00  0.00    +0.000 C 
ATOM     25  O   UNL     1      -2.852  12.465  19.398  0.00  0.00    +0.000 OA
BRANCH  24  27
ATOM     26  C   UNL     1      -2.902   9.557  17.871  0.00  0.00    +0.000 C 
ATOM     27  C   UNL     1      -3.157  11.014  17.457  0.00  0.00    +0.000 C 
ATOM     28  C   UNL     1      -2.662  11.223  16.019  0.00  0.00    +0.000 C 
ATOM     29  C   UNL     1      -4.663  11.300  17.547  0.00  0.00    +0.000 C 
ENDBRANCH  24  27
ENDBRANCH  23  24
ENDBRANCH  22  23
ENDBRANCH   1  22
TORSDOF 7
ENDMDL
MODEL 6
REMARK VINA RESULT:      -7.7      3.362      4.718
REMARK  Name = 
REMARK  10 active torsions:
REMARK  status: ('A' for Active; 'I' for Inactive)
REMARK    1  A    between atoms: C_1  and  C_2
REMARK    2  A    between atoms: C_2  and  C_3
REMARK    3  A    between atoms: C_2  and  C_4
REMARK    4  A    between atoms: C_2  and  C_5
REMARK    5  A    between atoms: C_5  and  O_7
REMARK    6  A    between atoms: O_7  and  C_8
REMARK    7  A    between atoms: C_8  and  C_9
REMARK    8  A    between atoms: C_16  and  C_17
REMARK    9  A    between atoms: C_17  and  O_19
REMARK   10  A    between atoms: O_19  and  C_20
REMARK                            x       y       z     vdW  Elec       q    Type
REMARK                         _______ _______ _______ _____ _____    ______ ____
ROOT
ATOM      1  C   UNL     1       1.035   8.922  19.897  0.00  0.00    +0.000 A 
ATOM      2  C   UNL     1       1.177   9.591  18.670  0.00  0.00    +0.000 A 
ATOM      3  C   UNL     1       2.056   9.112  17.706  0.00  0.00    +0.000 A 
ATOM      4  C   UNL     1       2.798   7.966  17.978  0.00  0.00    +0.000 A 
ATOM      5  O   UNL     1       3.657   7.508  16.968  0.00  0.00    +0.000 OA
ATOM      6  C   UNL     1       4.390   6.337  17.114  0.00  0.00    +0.000 A 
ATOM      7  O   UNL     1       5.006   5.877  16.160  0.00  0.00    +0.000 OA
ATOM      8  C   UNL     1       4.355   5.682  18.442  0.00  0.00    +0.000 A 
ATOM      9  C   UNL     1       3.530   6.121  19.411  0.00  0.00    +0.000 A 
ATOM     10  C   UNL     1       2.692   7.289  19.187  0.00  0.00    +0.000 A 
ATOM     11  C   UNL     1       1.802   7.769  20.149  0.00  0.00    +0.000 A 
ENDROOT
BRANCH   8  12
ATOM     12  C   UNL     1       5.147   4.461  18.727  0.00  0.00    +0.000 C 
ATOM     13  O   UNL     1       6.164   4.444  19.409  0.00  0.00    +0.000 OA
BRANCH  12  14
ATOM     14  O   UNL     1       4.583   3.359  18.119  0.00  0.00    +0.000 OA
BRANCH  14  15
ATOM     15  C   UNL     1       3.321   2.987  18.603  0.00  0.00    +0.000 A 
ATOM     16  C   UNL     1       2.250   2.995  17.720  0.00  0.00    +0.000 A 
ATOM     17  N   UNL     1       0.968   2.782  18.103  0.00  0.00    +0.000 NA
ATOM     18  C   UNL     1       0.760   2.576  19.428  0.00  0.00    +0.000 A 
ATOM     19  C   UNL     1       1.772   2.567  20.378  0.00  0.00    +0.000 A 
ATOM     20 CL   UNL     1       1.423   2.327  22.042  0.00  0.00    +0.000 Cl
ATOM     21  C   UNL     1       3.078   2.782  19.961  0.00  0.00    +0.000 A 
ENDBRANCH  14  15
ENDBRANCH  12  14
ENDBRANCH   8  12
BRANCH   1  22
ATOM     22  C   UNL     1       0.087   9.456  20.943  0.00  0.00    +0.000 C 
BRANCH  22  23
ATOM     23  O   UNL     1       0.120  10.889  20.962  0.00  0.00    +0.000 OA
BRANCH  23  24
ATOM     24  C   UNL     1      -1.080  11.497  20.746  0.00  0.00    +0.000 C 
ATOM     25  O   UNL     1      -1.696  11.455  19.688  0.00  0.00    +0.000 OA
BRANCH  24  27
ATOM     26  C   UNL     1      -2.925  12.874  21.718  0.00  0.00    +0.000 C 
ATOM     27  C   UNL     1      -1.543  12.258  21.990  0.00  0.00    +0.000 C 
ATOM     28  C   UNL     1      -0.543  13.381  22.293  0.00  0.00    +0.000 C 
ATOM     29  C   UNL     1      -1.652  11.304  23.188  0.00  0.00    +0.000 C 
ENDBRANCH  24  27
ENDBRANCH  23  24
ENDBRANCH  22  23
ENDBRANCH   1  22
TORSDOF 7
ENDMDL
MODEL 7
REMARK VINA RESULT:      -7.7      5.158      9.922
REMARK  Name = 
REMARK  10 active torsions:
REMARK  status: ('A' for Active; 'I' for Inactive)
REMARK    1  A    between atoms: C_1  and  C_2
REMARK    2  A    between atoms: C_2  and  C_3
REMARK    3  A    between atoms: C_2  and  C_4
REMARK    4  A    between atoms: C_2  and  C_5
REMARK    5  A    between atoms: C_5  and  O_7
REMARK    6  A    between atoms: O_7  and  C_8
REMARK    7  A    between atoms: C_8  and  C_9
REMARK    8  A    between atoms: C_16  and  C_17
REMARK    9  A    between atoms: C_17  and  O_19
REMARK   10  A    between atoms: O_19  and  C_20
REMARK                            x       y       z     vdW  Elec       q    Type
REMARK                         _______ _______ _______ _____ _____    ______ ____
ROOT
ATOM      1  C   UNL     1       2.125   7.785  19.316  0.00  0.00    +0.000 A 
ATOM      2  C   UNL     1       1.963   8.399  18.063  0.00  0.00    +0.000 A 
ATOM      3  C   UNL     1       1.293   9.612  17.956  0.00  0.00    +0.000 A 
ATOM      4  C   UNL     1       0.779  10.204  19.106  0.00  0.00    +0.000 A 
ATOM      5  O   UNL     1       0.129  11.437  18.952  0.00  0.00    +0.000 OA
ATOM      6  C   UNL     1      -0.359  12.141  20.046  0.00  0.00    +0.000 A 
ATOM      7  O   UNL     1      -0.778  13.284  19.902  0.00  0.00    +0.000 OA
ATOM      8  C   UNL     1      -0.313  11.461  21.361  0.00  0.00    +0.000 A 
ATOM      9  C   UNL     1       0.312  10.278  21.508  0.00  0.00    +0.000 A 
ATOM     10  C   UNL     1       0.910   9.616  20.358  0.00  0.00    +0.000 A 
ATOM     11  C   UNL     1       1.591   8.402  20.462  0.00  0.00    +0.000 A 
ENDROOT
BRANCH   8  12
ATOM     12  C   UNL     1      -0.861  12.096  22.584  0.00  0.00    +0.000 C 
ATOM     13  O   UNL     1      -0.349  13.052  23.152  0.00  0.00    +0.000 OA
BRANCH  12  14
ATOM     14  O   UNL     1      -2.018  11.461  22.987  0.00  0.00    +0.000 OA
BRANCH  14  15
ATOM     15  C   UNL     1      -3.170  12.260  22.993  0.00  0.00    +0.000 A 
ATOM     16  C   UNL     1      -3.876  12.386  24.181  0.00  0.00    +0.000 A 
ATOM     17  N   UNL     1      -5.069  13.022  24.274  0.00  0.00    +0.000 NA
ATOM     18  C   UNL     1      -5.574  13.528  23.121  0.00  0.00    +0.000 A 
ATOM     19  C   UNL     1      -4.941  13.433  21.890  0.00  0.00    +0.000 A 
ATOM     20 CL   UNL     1      -5.661  14.075  20.470  0.00  0.00    +0.000 Cl
ATOM     21  C   UNL     1      -3.717  12.782  21.821  0.00  0.00    +0.000 A 
ENDBRANCH  14  15
ENDBRANCH  12  14
ENDBRANCH   8  12
BRANCH   1  22
ATOM     22  C   UNL     1       2.843   6.462  19.422  0.00  0.00    +0.000 C 
BRANCH  22  23
ATOM     23  O   UNL     1       1.937   5.434  19.843  0.00  0.00    +0.000 OA
BRANCH  23  24
ATOM     24  C   UNL     1       1.746   4.429  18.943  0.00  0.00    +0.000 C 
ATOM     25  O   UNL     1       1.572   4.598  17.743  0.00  0.00    +0.000 OA
BRANCH  24  27
ATOM     26  C   UNL     1       0.784   2.123  18.899  0.00  0.00    +0.000 C 
ATOM     27  C   UNL     1       1.753   3.063  19.634  0.00  0.00    +0.000 C 
ATOM     28  C   UNL     1       1.286   3.233  21.086  0.00  0.00    +0.000 C 
ATOM     29  C   UNL     1       3.161   2.454  19.596  0.00  0.00    +0.000 C 
ENDBRANCH  24  27
ENDBRANCH  23  24
ENDBRANCH  22  23
ENDBRANCH   1  22
TORSDOF 7
ENDMDL
MODEL 8
REMARK VINA RESULT:      -7.7      1.678      2.229
REMARK  Name = 
REMARK  10 active torsions:
REMARK  status: ('A' for Active; 'I' for Inactive)
REMARK    1  A    between atoms: C_1  and  C_2
REMARK    2  A    between atoms: C_2  and  C_3
REMARK    3  A    between atoms: C_2  and  C_4
REMARK    4  A    between atoms: C_2  and  C_5
REMARK    5  A    between atoms: C_5  and  O_7
REMARK    6  A    between atoms: O_7  and  C_8
REMARK    7  A    between atoms: C_8  and  C_9
REMARK    8  A    between atoms: C_16  and  C_17
REMARK    9  A    between atoms: C_17  and  O_19
REMARK   10  A    between atoms: O_19  and  C_20
REMARK                            x       y       z     vdW  Elec       q    Type
REMARK                         _______ _______ _______ _____ _____    ______ ____
ROOT
ATOM      1  C   UNL     1       1.188   9.727  19.147  0.00  0.00    +0.000 A 
ATOM      2  C   UNL     1       0.952   9.283  20.459  0.00  0.00    +0.000 A 
ATOM      3  C   UNL     1       1.361   8.015  20.856  0.00  0.00    +0.000 A 
ATOM      4  C   UNL     1       2.000   7.192  19.933  0.00  0.00    +0.000 A 
ATOM      5  O   UNL     1       2.413   5.930  20.383  0.00  0.00    +0.000 OA
ATOM      6  C   UNL     1       3.119   5.061  19.561  0.00  0.00    +0.000 A 
ATOM      7  O   UNL     1       3.604   4.036  20.025  0.00  0.00    +0.000 OA
ATOM      8  C   UNL     1       3.272   5.453  18.141  0.00  0.00    +0.000 A 
ATOM      9  C   UNL     1       2.877   6.664  17.709  0.00  0.00    +0.000 A 
ATOM     10  C   UNL     1       2.237   7.596  18.625  0.00  0.00    +0.000 A 
ATOM     11  C   UNL     1       1.832   8.873  18.233  0.00  0.00    +0.000 A 
ENDROOT
BRANCH   8  12
ATOM     12  C   UNL     1       3.955   4.572  17.161  0.00  0.00    +0.000 C 
ATOM     13  O   UNL     1       3.700   3.384  17.010  0.00  0.00    +0.000 OA
BRANCH  12  14
ATOM     14  O   UNL     1       4.909   5.274  16.455  0.00  0.00    +0.000 OA
BRANCH  14  15
ATOM     15  C   UNL     1       6.062   5.612  17.177  0.00  0.00    +0.000 A 
ATOM     16  C   UNL     1       6.594   4.667  18.044  0.00  0.00    +0.000 A 
ATOM     17  N   UNL     1       7.624   4.926  18.886  0.00  0.00    +0.000 NA
ATOM     18  C   UNL     1       8.116   6.190  18.866  0.00  0.00    +0.000 A 
ATOM     19  C   UNL     1       7.633   7.197  18.042  0.00  0.00    +0.000 A 
ATOM     20 CL   UNL     1       8.293   8.781  18.097  0.00  0.00    +0.000 Cl
ATOM     21  C   UNL     1       6.582   6.906  17.184  0.00  0.00    +0.000 A 
ENDBRANCH  14  15
ENDBRANCH  12  14
ENDBRANCH   8  12
BRANCH   1  22
ATOM     22  C   UNL     1       0.730  11.101  18.722  0.00  0.00    +0.000 C 
BRANCH  22  23
ATOM     23  O   UNL     1      -0.479  11.457  19.404  0.00  0.00    +0.000 OA
BRANCH  23  24
ATOM     24  C   UNL     1      -0.694  12.796  19.537  0.00  0.00    +0.000 C 
ATOM     25  O   UNL     1      -0.640  13.600  18.615  0.00  0.00    +0.000 OA
BRANCH  24  27
ATOM     26  C   UNL     1      -1.400  11.900  21.760  0.00  0.00    +0.000 C 
ATOM     27  C   UNL     1      -0.986  13.166  20.994  0.00  0.00    +0.000 C 
ATOM     28  C   UNL     1      -2.137  14.179  21.034  0.00  0.00    +0.000 C 
ATOM     29  C   UNL     1       0.267  13.758  21.654  0.00  0.00    +0.000 C 
ENDBRANCH  24  27
ENDBRANCH  23  24
ENDBRANCH  22  23
ENDBRANCH   1  22
TORSDOF 7
ENDMDL
MODEL 9
REMARK VINA RESULT:      -7.7      4.952      9.471
REMARK  Name = 
REMARK  10 active torsions:
REMARK  status: ('A' for Active; 'I' for Inactive)
REMARK    1  A    between atoms: C_1  and  C_2
REMARK    2  A    between atoms: C_2  and  C_3
REMARK    3  A    between atoms: C_2  and  C_4
REMARK    4  A    between atoms: C_2  and  C_5
REMARK    5  A    between atoms: C_5  and  O_7
REMARK    6  A    between atoms: O_7  and  C_8
REMARK    7  A    between atoms: C_8  and  C_9
REMARK    8  A    between atoms: C_16  and  C_17
REMARK    9  A    between atoms: C_17  and  O_19
REMARK   10  A    between atoms: O_19  and  C_20
REMARK                            x       y       z     vdW  Elec       q    Type
REMARK                         _______ _______ _______ _____ _____    ______ ____
ROOT
ATOM      1  C   UNL     1       2.916   7.032  18.895  0.00  0.00    +0.000 A 
ATOM      2  C   UNL     1       2.813   7.799  17.722  0.00  0.00    +0.000 A 
ATOM      3  C   UNL     1       2.066   8.971  17.712  0.00  0.00    +0.000 A 
ATOM      4  C   UNL     1       1.416   9.368  18.878  0.00  0.00    +0.000 A 
ATOM      5  O   UNL     1       0.690  10.566  18.826  0.00  0.00    +0.000 OA
ATOM      6  C   UNL     1       0.062  11.084  19.953  0.00  0.00    +0.000 A 
ATOM      7  O   UNL     1      -0.427  12.207  19.920  0.00  0.00    +0.000 OA
ATOM      8  C   UNL     1       0.051  10.235  21.167  0.00  0.00    +0.000 A 
ATOM      9  C   UNL     1       0.747   9.085  21.216  0.00  0.00    +0.000 A 
ATOM     10  C   UNL     1       1.486   8.625  20.050  0.00  0.00    +0.000 A 
ATOM     11  C   UNL     1       2.245   7.453  20.058  0.00  0.00    +0.000 A 
ENDROOT
BRANCH   8  12
ATOM     12  C   UNL     1      -0.643  10.662  22.406  0.00  0.00    +0.000 C 
ATOM     13  O   UNL     1      -0.271  10.376  23.537  0.00  0.00    +0.000 OA
BRANCH  12  14
ATOM     14  O   UNL     1      -1.758  11.418  22.107  0.00  0.00    +0.000 OA
BRANCH  14  15
ATOM     15  C   UNL     1      -2.091  12.396  23.054  0.00  0.00    +0.000 A 
ATOM     16  C   UNL     1      -3.336  12.324  23.664  0.00  0.00    +0.000 A 
ATOM     17  N   UNL     1      -3.816  13.282  24.493  0.00  0.00    +0.000 NA
ATOM     18  C   UNL     1      -3.018  14.360  24.694  0.00  0.00    +0.000 A 
ATOM     19  C   UNL     1      -1.768  14.518  24.113  0.00  0.00    +0.000 A 
ATOM     20 CL   UNL     1      -0.830  15.928  24.396  0.00  0.00    +0.000 Cl
ATOM     21  C   UNL     1      -1.295  13.521  23.272  0.00  0.00    +0.000 A 
ENDBRANCH  14  15
ENDBRANCH  12  14
ENDBRANCH   8  12
BRANCH   1  22
ATOM     22  C   UNL     1       3.720   5.755  18.893  0.00  0.00    +0.000 C 
BRANCH  22  23
ATOM     23  O   UNL     1       2.857   4.622  18.730  0.00  0.00    +0.000 OA
BRANCH  23  24
ATOM     24  C   UNL     1       3.127   3.568  19.550  0.00  0.00    +0.000 C 
ATOM     25  O   UNL     1       4.242   3.090  19.718  0.00  0.00    +0.000 OA
BRANCH  24  27
ATOM     26  C   UNL     1       1.253   1.928  19.342  0.00  0.00    +0.000 C 
ATOM     27  C   UNL     1       1.850   3.045  20.212  0.00  0.00    +0.000 C 
ATOM     28  C   UNL     1       0.837   4.192  20.325  0.00  0.00    +0.000 C 
ATOM     29  C   UNL     1       2.167   2.476  21.603  0.00  0.00    +0.000 C 
ENDBRANCH  24  27
ENDBRANCH  23  24
ENDBRANCH  22  23
ENDBRANCH   1  22
TORSDOF 7
ENDMDL
