MODEL 1
REMARK VINA RESULT:      -7.7      0.000      0.000
REMARK  Name = 
REMARK  7 active torsions:
REMARK  status: ('A' for Active; 'I' for Inactive)
REMARK    1  A    between atoms: C_1  and  C_2
REMARK    2  A    between atoms: C_5  and  C_6
REMARK    3  A    between atoms: C_9  and  C_10
REMARK    4  A    between atoms: C_10  and  C_11
REMARK    5  A    between atoms: C_11  and  C_12
REMARK    6  A    between atoms: N_14  and  C_15
REMARK    7  A    between atoms: C_15  and  C_16
REMARK                            x       y       z     vdW  Elec       q    Type
REMARK                         _______ _______ _______ _____ _____    ______ ____
ROOT
ATOM      1  C   UNL     1       3.327   3.739  17.535  0.00  0.00    +0.000 C 
ENDROOT
BRANCH   1   2
ATOM      2  C   UNL     1       2.424   4.421  18.536  0.00  0.00    +0.000 C 
ATOM      3  O   UNL     1       1.299   4.008  18.768  0.00  0.00    +0.000 OA
ATOM      4  N   UNL     1       2.996   5.496  19.179  0.00  0.00    +0.000 N 
ATOM      5  H   UNL     1       3.844   5.911  18.815  0.00  0.00    +0.000 HD
BRANCH   4   6
ATOM      6  C   UNL     1       2.247   6.257  20.155  0.00  0.00    +0.000 C 
BRANCH   6   7
ATOM      7  C   UNL     1       1.910   7.628  19.634  0.00  0.00    +0.000 A 
ATOM      8  C   UNL     1       1.206   8.555  20.415  0.00  0.00    +0.000 A 
ATOM      9  C   UNL     1       0.907   9.822  19.910  0.00  0.00    +0.000 A 
ATOM     10  C   UNL     1       1.298  10.171  18.617  0.00  0.00    +0.000 A 
ATOM     11  C   UNL     1       1.990   9.255  17.826  0.00  0.00    +0.000 A 
ATOM     12  C   UNL     1       2.290   7.989  18.332  0.00  0.00    +0.000 A 
ENDBRANCH   6   7
ENDBRANCH   4   6
ENDBRANCH   1   2
BRANCH   1  13
ATOM     13  C   UNL     1       4.215   4.756  16.815  0.00  0.00    +0.000 C 
BRANCH  13  22
ATOM     14  C   UNL     1       6.185   4.268  14.307  0.00  0.00    +0.000 C 
ATOM     15  C   UNL     1       6.540   4.811  15.669  0.00  0.00    +0.000 C 
ATOM     16  O   UNL     1       6.464   6.248  15.691  0.00  0.00    +0.000 OA
ATOM     17  O   UNL     1       6.499   6.555  17.140  0.00  0.00    +0.000 OA
ATOM     18  C   UNL     1       6.593   5.252  17.737  0.00  0.00    +0.000 C 
ATOM     19  C   UNL     1       6.328   5.298  19.223  0.00  0.00    +0.000 C 
ATOM     20  O   UNL     1       7.905   4.706  17.489  0.00  0.00    +0.000 OA
ATOM     21  O   UNL     1       7.864   4.395  16.044  0.00  0.00    +0.000 OA
ATOM     22  C   UNL     1       5.704   4.385  16.861  0.00  0.00    +0.000 C 
ENDBRANCH  13  22
ENDBRANCH   1  13
TORSDOF 5
ENDMDL
MODEL 2
REMARK VINA RESULT:      -7.6      0.748      1.291
REMARK  Name = 
REMARK  7 active torsions:
REMARK  status: ('A' for Active; 'I' for Inactive)
REMARK    1  A    between atoms: C_1  and  C_2
REMARK    2  A    between atoms: C_5  and  C_6
REMARK    3  A    between atoms: C_9  and  C_10
REMARK    4  A    between atoms: C_10  and  C_11
REMARK    5  A    between atoms: C_11  and  C_12
REMARK    6  A    between atoms: N_14  and  C_15
REMARK    7  A    between atoms: C_15  and  C_16
REMARK                            x       y       z     vdW  Elec       q    Type
REMARK                         _______ _______ _______ _____ _____    ______ ____
ROOT
ATOM      1  C   UNL     1       3.752   3.044  17.699  0.00  0.00    +0.000 C 
ENDROOT
BRANCH   1   2
ATOM      2  C   UNL     1       3.003   3.673  18.851  0.00  0.00    +0.000 C 
ATOM      3  O   UNL     1       2.287   3.012  19.586  0.00  0.00    +0.000 OA
ATOM      4  N   UNL     1       3.239   5.020  19.015  0.00  0.00    +0.000 N 
ATOM      5  H   UNL     1       3.678   5.550  18.274  0.00  0.00    +0.000 HD
BRANCH   4   6
ATOM      6  C   UNL     1       2.582   5.762  20.069  0.00  0.00    +0.000 C 
BRANCH   6   7
ATOM      7  C   UNL     1       2.159   7.125  19.591  0.00  0.00    +0.000 A 
ATOM      8  C   UNL     1       2.453   7.569  18.294  0.00  0.00    +0.000 A 
ATOM      9  C   UNL     1       2.049   8.837  17.873  0.00  0.00    +0.000 A 
ATOM     10  C   UNL     1       1.355   9.677  18.744  0.00  0.00    +0.000 A 
ATOM     11  C   UNL     1       1.064   9.252  20.040  0.00  0.00    +0.000 A 
ATOM     12  C   UNL     1       1.468   7.983  20.460  0.00  0.00    +0.000 A 
ENDBRANCH   6   7
ENDBRANCH   4   6
ENDBRANCH   1   2
BRANCH   1  13
ATOM     13  C   UNL     1       4.178   4.100  16.678  0.00  0.00    +0.000 C 
BRANCH  13  22
ATOM     14  C   UNL     1       5.758   4.067  13.866  0.00  0.00    +0.000 C 
ATOM     15  C   UNL     1       6.175   4.736  15.152  0.00  0.00    +0.000 C 
ATOM     16  O   UNL     1       5.718   6.099  15.201  0.00  0.00    +0.000 OA
ATOM     17  O   UNL     1       5.910   6.458  16.626  0.00  0.00    +0.000 OA
ATOM     18  C   UNL     1       6.451   5.251  17.185  0.00  0.00    +0.000 C 
ATOM     19  C   UNL     1       6.435   5.279  18.695  0.00  0.00    +0.000 C 
ATOM     20  O   UNL     1       7.802   5.069  16.712  0.00  0.00    +0.000 OA
ATOM     21  O   UNL     1       7.606   4.705  15.292  0.00  0.00    +0.000 OA
ATOM     22  C   UNL     1       5.697   4.145  16.465  0.00  0.00    +0.000 C 
ENDBRANCH  13  22
ENDBRANCH   1  13
TORSDOF 5
ENDMDL
MODEL 3
REMARK VINA RESULT:      -7.5      2.249      4.060
REMARK  Name = 
REMARK  7 active torsions:
REMARK  status: ('A' for Active; 'I' for Inactive)
REMARK    1  A    between atoms: C_1  and  C_2
REMARK    2  A    between atoms: C_5  and  C_6
REMARK    3  A    between atoms: C_9  and  C_10
REMARK    4  A    between atoms: C_10  and  C_11
REMARK    5  A    between atoms: C_11  and  C_12
REMARK    6  A    between atoms: N_14  and  C_15
REMARK    7  A    between atoms: C_15  and  C_16
REMARK                            x       y       z     vdW  Elec       q    Type
REMARK                         _______ _______ _______ _____ _____    ______ ____
ROOT
ATOM      1  C   UNL     1       4.892   7.029  16.638  0.00  0.00    +0.000 C 
ENDROOT
BRANCH   1   2
ATOM      2  C   UNL     1       3.722   7.174  17.583  0.00  0.00    +0.000 C 
ATOM      3  O   UNL     1       2.912   8.079  17.463  0.00  0.00    +0.000 OA
ATOM      4  N   UNL     1       3.636   6.186  18.538  0.00  0.00    +0.000 N 
ATOM      5  H   UNL     1       4.428   5.582  18.714  0.00  0.00    +0.000 HD
BRANCH   4   6
ATOM      6  C   UNL     1       2.575   6.200  19.522  0.00  0.00    +0.000 C 
BRANCH   6   7
ATOM      7  C   UNL     1       2.010   4.821  19.733  0.00  0.00    +0.000 A 
ATOM      8  C   UNL     1       1.898   4.265  21.015  0.00  0.00    +0.000 A 
ATOM      9  C   UNL     1       1.368   2.984  21.185  0.00  0.00    +0.000 A 
ATOM     10  C   UNL     1       0.956   2.243  20.078  0.00  0.00    +0.000 A 
ATOM     11  C   UNL     1       1.071   2.781  18.797  0.00  0.00    +0.000 A 
ATOM     12  C   UNL     1       1.599   4.062  18.627  0.00  0.00    +0.000 A 
ENDBRANCH   6   7
ENDBRANCH   4   6
ENDBRANCH   1   2
BRANCH   1  13
ATOM     13  C   UNL     1       6.220   7.211  17.375  0.00  0.00    +0.000 C 
BRANCH  13  22
ATOM     14  C   UNL     1       8.107   5.727  19.530  0.00  0.00    +0.000 C 
ATOM     15  C   UNL     1       7.494   5.143  18.281  0.00  0.00    +0.000 C 
ATOM     16  O   UNL     1       6.219   4.539  18.561  0.00  0.00    +0.000 OA
ATOM     17  O   UNL     1       5.644   4.348  17.209  0.00  0.00    +0.000 OA
ATOM     18  C   UNL     1       6.673   4.867  16.351  0.00  0.00    +0.000 C 
ATOM     19  C   UNL     1       6.176   5.063  14.939  0.00  0.00    +0.000 C 
ATOM     20  O   UNL     1       7.798   3.965  16.356  0.00  0.00    +0.000 OA
ATOM     21  O   UNL     1       8.373   4.163  17.703  0.00  0.00    +0.000 OA
ATOM     22  C   UNL     1       7.210   6.068  17.112  0.00  0.00    +0.000 C 
ENDBRANCH  13  22
ENDBRANCH   1  13
TORSDOF 5
ENDMDL
MODEL 4
REMARK VINA RESULT:      -7.5      2.237      3.739
REMARK  Name = 
REMARK  7 active torsions:
REMARK  status: ('A' for Active; 'I' for Inactive)
REMARK    1  A    between atoms: C_1  and  C_2
REMARK    2  A    between atoms: C_5  and  C_6
REMARK    3  A    between atoms: C_9  and  C_10
REMARK    4  A    between atoms: C_10  and  C_11
REMARK    5  A    between atoms: C_11  and  C_12
REMARK    6  A    between atoms: N_14  and  C_15
REMARK    7  A    between atoms: C_15  and  C_16
REMARK                            x       y       z     vdW  Elec       q    Type
REMARK                         _______ _______ _______ _____ _____    ______ ____
ROOT
ATOM      1  C   UNL     1       4.398   7.151  17.472  0.00  0.00    +0.000 C 
ENDROOT
BRANCH   1   2
ATOM      2  C   UNL     1       3.131   6.504  17.980  0.00  0.00    +0.000 C 
ATOM      3  O   UNL     1       2.357   7.101  18.711  0.00  0.00    +0.000 OA
ATOM      4  N   UNL     1       2.917   5.227  17.511  0.00  0.00    +0.000 N 
ATOM      5  H   UNL     1       3.672   4.715  17.074  0.00  0.00    +0.000 HD
BRANCH   4   6
ATOM      6  C   UNL     1       1.751   4.475  17.923  0.00  0.00    +0.000 C 
BRANCH   6   7
ATOM      7  C   UNL     1       1.996   3.762  19.225  0.00  0.00    +0.000 A 
ATOM      8  C   UNL     1       0.996   3.660  20.202  0.00  0.00    +0.000 A 
ATOM      9  C   UNL     1       1.247   2.991  21.402  0.00  0.00    +0.000 A 
ATOM     10  C   UNL     1       2.499   2.426  21.641  0.00  0.00    +0.000 A 
ATOM     11  C   UNL     1       3.505   2.527  20.681  0.00  0.00    +0.000 A 
ATOM     12  C   UNL     1       3.254   3.195  19.481  0.00  0.00    +0.000 A 
ENDBRANCH   6   7
ENDBRANCH   4   6
ENDBRANCH   1   2
BRANCH   1  13
ATOM     13  C   UNL     1       4.952   6.398  16.261  0.00  0.00    +0.000 C 
BRANCH  13  22
ATOM     14  C   UNL     1       5.953   3.931  14.439  0.00  0.00    +0.000 C 
ATOM     15  C   UNL     1       6.726   4.663  15.508  0.00  0.00    +0.000 C 
ATOM     16  O   UNL     1       7.484   5.750  14.950  0.00  0.00    +0.000 OA
ATOM     17  O   UNL     1       7.873   6.528  16.149  0.00  0.00    +0.000 OA
ATOM     18  C   UNL     1       7.284   5.772  17.220  0.00  0.00    +0.000 C 
ATOM     19  C   UNL     1       7.286   6.547  18.516  0.00  0.00    +0.000 C 
ATOM     20  O   UNL     1       8.008   4.536  17.386  0.00  0.00    +0.000 OA
ATOM     21  O   UNL     1       7.613   3.761  16.191  0.00  0.00    +0.000 OA
ATOM     22  C   UNL     1       5.956   5.303  16.648  0.00  0.00    +0.000 C 
ENDBRANCH  13  22
ENDBRANCH   1  13
TORSDOF 5
ENDMDL
MODEL 5
REMARK VINA RESULT:      -7.5      2.276      4.173
REMARK  Name = 
REMARK  7 active torsions:
REMARK  status: ('A' for Active; 'I' for Inactive)
REMARK    1  A    between atoms: C_1  and  C_2
REMARK    2  A    between atoms: C_5  and  C_6
REMARK    3  A    between atoms: C_9  and  C_10
REMARK    4  A    between atoms: C_10  and  C_11
REMARK    5  A    between atoms: C_11  and  C_12
REMARK    6  A    between atoms: N_14  and  C_15
REMARK    7  A    between atoms: C_15  and  C_16
REMARK                            x       y       z     vdW  Elec       q    Type
REMARK                         _______ _______ _______ _____ _____    ______ ____
ROOT
ATOM      1  C   UNL     1       4.229   7.160  17.465  0.00  0.00    +0.000 C 
ENDROOT
BRANCH   1   2
ATOM      2  C   UNL     1       2.999   6.479  18.017  0.00  0.00    +0.000 C 
ATOM      3  O   UNL     1       2.274   7.030  18.830  0.00  0.00    +0.000 OA
ATOM      4  N   UNL     1       2.756   5.229  17.493  0.00  0.00    +0.000 N 
ATOM      5  H   UNL     1       3.481   4.746  16.980  0.00  0.00    +0.000 HD
BRANCH   4   6
ATOM      6  C   UNL     1       1.620   4.450  17.937  0.00  0.00    +0.000 C 
BRANCH   6   7
ATOM      7  C   UNL     1       1.909   3.764  19.245  0.00  0.00    +0.000 A 
ATOM      8  C   UNL     1       0.993   3.795  20.305  0.00  0.00    +0.000 A 
ATOM      9  C   UNL     1       1.283   3.150  21.509  0.00  0.00    +0.000 A 
ATOM     10  C   UNL     1       2.493   2.475  21.669  0.00  0.00    +0.000 A 
ATOM     11  C   UNL     1       3.417   2.444  20.625  0.00  0.00    +0.000 A 
ATOM     12  C   UNL     1       3.126   3.089  19.422  0.00  0.00    +0.000 A 
ENDBRANCH   6   7
ENDBRANCH   4   6
ENDBRANCH   1   2
BRANCH   1  13
ATOM     13  C   UNL     1       4.852   6.336  16.336  0.00  0.00    +0.000 C 
BRANCH  13  22
ATOM     14  C   UNL     1       5.889   5.345  19.226  0.00  0.00    +0.000 C 
ATOM     15  C   UNL     1       6.320   4.847  17.869  0.00  0.00    +0.000 C 
ATOM     16  O   UNL     1       5.528   3.720  17.453  0.00  0.00    +0.000 OA
ATOM     17  O   UNL     1       5.853   3.606  16.012  0.00  0.00    +0.000 OA
ATOM     18  C   UNL     1       6.785   4.680  15.811  0.00  0.00    +0.000 C 
ATOM     19  C   UNL     1       7.015   4.954  14.344  0.00  0.00    +0.000 C 
ATOM     20  O   UNL     1       8.035   4.354  16.453  0.00  0.00    +0.000 OA
ATOM     21  O   UNL     1       7.709   4.475  17.889  0.00  0.00    +0.000 OA
ATOM     22  C   UNL     1       6.246   5.798  16.689  0.00  0.00    +0.000 C 
ENDBRANCH  13  22
ENDBRANCH   1  13
TORSDOF 5
ENDMDL
MODEL 6
REMARK VINA RESULT:      -7.4      1.282      1.322
REMARK  Name = 
REMARK  7 active torsions:
REMARK  status: ('A' for Active; 'I' for Inactive)
REMARK    1  A    between atoms: C_1  and  C_2
REMARK    2  A    between atoms: C_5  and  C_6
REMARK    3  A    between atoms: C_9  and  C_10
REMARK    4  A    between atoms: C_10  and  C_11
REMARK    5  A    between atoms: C_11  and  C_12
REMARK    6  A    between atoms: N_14  and  C_15
REMARK    7  A    between atoms: C_15  and  C_16
REMARK                            x       y       z     vdW  Elec       q    Type
REMARK                         _______ _______ _______ _____ _____    ______ ____
ROOT
ATOM      1  C   UNL     1       5.259   3.895  18.625  0.00  0.00    +0.000 C 
ENDROOT
BRANCH   1   2
ATOM      2  C   UNL     1       4.058   4.252  19.470  0.00  0.00    +0.000 C 
ATOM      3  O   UNL     1       3.562   3.451  20.246  0.00  0.00    +0.000 OA
ATOM      4  N   UNL     1       3.620   5.548  19.319  0.00  0.00    +0.000 N 
ATOM      5  H   UNL     1       3.937   6.101  18.533  0.00  0.00    +0.000 HD
BRANCH   4   6
ATOM      6  C   UNL     1       2.471   6.030  20.055  0.00  0.00    +0.000 C 
BRANCH   6   7
ATOM      7  C   UNL     1       2.054   7.395  19.579  0.00  0.00    +0.000 A 
ATOM      8  C   UNL     1       1.396   8.296  20.427  0.00  0.00    +0.000 A 
ATOM      9  C   UNL     1       1.022   9.559  19.963  0.00  0.00    +0.000 A 
ATOM     10  C   UNL     1       1.292   9.930  18.646  0.00  0.00    +0.000 A 
ATOM     11  C   UNL     1       1.937   9.040  17.789  0.00  0.00    +0.000 A 
ATOM     12  C   UNL     1       2.313   7.778  18.254  0.00  0.00    +0.000 A 
ENDBRANCH   6   7
ENDBRANCH   4   6
ENDBRANCH   1   2
BRANCH   1  13
ATOM     13  C   UNL     1       5.038   4.292  17.164  0.00  0.00    +0.000 C 
BRANCH  13  22
ATOM     14  C   UNL     1       5.741   4.038  14.025  0.00  0.00    +0.000 C 
ATOM     15  C   UNL     1       6.212   5.093  14.995  0.00  0.00    +0.000 C 
ATOM     16  O   UNL     1       5.331   6.230  14.995  0.00  0.00    +0.000 OA
ATOM     17  O   UNL     1       5.746   6.967  16.212  0.00  0.00    +0.000 OA
ATOM     18  C   UNL     1       6.805   6.147  16.731  0.00  0.00    +0.000 C 
ATOM     19  C   UNL     1       7.172   6.538  18.143  0.00  0.00    +0.000 C 
ATOM     20  O   UNL     1       7.960   6.260  15.874  0.00  0.00    +0.000 OA
ATOM     21  O   UNL     1       7.545   5.519  14.664  0.00  0.00    +0.000 OA
ATOM     22  C   UNL     1       6.332   4.727  16.463  0.00  0.00    +0.000 C 
ENDBRANCH  13  22
ENDBRANCH   1  13
TORSDOF 5
ENDMDL
MODEL 7
REMARK VINA RESULT:      -7.4      1.946      3.826
REMARK  Name = 
REMARK  7 active torsions:
REMARK  status: ('A' for Active; 'I' for Inactive)
REMARK    1  A    between atoms: C_1  and  C_2
REMARK    2  A    between atoms: C_5  and  C_6
REMARK    3  A    between atoms: C_9  and  C_10
REMARK    4  A    between atoms: C_10  and  C_11
REMARK    5  A    between atoms: C_11  and  C_12
REMARK    6  A    between atoms: N_14  and  C_15
REMARK    7  A    between atoms: C_15  and  C_16
REMARK                            x       y       z     vdW  Elec       q    Type
REMARK                         _______ _______ _______ _____ _____    ______ ____
ROOT
ATOM      1  C   UNL     1       3.881   7.946  17.674  0.00  0.00    +0.000 C 
ENDROOT
BRANCH   1   2
ATOM      2  C   UNL     1       2.644   7.420  18.364  0.00  0.00    +0.000 C 
ATOM      3  O   UNL     1       1.549   7.451  17.825  0.00  0.00    +0.000 OA
ATOM      4  N   UNL     1       2.875   6.872  19.606  0.00  0.00    +0.000 N 
ATOM      5  H   UNL     1       3.751   7.047  20.081  0.00  0.00    +0.000 HD
BRANCH   4   6
ATOM      6  C   UNL     1       1.783   6.340  20.393  0.00  0.00    +0.000 C 
BRANCH   6   7
ATOM      7  C   UNL     1       1.748   4.837  20.325  0.00  0.00    +0.000 A 
ATOM      8  C   UNL     1       2.166   4.046  21.404  0.00  0.00    +0.000 A 
ATOM      9  C   UNL     1       2.122   2.653  21.318  0.00  0.00    +0.000 A 
ATOM     10  C   UNL     1       1.669   2.037  20.152  0.00  0.00    +0.000 A 
ATOM     11  C   UNL     1       1.259   2.811  19.068  0.00  0.00    +0.000 A 
ATOM     12  C   UNL     1       1.302   4.204  19.155  0.00  0.00    +0.000 A 
ENDBRANCH   6   7
ENDBRANCH   4   6
ENDBRANCH   1   2
BRANCH   1  13
ATOM     13  C   UNL     1       4.615   6.827  16.933  0.00  0.00    +0.000 C 
BRANCH  13  22
ATOM     14  C   UNL     1       4.736   3.696  17.702  0.00  0.00    +0.000 C 
ATOM     15  C   UNL     1       5.891   4.650  17.525  0.00  0.00    +0.000 C 
ATOM     16  O   UNL     1       6.383   4.626  16.173  0.00  0.00    +0.000 OA
ATOM     17  O   UNL     1       7.242   5.832  16.116  0.00  0.00    +0.000 OA
ATOM     18  C   UNL     1       7.121   6.369  17.443  0.00  0.00    +0.000 C 
ATOM     19  C   UNL     1       7.665   7.775  17.527  0.00  0.00    +0.000 C 
ATOM     20  O   UNL     1       7.821   5.515  18.370  0.00  0.00    +0.000 OA
ATOM     21  O   UNL     1       6.958   4.316  18.429  0.00  0.00    +0.000 OA
ATOM     22  C   UNL     1       5.665   6.124  17.804  0.00  0.00    +0.000 C 
ENDBRANCH  13  22
ENDBRANCH   1  13
TORSDOF 5
ENDMDL
MODEL 8
REMARK VINA RESULT:      -7.4      2.178      3.983
REMARK  Name = 
REMARK  7 active torsions:
REMARK  status: ('A' for Active; 'I' for Inactive)
REMARK    1  A    between atoms: C_1  and  C_2
REMARK    2  A    between atoms: C_5  and  C_6
REMARK    3  A    between atoms: C_9  and  C_10
REMARK    4  A    between atoms: C_10  and  C_11
REMARK    5  A    between atoms: C_11  and  C_12
REMARK    6  A    between atoms: N_14  and  C_15
REMARK    7  A    between atoms: C_15  and  C_16
REMARK                            x       y       z     vdW  Elec       q    Type
REMARK                         _______ _______ _______ _____ _____    ______ ____
ROOT
ATOM      1  C   UNL     1       3.790   7.423  17.614  0.00  0.00    +0.000 C 
ENDROOT
BRANCH   1   2
ATOM      2  C   UNL     1       2.724   6.529  18.202  0.00  0.00    +0.000 C 
ATOM      3  O   UNL     1       2.114   6.840  19.213  0.00  0.00    +0.000 OA
ATOM      4  N   UNL     1       2.480   5.383  17.479  0.00  0.00    +0.000 N 
ATOM      5  H   UNL     1       3.137   5.082  16.771  0.00  0.00    +0.000 HD
BRANCH   4   6
ATOM      6  C   UNL     1       1.494   4.423  17.927  0.00  0.00    +0.000 C 
BRANCH   6   7
ATOM      7  C   UNL     1       1.934   3.744  19.196  0.00  0.00    +0.000 A 
ATOM      8  C   UNL     1       3.217   3.193  19.324  0.00  0.00    +0.000 A 
ATOM      9  C   UNL     1       3.603   2.571  20.512  0.00  0.00    +0.000 A 
ATOM     10  C   UNL     1       2.710   2.484  21.581  0.00  0.00    +0.000 A 
ATOM     11  C   UNL     1       1.429   3.019  21.463  0.00  0.00    +0.000 A 
ATOM     12  C   UNL     1       1.043   3.643  20.275  0.00  0.00    +0.000 A 
ENDBRANCH   6   7
ENDBRANCH   4   6
ENDBRANCH   1   2
BRANCH   1  13
ATOM     13  C   UNL     1       4.742   6.627  16.718  0.00  0.00    +0.000 C 
BRANCH  13  22
ATOM     14  C   UNL     1       5.355   3.462  16.841  0.00  0.00    +0.000 C 
ATOM     15  C   UNL     1       6.340   4.599  16.953  0.00  0.00    +0.000 C 
ATOM     16  O   UNL     1       6.887   4.941  15.667  0.00  0.00    +0.000 OA
ATOM     17  O   UNL     1       7.532   6.250  15.924  0.00  0.00    +0.000 OA
ATOM     18  C   UNL     1       7.264   6.467  17.319  0.00  0.00    +0.000 C 
ATOM     19  C   UNL     1       7.559   7.890  17.729  0.00  0.00    +0.000 C 
ATOM     20  O   UNL     1       8.058   5.554  18.104  0.00  0.00    +0.000 OA
ATOM     21  O   UNL     1       7.407   4.251  17.851  0.00  0.00    +0.000 OA
ATOM     22  C   UNL     1       5.856   5.926  17.507  0.00  0.00    +0.000 C 
ENDBRANCH  13  22
ENDBRANCH   1  13
TORSDOF 5
ENDMDL
MODEL 9
REMARK VINA RESULT:      -7.3      2.308      4.282
REMARK  Name = 
REMARK  7 active torsions:
REMARK  status: ('A' for Active; 'I' for Inactive)
REMARK    1  A    between atoms: C_1  and  C_2
REMARK    2  A    between atoms: C_5  and  C_6
REMARK    3  A    between atoms: C_9  and  C_10
REMARK    4  A    between atoms: C_10  and  C_11
REMARK    5  A    between atoms: C_11  and  C_12
REMARK    6  A    between atoms: N_14  and  C_15
REMARK    7  A    between atoms: C_15  and  C_16
REMARK                            x       y       z     vdW  Elec       q    Type
REMARK                         _______ _______ _______ _____ _____    ______ ____
ROOT
ATOM      1  C   UNL     1       4.487   7.135  17.546  0.00  0.00    +0.000 C 
ENDROOT
BRANCH   1   2
ATOM      2  C   UNL     1       3.190   6.496  17.981  0.00  0.00    +0.000 C 
ATOM      3  O   UNL     1       2.353   7.116  18.618  0.00  0.00    +0.000 OA
ATOM      4  N   UNL     1       3.027   5.196  17.559  0.00  0.00    +0.000 N 
ATOM      5  H   UNL     1       3.820   4.674  17.209  0.00  0.00    +0.000 HD
BRANCH   4   6
ATOM      6  C   UNL     1       1.838   4.448  17.910  0.00  0.00    +0.000 C 
BRANCH   6   7
ATOM      7  C   UNL     1       2.007   3.750  19.233  0.00  0.00    +0.000 A 
ATOM      8  C   UNL     1       3.271   3.365  19.701  0.00  0.00    +0.000 A 
ATOM      9  C   UNL     1       3.402   2.721  20.932  0.00  0.00    +0.000 A 
ATOM     10  C   UNL     1       2.273   2.447  21.704  0.00  0.00    +0.000 A 
ATOM     11  C   UNL     1       1.009   2.816  21.246  0.00  0.00    +0.000 A 
ATOM     12  C   UNL     1       0.878   3.462  20.015  0.00  0.00    +0.000 A 
ENDBRANCH   6   7
ENDBRANCH   4   6
ENDBRANCH   1   2
BRANCH   1  13
ATOM     13  C   UNL     1       5.011   6.496  16.258  0.00  0.00    +0.000 C 
BRANCH  13  22
ATOM     14  C   UNL     1       6.452   5.663  19.022  0.00  0.00    +0.000 C 
ATOM     15  C   UNL     1       6.600   5.012  17.669  0.00  0.00    +0.000 C 
ATOM     16  O   UNL     1       5.662   3.933  17.506  0.00  0.00    +0.000 OA
ATOM     17  O   UNL     1       5.722   3.666  16.050  0.00  0.00    +0.000 OA
ATOM     18  C   UNL     1       6.686   4.626  15.591  0.00  0.00    +0.000 C 
ATOM     19  C   UNL     1       6.679   4.749  14.086  0.00  0.00    +0.000 C 
ATOM     20  O   UNL     1       7.999   4.239  16.047  0.00  0.00    +0.000 OA
ATOM     21  O   UNL     1       7.938   4.513  17.498  0.00  0.00    +0.000 OA
ATOM     22  C   UNL     1       6.397   5.861  16.429  0.00  0.00    +0.000 C 
ENDBRANCH  13  22
ENDBRANCH   1  13
TORSDOF 5
ENDMDL
