MODEL 1
REMARK VINA RESULT:      -6.6      0.000      0.000
REMARK  Name = 
REMARK  4 active torsions:
REMARK  status: ('A' for Active; 'I' for Inactive)
REMARK    1  A    between atoms: C_2  and  C_3
REMARK    2  A    between atoms: C_3  and  N_4
REMARK    3  A    between atoms: N_10  and  N_11
REMARK    4  A    between atoms: C_12  and  C_13
REMARK                            x       y       z     vdW  Elec       q    Type
REMARK                         _______ _______ _______ _____ _____    ______ ____
ROOT
ATOM      1  O   UNL     1       6.287   4.221  16.547  0.00  0.00    +0.000 OA
ATOM      2  C   UNL     1       5.662   4.928  17.339  0.00  0.00    +0.000 C 
ATOM      3  N   UNL     1       5.255   6.179  16.921  0.00  0.00    +0.000 N 
ATOM      4  H   UNL     1       5.517   6.433  15.973  0.00  0.00    +0.000 HD
ENDROOT
BRANCH   3   5
ATOM      5  N   UNL     1       4.567   7.051  17.707  0.00  0.00    +0.000 NA
ATOM      6  C   UNL     1       3.279   6.953  17.630  0.00  0.00    +0.000 C 
BRANCH   6   7
ATOM      7  C   UNL     1       2.389   7.834  18.411  0.00  0.00    +0.000 A 
ATOM      8  C   UNL     1       1.748   8.918  17.797  0.00  0.00    +0.000 A 
ATOM      9  C   UNL     1       0.916   9.750  18.549  0.00  0.00    +0.000 A 
ATOM     10  C   UNL     1       0.735   9.496  19.904  0.00  0.00    +0.000 A 
ATOM     11  F   UNL     1      -0.062  10.299  20.622  0.00  0.00    +0.000 F 
ATOM     12  C   UNL     1       1.373   8.418  20.509  0.00  0.00    +0.000 A 
ATOM     13  F   UNL     1       1.195   8.178  21.816  0.00  0.00    +0.000 F 
ATOM     14  C   UNL     1       2.202   7.576  19.772  0.00  0.00    +0.000 A 
ENDBRANCH   6   7
ENDBRANCH   3   5
BRANCH   2  15
ATOM     15  C   UNL     1       5.286   4.530  18.779  0.00  0.00    +0.000 C 
BRANCH  15  16
ATOM     16  N   UNL     1       4.143   3.586  18.941  0.00  0.00    +0.000 NA
ATOM     17  C   UNL     1       3.504   3.237  17.660  0.00  0.00    +0.000 C 
ATOM     18  C   UNL     1       2.452   2.119  17.762  0.00  0.00    +0.000 C 
ATOM     19  S   UNL     1       1.084   2.532  18.887  0.00  0.00    +0.000 S 
ATOM     20  C   UNL     1       2.109   2.998  20.314  0.00  0.00    +0.000 C 
ATOM     21  C   UNL     1       3.168   4.049  19.945  0.00  0.00    +0.000 C 
ENDBRANCH  15  16
ENDBRANCH   2  15
TORSDOF 4
ENDMDL
MODEL 2
REMARK VINA RESULT:      -6.5      4.361      6.966
REMARK  Name = 
REMARK  4 active torsions:
REMARK  status: ('A' for Active; 'I' for Inactive)
REMARK    1  A    between atoms: C_2  and  C_3
REMARK    2  A    between atoms: C_3  and  N_4
REMARK    3  A    between atoms: N_10  and  N_11
REMARK    4  A    between atoms: C_12  and  C_13
REMARK                            x       y       z     vdW  Elec       q    Type
REMARK                         _______ _______ _______ _____ _____    ______ ____
ROOT
ATOM      1  O   UNL     1       2.156  11.434  18.114  0.00  0.00    +0.000 OA
ATOM      2  C   UNL     1       1.680  10.310  18.278  0.00  0.00    +0.000 C 
ATOM      3  N   UNL     1       2.400   9.222  17.826  0.00  0.00    +0.000 N 
ATOM      4  H   UNL     1       3.283   9.435  17.373  0.00  0.00    +0.000 HD
ENDROOT
BRANCH   3   5
ATOM      5  N   UNL     1       1.975   7.934  17.943  0.00  0.00    +0.000 NA
ATOM      6  C   UNL     1       2.602   7.233  18.831  0.00  0.00    +0.000 C 
BRANCH   6   7
ATOM      7  C   UNL     1       2.268   5.815  19.073  0.00  0.00    +0.000 A 
ATOM      8  C   UNL     1       1.854   5.390  20.342  0.00  0.00    +0.000 A 
ATOM      9  C   UNL     1       1.551   4.045  20.560  0.00  0.00    +0.000 A 
ATOM     10  C   UNL     1       1.668   3.137  19.513  0.00  0.00    +0.000 A 
ATOM     11  F   UNL     1       1.379   1.846  19.728  0.00  0.00    +0.000 F 
ATOM     12  C   UNL     1       2.079   3.564  18.255  0.00  0.00    +0.000 A 
ATOM     13  F   UNL     1       2.190   2.684  17.249  0.00  0.00    +0.000 F 
ATOM     14  C   UNL     1       2.380   4.903  18.020  0.00  0.00    +0.000 A 
ENDBRANCH   6   7
ENDBRANCH   3   5
BRANCH   2  15
ATOM     15  C   UNL     1       0.331  10.006  18.956  0.00  0.00    +0.000 C 
BRANCH  15  16
ATOM     16  N   UNL     1       0.129  10.550  20.330  0.00  0.00    +0.000 NA
ATOM     17  C   UNL     1      -0.243   9.510  21.307  0.00  0.00    +0.000 C 
ATOM     18  C   UNL     1      -0.267   9.994  22.767  0.00  0.00    +0.000 C 
ATOM     19  S   UNL     1      -1.439  11.357  23.043  0.00  0.00    +0.000 S 
ATOM     20  C   UNL     1      -0.845  12.431  21.702  0.00  0.00    +0.000 C 
ATOM     21  C   UNL     1      -0.798  11.695  20.353  0.00  0.00    +0.000 C 
ENDBRANCH  15  16
ENDBRANCH   2  15
TORSDOF 4
ENDMDL
MODEL 3
REMARK VINA RESULT:      -6.5      4.739      7.267
REMARK  Name = 
REMARK  4 active torsions:
REMARK  status: ('A' for Active; 'I' for Inactive)
REMARK    1  A    between atoms: C_2  and  C_3
REMARK    2  A    between atoms: C_3  and  N_4
REMARK    3  A    between atoms: N_10  and  N_11
REMARK    4  A    between atoms: C_12  and  C_13
REMARK                            x       y       z     vdW  Elec       q    Type
REMARK                         _______ _______ _______ _____ _____    ______ ____
ROOT
ATOM      1  O   UNL     1       0.731  10.319  22.137  0.00  0.00    +0.000 OA
ATOM      2  C   UNL     1       0.982   9.580  21.184  0.00  0.00    +0.000 C 
ATOM      3  N   UNL     1       1.516   8.334  21.444  0.00  0.00    +0.000 N 
ATOM      4  H   UNL     1       1.676   8.119  22.423  0.00  0.00    +0.000 HD
ENDROOT
BRANCH   3   5
ATOM      5  N   UNL     1       1.841   7.435  20.476  0.00  0.00    +0.000 NA
ATOM      6  C   UNL     1       1.495   6.214  20.728  0.00  0.00    +0.000 C 
BRANCH   6   7
ATOM      7  C   UNL     1       1.786   5.117  19.783  0.00  0.00    +0.000 A 
ATOM      8  C   UNL     1       2.332   5.394  18.522  0.00  0.00    +0.000 A 
ATOM      9  C   UNL     1       2.593   4.348  17.634  0.00  0.00    +0.000 A 
ATOM     10  C   UNL     1       2.302   3.041  18.009  0.00  0.00    +0.000 A 
ATOM     11  F   UNL     1       2.551   2.041  17.152  0.00  0.00    +0.000 F 
ATOM     12  C   UNL     1       1.761   2.772  19.262  0.00  0.00    +0.000 A 
ATOM     13  F   UNL     1       1.483   1.509  19.618  0.00  0.00    +0.000 F 
ATOM     14  C   UNL     1       1.500   3.803  20.161  0.00  0.00    +0.000 A 
ENDBRANCH   6   7
ENDBRANCH   3   5
BRANCH   2  15
ATOM     15  C   UNL     1       0.745   9.930  19.702  0.00  0.00    +0.000 C 
BRANCH  15  16
ATOM     16  N   UNL     1      -0.660  10.220  19.294  0.00  0.00    +0.000 NA
ATOM     17  C   UNL     1      -0.960   9.768  17.923  0.00  0.00    +0.000 C 
ATOM     18  C   UNL     1      -2.446   9.870  17.536  0.00  0.00    +0.000 C 
ATOM     19  S   UNL     1      -3.091  11.566  17.638  0.00  0.00    +0.000 S 
ATOM     20  C   UNL     1      -2.532  11.911  19.333  0.00  0.00    +0.000 C 
ATOM     21  C   UNL     1      -1.031  11.628  19.513  0.00  0.00    +0.000 C 
ENDBRANCH  15  16
ENDBRANCH   2  15
TORSDOF 4
ENDMDL
MODEL 4
REMARK VINA RESULT:      -6.4      4.776      7.317
REMARK  Name = 
REMARK  4 active torsions:
REMARK  status: ('A' for Active; 'I' for Inactive)
REMARK    1  A    between atoms: C_2  and  C_3
REMARK    2  A    between atoms: C_3  and  N_4
REMARK    3  A    between atoms: N_10  and  N_11
REMARK    4  A    between atoms: C_12  and  C_13
REMARK                            x       y       z     vdW  Elec       q    Type
REMARK                         _______ _______ _______ _____ _____    ______ ____
ROOT
ATOM      1  O   UNL     1       0.904   7.897  21.637  0.00  0.00    +0.000 OA
ATOM      2  C   UNL     1       1.524   7.812  20.576  0.00  0.00    +0.000 C 
ATOM      3  N   UNL     1       2.285   6.682  20.350  0.00  0.00    +0.000 N 
ATOM      4  H   UNL     1       2.285   5.995  21.096  0.00  0.00    +0.000 HD
ENDROOT
BRANCH   3   5
ATOM      5  N   UNL     1       3.017   6.479  19.221  0.00  0.00    +0.000 NA
ATOM      6  C   UNL     1       4.023   5.678  19.362  0.00  0.00    +0.000 C 
BRANCH   6   7
ATOM      7  C   UNL     1       4.924   5.362  18.236  0.00  0.00    +0.000 A 
ATOM      8  C   UNL     1       4.477   5.490  16.913  0.00  0.00    +0.000 A 
ATOM      9  C   UNL     1       5.336   5.178  15.857  0.00  0.00    +0.000 A 
ATOM     10  C   UNL     1       6.627   4.740  16.129  0.00  0.00    +0.000 A 
ATOM     11  F   UNL     1       7.446   4.439  15.112  0.00  0.00    +0.000 F 
ATOM     12  C   UNL     1       7.066   4.616  17.443  0.00  0.00    +0.000 A 
ATOM     13  F   UNL     1       8.312   4.192  17.699  0.00  0.00    +0.000 F 
ATOM     14  C   UNL     1       6.223   4.927  18.508  0.00  0.00    +0.000 A 
ENDBRANCH   6   7
ENDBRANCH   3   5
BRANCH   2  15
ATOM     15  C   UNL     1       1.523   8.874  19.460  0.00  0.00    +0.000 C 
BRANCH  15  16
ATOM     16  N   UNL     1       0.459   9.917  19.522  0.00  0.00    +0.000 NA
ATOM     17  C   UNL     1      -0.206  10.133  18.225  0.00  0.00    +0.000 C 
ATOM     18  C   UNL     1      -1.436  11.055  18.290  0.00  0.00    +0.000 C 
ATOM     19  S   UNL     1      -1.044  12.717  18.915  0.00  0.00    +0.000 S 
ATOM     20  C   UNL     1      -0.180  12.186  20.423  0.00  0.00    +0.000 C 
ATOM     21  C   UNL     1       0.938  11.175  20.121  0.00  0.00    +0.000 C 
ENDBRANCH  15  16
ENDBRANCH   2  15
TORSDOF 4
ENDMDL
MODEL 5
REMARK VINA RESULT:      -6.4      4.164      6.885
REMARK  Name = 
REMARK  4 active torsions:
REMARK  status: ('A' for Active; 'I' for Inactive)
REMARK    1  A    between atoms: C_2  and  C_3
REMARK    2  A    between atoms: C_3  and  N_4
REMARK    3  A    between atoms: N_10  and  N_11
REMARK    4  A    between atoms: C_12  and  C_13
REMARK                            x       y       z     vdW  Elec       q    Type
REMARK                         _______ _______ _______ _____ _____    ______ ____
ROOT
ATOM      1  O   UNL     1       2.349  11.171  17.934  0.00  0.00    +0.000 OA
ATOM      2  C   UNL     1       1.773  10.089  18.052  0.00  0.00    +0.000 C 
ATOM      3  N   UNL     1       2.533   8.937  18.036  0.00  0.00    +0.000 N 
ATOM      4  H   UNL     1       3.532   9.069  17.915  0.00  0.00    +0.000 HD
ENDROOT
BRANCH   3   5
ATOM      5  N   UNL     1       2.009   7.686  18.149  0.00  0.00    +0.000 NA
ATOM      6  C   UNL     1       2.841   6.782  18.555  0.00  0.00    +0.000 C 
BRANCH   6   7
ATOM      7  C   UNL     1       2.433   5.373  18.719  0.00  0.00    +0.000 A 
ATOM      8  C   UNL     1       2.632   4.451  17.682  0.00  0.00    +0.000 A 
ATOM      9  C   UNL     1       2.232   3.124  17.846  0.00  0.00    +0.000 A 
ATOM     10  C   UNL     1       1.635   2.730  19.039  0.00  0.00    +0.000 A 
ATOM     11  F   UNL     1       1.250   1.455  19.190  0.00  0.00    +0.000 F 
ATOM     12  C   UNL     1       1.440   3.648  20.065  0.00  0.00    +0.000 A 
ATOM     13  F   UNL     1       0.863   3.262  21.213  0.00  0.00    +0.000 F 
ATOM     14  C   UNL     1       1.838   4.975  19.919  0.00  0.00    +0.000 A 
ENDBRANCH   6   7
ENDBRANCH   3   5
BRANCH   2  15
ATOM     15  C   UNL     1       0.252   9.907  18.220  0.00  0.00    +0.000 C 
BRANCH  15  16
ATOM     16  N   UNL     1      -0.349  10.392  19.496  0.00  0.00    +0.000 NA
ATOM     17  C   UNL     1      -0.823  11.785  19.410  0.00  0.00    +0.000 C 
ATOM     18  C   UNL     1      -1.623  12.257  20.636  0.00  0.00    +0.000 C 
ATOM     19  S   UNL     1      -0.671  12.165  22.183  0.00  0.00    +0.000 S 
ATOM     20  C   UNL     1      -0.140  10.436  22.010  0.00  0.00    +0.000 C 
ATOM     21  C   UNL     1       0.535  10.172  20.654  0.00  0.00    +0.000 C 
ENDBRANCH  15  16
ENDBRANCH   2  15
TORSDOF 4
ENDMDL
MODEL 6
REMARK VINA RESULT:      -6.4      3.753      5.547
REMARK  Name = 
REMARK  4 active torsions:
REMARK  status: ('A' for Active; 'I' for Inactive)
REMARK    1  A    between atoms: C_2  and  C_3
REMARK    2  A    between atoms: C_3  and  N_4
REMARK    3  A    between atoms: N_10  and  N_11
REMARK    4  A    between atoms: C_12  and  C_13
REMARK                            x       y       z     vdW  Elec       q    Type
REMARK                         _______ _______ _______ _____ _____    ______ ____
ROOT
ATOM      1  O   UNL     1       7.719   7.841  16.969  0.00  0.00    +0.000 OA
ATOM      2  C   UNL     1       6.888   6.938  16.863  0.00  0.00    +0.000 C 
ATOM      3  N   UNL     1       5.585   7.198  17.238  0.00  0.00    +0.000 N 
ATOM      4  H   UNL     1       5.407   8.133  17.590  0.00  0.00    +0.000 HD
ENDROOT
BRANCH   3   5
ATOM      5  N   UNL     1       4.583   6.279  17.174  0.00  0.00    +0.000 NA
ATOM      6  C   UNL     1       4.354   5.647  18.278  0.00  0.00    +0.000 C 
BRANCH   6   7
ATOM      7  C   UNL     1       3.307   4.610  18.372  0.00  0.00    +0.000 A 
ATOM      8  C   UNL     1       3.347   3.484  17.539  0.00  0.00    +0.000 A 
ATOM      9  C   UNL     1       2.346   2.515  17.631  0.00  0.00    +0.000 A 
ATOM     10  C   UNL     1       1.314   2.681  18.548  0.00  0.00    +0.000 A 
ATOM     11  F   UNL     1       0.353   1.750  18.630  0.00  0.00    +0.000 F 
ATOM     12  C   UNL     1       1.279   3.799  19.374  0.00  0.00    +0.000 A 
ATOM     13  F   UNL     1       0.281   3.953  20.256  0.00  0.00    +0.000 F 
ATOM     14  C   UNL     1       2.273   4.772  19.298  0.00  0.00    +0.000 A 
ENDBRANCH   6   7
ENDBRANCH   3   5
BRANCH   2  15
ATOM     15  C   UNL     1       7.181   5.519  16.339  0.00  0.00    +0.000 C 
BRANCH  15  16
ATOM     16  N   UNL     1       6.788   5.225  14.930  0.00  0.00    +0.000 NA
ATOM     17  C   UNL     1       5.932   4.031  14.813  0.00  0.00    +0.000 C 
ATOM     18  C   UNL     1       5.346   3.809  13.408  0.00  0.00    +0.000 C 
ATOM     19  S   UNL     1       6.624   3.615  12.129  0.00  0.00    +0.000 S 
ATOM     20  C   UNL     1       7.567   5.115  12.533  0.00  0.00    +0.000 C 
ATOM     21  C   UNL     1       7.946   5.175  14.021  0.00  0.00    +0.000 C 
ENDBRANCH  15  16
ENDBRANCH   2  15
TORSDOF 4
ENDMDL
MODEL 7
REMARK VINA RESULT:      -6.4      3.984      6.683
REMARK  Name = 
REMARK  4 active torsions:
REMARK  status: ('A' for Active; 'I' for Inactive)
REMARK    1  A    between atoms: C_2  and  C_3
REMARK    2  A    between atoms: C_3  and  N_4
REMARK    3  A    between atoms: N_10  and  N_11
REMARK    4  A    between atoms: C_12  and  C_13
REMARK                            x       y       z     vdW  Elec       q    Type
REMARK                         _______ _______ _______ _____ _____    ______ ____
ROOT
ATOM      1  O   UNL     1       2.210  11.026  17.515  0.00  0.00    +0.000 OA
ATOM      2  C   UNL     1       1.798  10.020  18.093  0.00  0.00    +0.000 C 
ATOM      3  N   UNL     1       2.629   8.920  18.168  0.00  0.00    +0.000 N 
ATOM      4  H   UNL     1       3.536   9.022  17.722  0.00  0.00    +0.000 HD
ENDROOT
BRANCH   3   5
ATOM      5  N   UNL     1       2.283   7.751  18.772  0.00  0.00    +0.000 NA
ATOM      6  C   UNL     1       2.585   6.684  18.107  0.00  0.00    +0.000 C 
BRANCH   6   7
ATOM      7  C   UNL     1       2.266   5.337  18.620  0.00  0.00    +0.000 A 
ATOM      8  C   UNL     1       2.001   4.284  17.733  0.00  0.00    +0.000 A 
ATOM      9  C   UNL     1       1.691   3.018  18.231  0.00  0.00    +0.000 A 
ATOM     10  C   UNL     1       1.643   2.814  19.606  0.00  0.00    +0.000 A 
ATOM     11  F   UNL     1       1.342   1.597  20.079  0.00  0.00    +0.000 F 
ATOM     12  C   UNL     1       1.907   3.861  20.482  0.00  0.00    +0.000 A 
ATOM     13  F   UNL     1       1.860   3.659  21.807  0.00  0.00    +0.000 F 
ATOM     14  C   UNL     1       2.223   5.129  20.001  0.00  0.00    +0.000 A 
ENDBRANCH   6   7
ENDBRANCH   3   5
BRANCH   2  15
ATOM     15  C   UNL     1       0.412   9.878  18.752  0.00  0.00    +0.000 C 
BRANCH  15  16
ATOM     16  N   UNL     1       0.282  10.358  20.158  0.00  0.00    +0.000 NA
ATOM     17  C   UNL     1      -0.017   9.270  21.107  0.00  0.00    +0.000 C 
ATOM     18  C   UNL     1       0.036   9.690  22.586  0.00  0.00    +0.000 C 
ATOM     19  S   UNL     1      -1.138  11.019  22.989  0.00  0.00    +0.000 S 
ATOM     20  C   UNL     1      -0.639  12.160  21.665  0.00  0.00    +0.000 C 
ATOM     21  C   UNL     1      -0.658  11.485  20.284  0.00  0.00    +0.000 C 
ENDBRANCH  15  16
ENDBRANCH   2  15
TORSDOF 4
ENDMDL
MODEL 8
REMARK VINA RESULT:      -6.3      4.902      7.332
REMARK  Name = 
REMARK  4 active torsions:
REMARK  status: ('A' for Active; 'I' for Inactive)
REMARK    1  A    between atoms: C_2  and  C_3
REMARK    2  A    between atoms: C_3  and  N_4
REMARK    3  A    between atoms: N_10  and  N_11
REMARK    4  A    between atoms: C_12  and  C_13
REMARK                            x       y       z     vdW  Elec       q    Type
REMARK                         _______ _______ _______ _____ _____    ______ ____
ROOT
ATOM      1  O   UNL     1       0.934  12.205  18.660  0.00  0.00    +0.000 OA
ATOM      2  C   UNL     1       0.850  10.982  18.538  0.00  0.00    +0.000 C 
ATOM      3  N   UNL     1       1.817  10.330  17.799  0.00  0.00    +0.000 N 
ATOM      4  H   UNL     1       2.536  10.921  17.395  0.00  0.00    +0.000 HD
ENDROOT
BRANCH   3   5
ATOM      5  N   UNL     1       1.826   8.985  17.588  0.00  0.00    +0.000 NA
ATOM      6  C   UNL     1       2.914   8.385  17.949  0.00  0.00    +0.000 C 
BRANCH   6   7
ATOM      7  C   UNL     1       3.087   6.929  17.777  0.00  0.00    +0.000 A 
ATOM      8  C   UNL     1       2.086   6.042  18.192  0.00  0.00    +0.000 A 
ATOM      9  C   UNL     1       2.266   4.667  18.032  0.00  0.00    +0.000 A 
ATOM     10  C   UNL     1       3.444   4.190  17.465  0.00  0.00    +0.000 A 
ATOM     11  F   UNL     1       3.613   2.870  17.317  0.00  0.00    +0.000 F 
ATOM     12  C   UNL     1       4.434   5.076  17.054  0.00  0.00    +0.000 A 
ATOM     13  F   UNL     1       5.568   4.611  16.508  0.00  0.00    +0.000 F 
ATOM     14  C   UNL     1       4.267   6.450  17.202  0.00  0.00    +0.000 A 
ENDBRANCH   6   7
ENDBRANCH   3   5
BRANCH   2  15
ATOM     15  C   UNL     1      -0.257  10.102  19.149  0.00  0.00    +0.000 C 
BRANCH  15  16
ATOM     16  N   UNL     1      -1.622  10.229  18.560  0.00  0.00    +0.000 NA
ATOM     17  C   UNL     1      -1.654   9.914  17.121  0.00  0.00    +0.000 C 
ATOM     18  C   UNL     1      -3.069   9.842  16.521  0.00  0.00    +0.000 C 
ATOM     19  S   UNL     1      -3.994  11.398  16.696  0.00  0.00    +0.000 S 
ATOM     20  C   UNL     1      -3.735  11.606  18.483  0.00  0.00    +0.000 C 
ATOM     21  C   UNL     1      -2.247  11.529  18.863  0.00  0.00    +0.000 C 
ENDBRANCH  15  16
ENDBRANCH   2  15
TORSDOF 4
ENDMDL
MODEL 9
REMARK VINA RESULT:      -6.3      0.725      1.526
REMARK  Name = 
REMARK  4 active torsions:
REMARK  status: ('A' for Active; 'I' for Inactive)
REMARK    1  A    between atoms: C_2  and  C_3
REMARK    2  A    between atoms: C_3  and  N_4
REMARK    3  A    between atoms: N_10  and  N_11
REMARK    4  A    between atoms: C_12  and  C_13
REMARK                            x       y       z     vdW  Elec       q    Type
REMARK                         _______ _______ _______ _____ _____    ______ ____
ROOT
ATOM      1  O   UNL     1       6.419   4.186  16.241  0.00  0.00    +0.000 OA
ATOM      2  C   UNL     1       5.839   4.904  17.057  0.00  0.00    +0.000 C 
ATOM      3  N   UNL     1       5.349   6.121  16.629  0.00  0.00    +0.000 N 
ATOM      4  H   UNL     1       5.515   6.344  15.653  0.00  0.00    +0.000 HD
ENDROOT
BRANCH   3   5
ATOM      5  N   UNL     1       4.699   7.001  17.439  0.00  0.00    +0.000 NA
ATOM      6  C   UNL     1       3.452   6.729  17.648  0.00  0.00    +0.000 C 
BRANCH   6   7
ATOM      7  C   UNL     1       2.604   7.592  18.495  0.00  0.00    +0.000 A 
ATOM      8  C   UNL     1       2.306   7.218  19.812  0.00  0.00    +0.000 A 
ATOM      9  C   UNL     1       1.495   8.038  20.600  0.00  0.00    +0.000 A 
ATOM     10  C   UNL     1       0.987   9.217  20.065  0.00  0.00    +0.000 A 
ATOM     11  F   UNL     1       0.206   9.999  20.824  0.00  0.00    +0.000 F 
ATOM     12  C   UNL     1       1.287   9.583  18.757  0.00  0.00    +0.000 A 
ATOM     13  F   UNL     1       0.794  10.722  18.247  0.00  0.00    +0.000 F 
ATOM     14  C   UNL     1       2.098   8.779  17.961  0.00  0.00    +0.000 A 
ENDBRANCH   6   7
ENDBRANCH   3   5
BRANCH   2  15
ATOM     15  C   UNL     1       5.608   4.554  18.540  0.00  0.00    +0.000 C 
BRANCH  15  16
ATOM     16  N   UNL     1       4.591   3.505  18.835  0.00  0.00    +0.000 NA
ATOM     17  C   UNL     1       3.800   3.127  17.650  0.00  0.00    +0.000 C 
ATOM     18  C   UNL     1       2.879   1.913  17.866  0.00  0.00    +0.000 C 
ATOM     19  S   UNL     1       1.665   2.171  19.195  0.00  0.00    +0.000 S 
ATOM     20  C   UNL     1       2.847   2.699  20.471  0.00  0.00    +0.000 C 
ATOM     21  C   UNL     1       3.741   3.852  19.988  0.00  0.00    +0.000 C 
ENDBRANCH  15  16
ENDBRANCH   2  15
TORSDOF 4
ENDMDL
