MODEL 1
REMARK VINA RESULT:      -8.2      0.000      0.000
REMARK  Name = 
REMARK  4 active torsions:
REMARK  status: ('A' for Active; 'I' for Inactive)
REMARK    1  A    between atoms: C_2  and  C_5
REMARK    2  A    between atoms: C_7  and  C_8
REMARK    3  A    between atoms: C_8  and  N_9
REMARK    4  A    between atoms: C_20  and  C_21
REMARK                            x       y       z     vdW  Elec       q    Type
REMARK                         _______ _______ _______ _____ _____    ______ ____
ROOT
ATOM      1  C   UNL     1       6.826   5.894  17.820  0.00  0.00    +0.000 A 
ATOM      2  C   UNL     1       5.630   6.607  18.015  0.00  0.00    +0.000 A 
ATOM      3  C   UNL     1       4.651   6.676  17.008  0.00  0.00    +0.000 A 
ATOM      4  C   UNL     1       4.878   6.005  15.802  0.00  0.00    +0.000 A 
ATOM      5  C   UNL     1       6.068   5.301  15.574  0.00  0.00    +0.000 A 
ATOM      6  C   UNL     1       7.037   5.252  16.590  0.00  0.00    +0.000 A 
ENDROOT
BRANCH   1   8
ATOM      7  F   UNL     1       8.714   4.734  18.765  0.00  0.00    +0.000 F 
ATOM      8  C   UNL     1       7.859   5.785  18.918  0.00  0.00    +0.000 C 
ATOM      9  F   UNL     1       7.302   5.635  20.152  0.00  0.00    +0.000 F 
ATOM     10  F   UNL     1       8.647   6.894  18.998  0.00  0.00    +0.000 F 
ENDBRANCH   1   8
BRANCH   5  11
ATOM     11  C   UNL     1       6.297   4.580  14.267  0.00  0.00    +0.000 C 
ATOM     12  F   UNL     1       7.239   5.163  13.475  0.00  0.00    +0.000 F 
ATOM     13  F   UNL     1       6.705   3.293  14.448  0.00  0.00    +0.000 F 
ATOM     14  F   UNL     1       5.166   4.511  13.512  0.00  0.00    +0.000 F 
ENDBRANCH   5  11
BRANCH   3  15
ATOM     15  C   UNL     1       3.329   7.368  17.295  0.00  0.00    +0.000 C 
BRANCH  15  16
ATOM     16  N   UNL     1       2.382   6.608  18.135  0.00  0.00    +0.000 NA
ATOM     17  C   UNL     1       2.453   6.982  19.549  0.00  0.00    +0.000 C 
ATOM     18  C   UNL     1       2.632   5.713  20.370  0.00  0.00    +0.000 C 
ATOM     19  C   UNL     1       2.434   4.536  19.406  0.00  0.00    +0.000 C 
ATOM     20  C   UNL     1       1.023   3.920  19.544  0.00  0.00    +0.000 C 
ATOM     21  C   UNL     1       0.879   3.110  20.839  0.00  0.00    +0.000 C 
ATOM     22  C   UNL     1       2.016   2.104  21.015  0.00  0.00    +0.000 C 
ATOM     23  N   UNL     1       3.324   2.758  20.927  0.00  0.00    +0.000 NA
ATOM     24  C   UNL     1       3.485   3.428  19.635  0.00  0.00    +0.000 C 
ATOM     25  C   UNL     1       2.653   5.168  18.024  0.00  0.00    +0.000 C 
ATOM     26  H   UNL     1       4.056   2.059  21.036  0.00  0.00    +0.000 HD
ENDBRANCH  15  16
ENDBRANCH   3  15
TORSDOF 4
ENDMDL
MODEL 2
REMARK VINA RESULT:      -8.2      0.015      1.065
REMARK  Name = 
REMARK  4 active torsions:
REMARK  status: ('A' for Active; 'I' for Inactive)
REMARK    1  A    between atoms: C_2  and  C_5
REMARK    2  A    between atoms: C_7  and  C_8
REMARK    3  A    between atoms: C_8  and  N_9
REMARK    4  A    between atoms: C_20  and  C_21
REMARK                            x       y       z     vdW  Elec       q    Type
REMARK                         _______ _______ _______ _____ _____    ______ ____
ROOT
ATOM      1  C   UNL     1       6.830   5.892  17.821  0.00  0.00    +0.000 A 
ATOM      2  C   UNL     1       5.635   6.607  18.017  0.00  0.00    +0.000 A 
ATOM      3  C   UNL     1       4.653   6.674  17.012  0.00  0.00    +0.000 A 
ATOM      4  C   UNL     1       4.877   5.999  15.807  0.00  0.00    +0.000 A 
ATOM      5  C   UNL     1       6.067   5.294  15.578  0.00  0.00    +0.000 A 
ATOM      6  C   UNL     1       7.037   5.247  16.593  0.00  0.00    +0.000 A 
ENDROOT
BRANCH   1   8
ATOM      7  F   UNL     1       7.333   5.622  20.161  0.00  0.00    +0.000 F 
ATOM      8  C   UNL     1       7.865   5.785  18.917  0.00  0.00    +0.000 C 
ATOM      9  F   UNL     1       8.665   6.885  18.995  0.00  0.00    +0.000 F 
ATOM     10  F   UNL     1       8.704   4.727  18.732  0.00  0.00    +0.000 F 
ENDBRANCH   1   8
BRANCH   5  11
ATOM     11  C   UNL     1       6.292   4.570  14.273  0.00  0.00    +0.000 C 
ATOM     12  F   UNL     1       6.708   3.282  14.423  0.00  0.00    +0.000 F 
ATOM     13  F   UNL     1       5.166   4.514  13.509  0.00  0.00    +0.000 F 
ATOM     14  F   UNL     1       7.236   5.178  13.502  0.00  0.00    +0.000 F 
ENDBRANCH   5  11
BRANCH   3  15
ATOM     15  C   UNL     1       3.332   7.367  17.300  0.00  0.00    +0.000 C 
BRANCH  15  16
ATOM     16  N   UNL     1       2.384   6.606  18.137  0.00  0.00    +0.000 NA
ATOM     17  C   UNL     1       2.449   6.980  19.551  0.00  0.00    +0.000 C 
ATOM     18  C   UNL     1       2.625   5.712  20.373  0.00  0.00    +0.000 C 
ATOM     19  C   UNL     1       2.433   4.534  19.408  0.00  0.00    +0.000 C 
ATOM     20  C   UNL     1       1.022   3.917  19.541  0.00  0.00    +0.000 C 
ATOM     21  C   UNL     1       0.873   3.107  20.835  0.00  0.00    +0.000 C 
ATOM     22  C   UNL     1       2.011   2.103  21.015  0.00  0.00    +0.000 C 
ATOM     23  N   UNL     1       3.318   2.758  20.932  0.00  0.00    +0.000 NA
ATOM     24  C   UNL     1       3.484   3.427  19.641  0.00  0.00    +0.000 C 
ATOM     25  C   UNL     1       2.656   5.167  18.026  0.00  0.00    +0.000 C 
ATOM     26  H   UNL     1       4.051   2.059  21.044  0.00  0.00    +0.000 HD
ENDBRANCH  15  16
ENDBRANCH   3  15
TORSDOF 4
ENDMDL
MODEL 3
REMARK VINA RESULT:      -7.9      5.349      7.771
REMARK  Name = 
REMARK  4 active torsions:
REMARK  status: ('A' for Active; 'I' for Inactive)
REMARK    1  A    between atoms: C_2  and  C_5
REMARK    2  A    between atoms: C_7  and  C_8
REMARK    3  A    between atoms: C_8  and  N_9
REMARK    4  A    between atoms: C_20  and  C_21
REMARK                            x       y       z     vdW  Elec       q    Type
REMARK                         _______ _______ _______ _____ _____    ______ ____
ROOT
ATOM      1  C   UNL     1      -0.696  10.123  18.392  0.00  0.00    +0.000 A 
ATOM      2  C   UNL     1       0.442   9.607  17.749  0.00  0.00    +0.000 A 
ATOM      3  C   UNL     1       1.508   9.059  18.485  0.00  0.00    +0.000 A 
ATOM      4  C   UNL     1       1.413   9.020  19.880  0.00  0.00    +0.000 A 
ATOM      5  C   UNL     1       0.298   9.544  20.548  0.00  0.00    +0.000 A 
ATOM      6  C   UNL     1      -0.752  10.094  19.794  0.00  0.00    +0.000 A 
ENDROOT
BRANCH   1   8
ATOM      7  F   UNL     1      -1.929  10.198  16.324  0.00  0.00    +0.000 F 
ATOM      8  C   UNL     1      -1.860  10.673  17.599  0.00  0.00    +0.000 C 
ATOM      9  F   UNL     1      -1.828  12.030  17.491  0.00  0.00    +0.000 F 
ATOM     10  F   UNL     1      -3.061  10.373  18.170  0.00  0.00    +0.000 F 
ENDBRANCH   1   8
BRANCH   5  11
ATOM     11  C   UNL     1       0.209   9.492  22.054  0.00  0.00    +0.000 C 
ATOM     12  F   UNL     1      -0.769   8.668  22.520  0.00  0.00    +0.000 F 
ATOM     13  F   UNL     1       1.367   9.061  22.628  0.00  0.00    +0.000 F 
ATOM     14  F   UNL     1      -0.044  10.716  22.597  0.00  0.00    +0.000 F 
ENDBRANCH   5  11
BRANCH   3  15
ATOM     15  C   UNL     1       2.674   8.417  17.750  0.00  0.00    +0.000 C 
BRANCH  15  16
ATOM     16  N   UNL     1       3.248   7.219  18.393  0.00  0.00    +0.000 NA
ATOM     17  C   UNL     1       4.321   6.611  17.602  0.00  0.00    +0.000 C 
ATOM     18  C   UNL     1       4.009   5.131  17.433  0.00  0.00    +0.000 C 
ATOM     19  C   UNL     1       2.818   4.826  18.352  0.00  0.00    +0.000 C 
ATOM     20  C   UNL     1       3.274   4.146  19.663  0.00  0.00    +0.000 C 
ATOM     21  C   UNL     1       3.693   2.688  19.433  0.00  0.00    +0.000 C 
ATOM     22  C   UNL     1       2.634   1.903  18.660  0.00  0.00    +0.000 C 
ATOM     23  N   UNL     1       2.286   2.572  17.405  0.00  0.00    +0.000 NA
ATOM     24  C   UNL     1       1.778   3.921  17.657  0.00  0.00    +0.000 C 
ATOM     25  C   UNL     1       2.202   6.210  18.606  0.00  0.00    +0.000 C 
ATOM     26  H   UNL     1       1.571   2.029  16.923  0.00  0.00    +0.000 HD
ENDBRANCH  15  16
ENDBRANCH   3  15
TORSDOF 4
ENDMDL
MODEL 4
REMARK VINA RESULT:      -7.9      3.956      6.123
REMARK  Name = 
REMARK  4 active torsions:
REMARK  status: ('A' for Active; 'I' for Inactive)
REMARK    1  A    between atoms: C_2  and  C_5
REMARK    2  A    between atoms: C_7  and  C_8
REMARK    3  A    between atoms: C_8  and  N_9
REMARK    4  A    between atoms: C_20  and  C_21
REMARK                            x       y       z     vdW  Elec       q    Type
REMARK                         _______ _______ _______ _____ _____    ______ ____
ROOT
ATOM      1  C   UNL     1       4.259   5.236  16.979  0.00  0.00    +0.000 A 
ATOM      2  C   UNL     1       3.833   6.358  17.712  0.00  0.00    +0.000 A 
ATOM      3  C   UNL     1       2.800   6.257  18.662  0.00  0.00    +0.000 A 
ATOM      4  C   UNL     1       2.206   5.010  18.881  0.00  0.00    +0.000 A 
ATOM      5  C   UNL     1       2.598   3.879  18.151  0.00  0.00    +0.000 A 
ATOM      6  C   UNL     1       3.626   4.003  17.202  0.00  0.00    +0.000 A 
ENDROOT
BRANCH   1   8
ATOM      7  F   UNL     1       6.608   5.572  16.568  0.00  0.00    +0.000 F 
ATOM      8  C   UNL     1       5.397   5.335  15.989  0.00  0.00    +0.000 C 
ATOM      9  F   UNL     1       5.217   6.332  15.079  0.00  0.00    +0.000 F 
ATOM     10  F   UNL     1       5.551   4.192  15.264  0.00  0.00    +0.000 F 
ENDBRANCH   1   8
BRANCH   5  11
ATOM     11  C   UNL     1       1.949   2.539  18.401  0.00  0.00    +0.000 C 
ATOM     12  F   UNL     1       0.588   2.580  18.406  0.00  0.00    +0.000 F 
ATOM     13  F   UNL     1       2.293   1.613  17.464  0.00  0.00    +0.000 F 
ATOM     14  F   UNL     1       2.310   2.008  19.602  0.00  0.00    +0.000 F 
ENDBRANCH   5  11
BRANCH   3  15
ATOM     15  C   UNL     1       2.441   7.467  19.508  0.00  0.00    +0.000 C 
BRANCH  15  16
ATOM     16  N   UNL     1       1.475   8.404  18.900  0.00  0.00    +0.000 NA
ATOM     17  C   UNL     1       2.087   9.275  17.894  0.00  0.00    +0.000 C 
ATOM     18  C   UNL     1       1.734  10.716  18.232  0.00  0.00    +0.000 C 
ATOM     19  C   UNL     1       0.691  10.660  19.356  0.00  0.00    +0.000 C 
ATOM     20  C   UNL     1      -0.739  10.883  18.814  0.00  0.00    +0.000 C 
ATOM     21  C   UNL     1      -0.980  12.348  18.427  0.00  0.00    +0.000 C 
ATOM     22  C   UNL     1      -0.582  13.308  19.547  0.00  0.00    +0.000 C 
ATOM     23  N   UNL     1       0.798  13.081  19.979  0.00  0.00    +0.000 NA
ATOM     24  C   UNL     1       0.976  11.708  20.453  0.00  0.00    +0.000 C 
ATOM     25  C   UNL     1       0.872   9.250  19.939  0.00  0.00    +0.000 C 
ATOM     26  H   UNL     1       1.025  13.728  20.732  0.00  0.00    +0.000 HD
ENDBRANCH  15  16
ENDBRANCH   3  15
TORSDOF 4
ENDMDL
MODEL 5
REMARK VINA RESULT:      -7.9      3.947      6.038
REMARK  Name = 
REMARK  4 active torsions:
REMARK  status: ('A' for Active; 'I' for Inactive)
REMARK    1  A    between atoms: C_2  and  C_5
REMARK    2  A    between atoms: C_7  and  C_8
REMARK    3  A    between atoms: C_8  and  N_9
REMARK    4  A    between atoms: C_20  and  C_21
REMARK                            x       y       z     vdW  Elec       q    Type
REMARK                         _______ _______ _______ _____ _____    ______ ____
ROOT
ATOM      1  C   UNL     1       2.690   3.982  18.169  0.00  0.00    +0.000 A 
ATOM      2  C   UNL     1       2.322   5.066  18.986  0.00  0.00    +0.000 A 
ATOM      3  C   UNL     1       2.914   6.332  18.825  0.00  0.00    +0.000 A 
ATOM      4  C   UNL     1       3.872   6.504  17.820  0.00  0.00    +0.000 A 
ATOM      5  C   UNL     1       4.271   5.437  17.004  0.00  0.00    +0.000 A 
ATOM      6  C   UNL     1       3.673   4.178  17.188  0.00  0.00    +0.000 A 
ENDROOT
BRANCH   1   8
ATOM      7  F   UNL     1       2.356   1.977  19.461  0.00  0.00    +0.000 F 
ATOM      8  C   UNL     1       2.023   2.633  18.314  0.00  0.00    +0.000 C 
ATOM      9  F   UNL     1       2.330   1.783  17.295  0.00  0.00    +0.000 F 
ATOM     10  F   UNL     1       0.664   2.728  18.324  0.00  0.00    +0.000 F 
ENDBRANCH   1   8
BRANCH   5  11
ATOM     11  C   UNL     1       5.306   5.639  15.923  0.00  0.00    +0.000 C 
ATOM     12  F   UNL     1       5.474   4.557  15.114  0.00  0.00    +0.000 F 
ATOM     13  F   UNL     1       4.999   6.680  15.100  0.00  0.00    +0.000 F 
ATOM     14  F   UNL     1       6.537   5.918  16.435  0.00  0.00    +0.000 F 
ENDBRANCH   5  11
BRANCH   3  15
ATOM     15  C   UNL     1       2.415   7.503  19.655  0.00  0.00    +0.000 C 
BRANCH  15  16
ATOM     16  N   UNL     1       1.447   8.392  18.984  0.00  0.00    +0.000 NA
ATOM     17  C   UNL     1       2.070   9.242  17.966  0.00  0.00    +0.000 C 
ATOM     18  C   UNL     1       1.672  10.685  18.240  0.00  0.00    +0.000 C 
ATOM     19  C   UNL     1       0.595  10.643  19.332  0.00  0.00    +0.000 C 
ATOM     20  C   UNL     1      -0.822  10.810  18.739  0.00  0.00    +0.000 C 
ATOM     21  C   UNL     1      -1.086  12.254  18.290  0.00  0.00    +0.000 C 
ATOM     22  C   UNL     1      -0.747  13.264  19.386  0.00  0.00    +0.000 C 
ATOM     23  N   UNL     1       0.624  13.087  19.868  0.00  0.00    +0.000 NA
ATOM     24  C   UNL     1       0.820  11.737  20.398  0.00  0.00    +0.000 C 
ATOM     25  C   UNL     1       0.791   9.260  19.971  0.00  0.00    +0.000 C 
ATOM     26  H   UNL     1       0.811  13.767  20.603  0.00  0.00    +0.000 HD
ENDBRANCH  15  16
ENDBRANCH   3  15
TORSDOF 4
ENDMDL
MODEL 6
REMARK VINA RESULT:      -7.9      3.925      5.967
REMARK  Name = 
REMARK  4 active torsions:
REMARK  status: ('A' for Active; 'I' for Inactive)
REMARK    1  A    between atoms: C_2  and  C_5
REMARK    2  A    between atoms: C_7  and  C_8
REMARK    3  A    between atoms: C_8  and  N_9
REMARK    4  A    between atoms: C_20  and  C_21
REMARK                            x       y       z     vdW  Elec       q    Type
REMARK                         _______ _______ _______ _____ _____    ______ ____
ROOT
ATOM      1  C   UNL     1       2.638   3.888  18.190  0.00  0.00    +0.000 A 
ATOM      2  C   UNL     1       2.309   4.995  18.992  0.00  0.00    +0.000 A 
ATOM      3  C   UNL     1       2.930   6.242  18.801  0.00  0.00    +0.000 A 
ATOM      4  C   UNL     1       3.879   6.373  17.781  0.00  0.00    +0.000 A 
ATOM      5  C   UNL     1       4.239   5.281  16.979  0.00  0.00    +0.000 A 
ATOM      6  C   UNL     1       3.612   4.042  17.192  0.00  0.00    +0.000 A 
ENDROOT
BRANCH   1   8
ATOM      7  F   UNL     1       0.580   2.651  18.374  0.00  0.00    +0.000 F 
ATOM      8  C   UNL     1       1.939   2.559  18.367  0.00  0.00    +0.000 C 
ATOM      9  F   UNL     1       2.278   1.938  19.531  0.00  0.00    +0.000 F 
ATOM     10  F   UNL     1       2.245   1.679  17.373  0.00  0.00    +0.000 F 
ENDBRANCH   1   8
BRANCH   5  11
ATOM     11  C   UNL     1       5.263   5.439  15.881  0.00  0.00    +0.000 C 
ATOM     12  F   UNL     1       5.108   6.572  15.142  0.00  0.00    +0.000 F 
ATOM     13  F   UNL     1       6.537   5.476  16.361  0.00  0.00    +0.000 F 
ATOM     14  F   UNL     1       5.229   4.407  14.992  0.00  0.00    +0.000 F 
ENDBRANCH   5  11
BRANCH   3  15
ATOM     15  C   UNL     1       2.472   7.440  19.617  0.00  0.00    +0.000 C 
BRANCH  15  16
ATOM     16  N   UNL     1       1.482   8.315  18.962  0.00  0.00    +0.000 NA
ATOM     17  C   UNL     1       2.079   9.186  17.946  0.00  0.00    +0.000 C 
ATOM     18  C   UNL     1       1.655  10.618  18.235  0.00  0.00    +0.000 C 
ATOM     19  C   UNL     1       0.588  10.546  19.336  0.00  0.00    +0.000 C 
ATOM     20  C   UNL     1      -0.837  10.690  18.755  0.00  0.00    +0.000 C 
ATOM     21  C   UNL     1      -1.132  12.132  18.322  0.00  0.00    +0.000 C 
ATOM     22  C   UNL     1      -0.804  13.139  19.423  0.00  0.00    +0.000 C 
ATOM     23  N   UNL     1       0.575  12.986  19.892  0.00  0.00    +0.000 NA
ATOM     24  C   UNL     1       0.801  11.635  20.409  0.00  0.00    +0.000 C 
ATOM     25  C   UNL     1       0.817   9.162  19.962  0.00  0.00    +0.000 C 
ATOM     26  H   UNL     1       0.754  13.662  20.632  0.00  0.00    +0.000 HD
ENDBRANCH  15  16
ENDBRANCH   3  15
TORSDOF 4
ENDMDL
MODEL 7
REMARK VINA RESULT:      -7.9      3.897      6.022
REMARK  Name = 
REMARK  4 active torsions:
REMARK  status: ('A' for Active; 'I' for Inactive)
REMARK    1  A    between atoms: C_2  and  C_5
REMARK    2  A    between atoms: C_7  and  C_8
REMARK    3  A    between atoms: C_8  and  N_9
REMARK    4  A    between atoms: C_20  and  C_21
REMARK                            x       y       z     vdW  Elec       q    Type
REMARK                         _______ _______ _______ _____ _____    ______ ____
ROOT
ATOM      1  C   UNL     1       4.395   5.151  16.966  0.00  0.00    +0.000 A 
ATOM      2  C   UNL     1       3.981   6.284  17.688  0.00  0.00    +0.000 A 
ATOM      3  C   UNL     1       2.929   6.209  18.619  0.00  0.00    +0.000 A 
ATOM      4  C   UNL     1       2.302   4.977  18.829  0.00  0.00    +0.000 A 
ATOM      5  C   UNL     1       2.682   3.835  18.109  0.00  0.00    +0.000 A 
ATOM      6  C   UNL     1       3.730   3.934  17.179  0.00  0.00    +0.000 A 
ENDROOT
BRANCH   1   8
ATOM      7  F   UNL     1       5.263   5.880  14.840  0.00  0.00    +0.000 F 
ATOM      8  C   UNL     1       5.554   5.222  15.998  0.00  0.00    +0.000 C 
ATOM      9  F   UNL     1       6.002   3.991  15.624  0.00  0.00    +0.000 F 
ATOM     10  F   UNL     1       6.631   5.866  16.529  0.00  0.00    +0.000 F 
ENDBRANCH   1   8
BRANCH   5  11
ATOM     11  C   UNL     1       1.997   2.511  18.349  0.00  0.00    +0.000 C 
ATOM     12  F   UNL     1       2.327   1.928  19.535  0.00  0.00    +0.000 F 
ATOM     13  F   UNL     1       0.640   2.622  18.350  0.00  0.00    +0.000 F 
ATOM     14  F   UNL     1       2.297   1.595  17.387  0.00  0.00    +0.000 F 
ENDBRANCH   5  11
BRANCH   3  15
ATOM     15  C   UNL     1       2.581   7.430  19.455  0.00  0.00    +0.000 C 
BRANCH  15  16
ATOM     16  N   UNL     1       1.570   8.333  18.873  0.00  0.00    +0.000 NA
ATOM     17  C   UNL     1       2.131   9.238  17.867  0.00  0.00    +0.000 C 
ATOM     18  C   UNL     1       1.726  10.661  18.226  0.00  0.00    +0.000 C 
ATOM     19  C   UNL     1       0.703  10.551  19.365  0.00  0.00    +0.000 C 
ATOM     20  C   UNL     1      -0.742  10.722  18.847  0.00  0.00    +0.000 C 
ATOM     21  C   UNL     1      -1.048  12.180  18.479  0.00  0.00    +0.000 C 
ATOM     22  C   UNL     1      -0.671  13.145  19.604  0.00  0.00    +0.000 C 
ATOM     23  N   UNL     1       0.724  12.969  20.012  0.00  0.00    +0.000 NA
ATOM     24  C   UNL     1       0.964  11.599  20.469  0.00  0.00    +0.000 C 
ATOM     25  C   UNL     1       0.949   9.144  19.929  0.00  0.00    +0.000 C 
ATOM     26  H   UNL     1       0.937  13.616  20.768  0.00  0.00    +0.000 HD
ENDBRANCH  15  16
ENDBRANCH   3  15
TORSDOF 4
ENDMDL
MODEL 8
REMARK VINA RESULT:      -7.8      4.596      6.410
REMARK  Name = 
REMARK  4 active torsions:
REMARK  status: ('A' for Active; 'I' for Inactive)
REMARK    1  A    between atoms: C_2  and  C_5
REMARK    2  A    between atoms: C_7  and  C_8
REMARK    3  A    between atoms: C_8  and  N_9
REMARK    4  A    between atoms: C_20  and  C_21
REMARK                            x       y       z     vdW  Elec       q    Type
REMARK                         _______ _______ _______ _____ _____    ______ ____
ROOT
ATOM      1  C   UNL     1       2.453   5.849  19.434  0.00  0.00    +0.000 A 
ATOM      2  C   UNL     1       1.869   7.127  19.480  0.00  0.00    +0.000 A 
ATOM      3  C   UNL     1       2.260   8.138  18.583  0.00  0.00    +0.000 A 
ATOM      4  C   UNL     1       3.238   7.848  17.626  0.00  0.00    +0.000 A 
ATOM      5  C   UNL     1       3.850   6.588  17.570  0.00  0.00    +0.000 A 
ATOM      6  C   UNL     1       3.450   5.595  18.480  0.00  0.00    +0.000 A 
ENDROOT
BRANCH   1   8
ATOM      7  F   UNL     1       0.649   4.623  20.454  0.00  0.00    +0.000 F 
ATOM      8  C   UNL     1       2.003   4.750  20.370  0.00  0.00    +0.000 C 
ATOM      9  F   UNL     1       2.441   4.933  21.646  0.00  0.00    +0.000 F 
ATOM     10  F   UNL     1       2.466   3.526  19.988  0.00  0.00    +0.000 F 
ENDBRANCH   1   8
BRANCH   5  11
ATOM     11  C   UNL     1       4.902   6.289  16.529  0.00  0.00    +0.000 C 
ATOM     12  F   UNL     1       6.178   6.460  16.972  0.00  0.00    +0.000 F 
ATOM     13  F   UNL     1       4.831   5.008  16.072  0.00  0.00    +0.000 F 
ATOM     14  F   UNL     1       4.780   7.085  15.430  0.00  0.00    +0.000 F 
ENDBRANCH   5  11
BRANCH   3  15
ATOM     15  C   UNL     1       1.532   9.472  18.595  0.00  0.00    +0.000 C 
BRANCH  15  16
ATOM     16  N   UNL     1       0.524   9.637  19.660  0.00  0.00    +0.000 NA
ATOM     17  C   UNL     1      -0.757  10.138  19.156  0.00  0.00    +0.000 C 
ATOM     18  C   UNL     1      -1.155  11.350  19.985  0.00  0.00    +0.000 C 
ATOM     19  C   UNL     1      -0.171  11.420  21.160  0.00  0.00    +0.000 C 
ATOM     20  C   UNL     1      -0.797  10.858  22.457  0.00  0.00    +0.000 C 
ATOM     21  C   UNL     1      -1.841  11.814  23.048  0.00  0.00    +0.000 C 
ATOM     22  C   UNL     1      -1.301  13.237  23.183  0.00  0.00    +0.000 C 
ATOM     23  N   UNL     1      -0.773  13.731  21.910  0.00  0.00    +0.000 NA
ATOM     24  C   UNL     1       0.303  12.866  21.423  0.00  0.00    +0.000 C 
ATOM     25  C   UNL     1       1.016  10.573  20.680  0.00  0.00    +0.000 C 
ATOM     26  H   UNL     1      -0.412  14.674  22.040  0.00  0.00    +0.000 HD
ENDBRANCH  15  16
ENDBRANCH   3  15
TORSDOF 4
ENDMDL
MODEL 9
REMARK VINA RESULT:      -7.8      3.414      5.615
REMARK  Name = 
REMARK  4 active torsions:
REMARK  status: ('A' for Active; 'I' for Inactive)
REMARK    1  A    between atoms: C_2  and  C_5
REMARK    2  A    between atoms: C_7  and  C_8
REMARK    3  A    between atoms: C_8  and  N_9
REMARK    4  A    between atoms: C_20  and  C_21
REMARK                            x       y       z     vdW  Elec       q    Type
REMARK                         _______ _______ _______ _____ _____    ______ ____
ROOT
ATOM      1  C   UNL     1       4.119   3.896  19.361  0.00  0.00    +0.000 A 
ATOM      2  C   UNL     1       3.147   4.845  18.999  0.00  0.00    +0.000 A 
ATOM      3  C   UNL     1       3.497   6.022  18.313  0.00  0.00    +0.000 A 
ATOM      4  C   UNL     1       4.839   6.231  17.977  0.00  0.00    +0.000 A 
ATOM      5  C   UNL     1       5.832   5.311  18.342  0.00  0.00    +0.000 A 
ATOM      6  C   UNL     1       5.461   4.146  19.034  0.00  0.00    +0.000 A 
ENDROOT
BRANCH   1   8
ATOM      7  F   UNL     1       2.966   2.799  21.169  0.00  0.00    +0.000 F 
ATOM      8  C   UNL     1       3.736   2.612  20.060  0.00  0.00    +0.000 C 
ATOM      9  F   UNL     1       4.819   1.896  20.474  0.00  0.00    +0.000 F 
ATOM     10  F   UNL     1       3.025   1.777  19.252  0.00  0.00    +0.000 F 
ENDBRANCH   1   8
BRANCH   5  11
ATOM     11  C   UNL     1       7.276   5.550  17.971  0.00  0.00    +0.000 C 
ATOM     12  F   UNL     1       7.859   4.502  17.325  0.00  0.00    +0.000 F 
ATOM     13  F   UNL     1       7.430   6.628  17.152  0.00  0.00    +0.000 F 
ATOM     14  F   UNL     1       8.054   5.795  19.062  0.00  0.00    +0.000 F 
ENDBRANCH   5  11
BRANCH   3  15
ATOM     15  C   UNL     1       2.406   6.971  17.847  0.00  0.00    +0.000 C 
BRANCH  15  16
ATOM     16  N   UNL     1       2.365   8.278  18.532  0.00  0.00    +0.000 NA
ATOM     17  C   UNL     1       1.863   8.183  19.905  0.00  0.00    +0.000 C 
ATOM     18  C   UNL     1       0.740   9.196  20.074  0.00  0.00    +0.000 C 
ATOM     19  C   UNL     1       0.741  10.066  18.810  0.00  0.00    +0.000 C 
ATOM     20  C   UNL     1       1.432  11.425  19.058  0.00  0.00    +0.000 C 
ATOM     21  C   UNL     1       0.563  12.359  19.911  0.00  0.00    +0.000 C 
ATOM     22  C   UNL     1      -0.860  12.475  19.365  0.00  0.00    +0.000 C 
ATOM     23  N   UNL     1      -1.477  11.157  19.204  0.00  0.00    +0.000 NA
ATOM     24  C   UNL     1      -0.692  10.322  18.293  0.00  0.00    +0.000 C 
ATOM     25  C   UNL     1       1.505   9.209  17.790  0.00  0.00    +0.000 C 
ATOM     26  H   UNL     1      -2.417  11.271  18.828  0.00  0.00    +0.000 HD
ENDBRANCH  15  16
ENDBRANCH   3  15
TORSDOF 4
ENDMDL
