MODEL 1
REMARK VINA RESULT:      -8.1      0.000      0.000
REMARK  Name = 
REMARK  8 active torsions:
REMARK  status: ('A' for Active; 'I' for Inactive)
REMARK    1  A    between atoms: C_1  and  O_2
REMARK    2  A    between atoms: O_2  and  C_3
REMARK    3  A    between atoms: C_12  and  C_13
REMARK    4  A    between atoms: N_15  and  C_16
REMARK    5  A    between atoms: C_20  and  C_21
REMARK    6  A    between atoms: N_26  and  C_27
REMARK    7  A    between atoms: C_27  and  C_28
REMARK    8  A    between atoms: C_27  and  C_29
REMARK                            x       y       z     vdW  Elec       q    Type
REMARK                         _______ _______ _______ _____ _____    ______ ____
ROOT
ATOM      1  C   UNL     1       0.332   9.670  20.034  0.00  0.00    +0.000 A 
ATOM      2  S   UNL     1      -0.473  10.629  18.903  0.00  0.00    +0.000 S 
ATOM      3  C   UNL     1      -1.175  11.643  19.996  0.00  0.00    +0.000 A 
ATOM      4  C   UNL     1      -0.851  11.250  21.287  0.00  0.00    +0.000 A 
ATOM      5  C   UNL     1       0.064  10.163  21.340  0.00  0.00    +0.000 A 
ATOM      6  C   UNL     1      -1.458  11.980  22.460  0.00  0.00    +0.000 C 
ATOM      7  C   UNL     1      -2.618  12.884  21.973  0.00  0.00    +0.000 C 
ATOM      8  N   UNL     1      -2.224  13.723  20.812  0.00  0.00    +0.000 NA
ATOM      9  C   UNL     1      -2.022  12.826  19.643  0.00  0.00    +0.000 C 
ENDROOT
BRANCH   5  10
ATOM     10  C   UNL     1       0.619   9.636  22.636  0.00  0.00    +0.000 C 
ATOM     11  N   UNL     1      -0.169   9.273  23.679  0.00  0.00    +0.000 N 
ATOM     12  O   UNL     1       1.823   9.453  22.738  0.00  0.00    +0.000 OA
ATOM     13  H   UNL     1      -1.194   9.279  23.632  0.00  0.00    +0.000 HD
ATOM     14  H   UNL     1       0.257   8.891  24.538  0.00  0.00    +0.000 HD
ENDBRANCH   5  10
BRANCH   1  17
ATOM     15  C   UNL     1       2.015   8.423  18.716  0.00  0.00    +0.000 C 
ATOM     16  O   UNL     1       2.279   9.431  18.077  0.00  0.00    +0.000 OA
ATOM     17  N   UNL     1       1.067   8.488  19.705  0.00  0.00    +0.000 N 
ATOM     18  H   UNL     1       0.810   7.652  20.211  0.00  0.00    +0.000 HD
BRANCH  15  28
ATOM     19  C   UNL     1       2.750   5.934  19.070  0.00  0.00    +0.000 A 
ATOM     20  C   UNL     1       3.578   4.870  18.648  0.00  0.00    +0.000 A 
ATOM     21  C   UNL     1       4.422   5.006  17.542  0.00  0.00    +0.000 A 
ATOM     22  C   UNL     1       5.249   3.950  17.131  0.00  0.00    +0.000 A 
ATOM     23  C   UNL     1       6.080   4.098  16.017  0.00  0.00    +0.000 A 
ATOM     24  C   UNL     1       6.094   5.303  15.303  0.00  0.00    +0.000 A 
ATOM     25  C   UNL     1       5.280   6.356  15.707  0.00  0.00    +0.000 A 
ATOM     26  C   UNL     1       4.447   6.218  16.827  0.00  0.00    +0.000 A 
ATOM     27  C   UNL     1       3.644   7.278  17.241  0.00  0.00    +0.000 A 
ATOM     28  C   UNL     1       2.793   7.175  18.364  0.00  0.00    +0.000 A 
BRANCH  19  30
ATOM     29  C   UNL     1       1.470   4.598  20.685  0.00  0.00    +0.000 C 
ATOM     30  O   UNL     1       1.921   5.777  20.130  0.00  0.00    +0.000 OA
ENDBRANCH  19  30
ENDBRANCH  15  28
ENDBRANCH   1  17
BRANCH   8  31
ATOM     31  C   UNL     1      -1.069  14.635  21.112  0.00  0.00    +0.000 C 
ATOM     32  C   UNL     1      -0.528  15.353  19.857  0.00  0.00    +0.000 C 
ATOM     33  C   UNL     1      -1.492  15.729  22.113  0.00  0.00    +0.000 C 
ENDBRANCH   8  31
TORSDOF 5
ENDMDL
MODEL 2
REMARK VINA RESULT:      -8.0      1.504      2.596
REMARK  Name = 
REMARK  8 active torsions:
REMARK  status: ('A' for Active; 'I' for Inactive)
REMARK    1  A    between atoms: C_1  and  O_2
REMARK    2  A    between atoms: O_2  and  C_3
REMARK    3  A    between atoms: C_12  and  C_13
REMARK    4  A    between atoms: N_15  and  C_16
REMARK    5  A    between atoms: C_20  and  C_21
REMARK    6  A    between atoms: N_26  and  C_27
REMARK    7  A    between atoms: C_27  and  C_28
REMARK    8  A    between atoms: C_27  and  C_29
REMARK                            x       y       z     vdW  Elec       q    Type
REMARK                         _______ _______ _______ _____ _____    ______ ____
ROOT
ATOM      1  C   UNL     1       0.164   9.651  20.379  0.00  0.00    +0.000 A 
ATOM      2  S   UNL     1       0.442  10.450  21.840  0.00  0.00    +0.000 S 
ATOM      3  C   UNL     1      -0.571  11.716  21.545  0.00  0.00    +0.000 A 
ATOM      4  C   UNL     1      -1.132  11.594  20.282  0.00  0.00    +0.000 A 
ATOM      5  C   UNL     1      -0.781  10.388  19.616  0.00  0.00    +0.000 A 
ATOM      6  C   UNL     1      -2.028  12.690  19.757  0.00  0.00    +0.000 C 
ATOM      7  C   UNL     1      -1.904  13.945  20.658  0.00  0.00    +0.000 C 
ATOM      8  N   UNL     1      -2.048  13.615  22.100  0.00  0.00    +0.000 NA
ATOM      9  C   UNL     1      -0.858  12.823  22.512  0.00  0.00    +0.000 C 
ENDROOT
BRANCH   5  10
ATOM     10  C   UNL     1      -1.349  10.010  18.274  0.00  0.00    +0.000 C 
ATOM     11  N   UNL     1      -0.597   9.958  17.146  0.00  0.00    +0.000 N 
ATOM     12  O   UNL     1      -2.518   9.663  18.198  0.00  0.00    +0.000 OA
ATOM     13  H   UNL     1       0.418  10.115  17.145  0.00  0.00    +0.000 HD
ATOM     14  H   UNL     1      -1.026   9.667  16.254  0.00  0.00    +0.000 HD
ENDBRANCH   5  10
BRANCH   1  17
ATOM     15  C   UNL     1       1.861   8.476  19.013  0.00  0.00    +0.000 C 
ATOM     16  O   UNL     1       2.193   9.533  18.496  0.00  0.00    +0.000 OA
ATOM     17  N   UNL     1       0.869   8.479  19.960  0.00  0.00    +0.000 N 
ATOM     18  H   UNL     1       0.556   7.607  20.364  0.00  0.00    +0.000 HD
BRANCH  15  28
ATOM     19  C   UNL     1       2.511   5.944  19.159  0.00  0.00    +0.000 A 
ATOM     20  C   UNL     1       3.315   4.894  18.660  0.00  0.00    +0.000 A 
ATOM     21  C   UNL     1       4.186   5.099  17.586  0.00  0.00    +0.000 A 
ATOM     22  C   UNL     1       4.989   4.057  17.098  0.00  0.00    +0.000 A 
ATOM     23  C   UNL     1       5.847   4.275  16.017  0.00  0.00    +0.000 A 
ATOM     24  C   UNL     1       5.913   5.538  15.413  0.00  0.00    +0.000 A 
ATOM     25  C   UNL     1       5.124   6.577  15.894  0.00  0.00    +0.000 A 
ATOM     26  C   UNL     1       4.263   6.368  16.982  0.00  0.00    +0.000 A 
ATOM     27  C   UNL     1       3.484   7.413  17.473  0.00  0.00    +0.000 A 
ATOM     28  C   UNL     1       2.607   7.240  18.566  0.00  0.00    +0.000 A 
BRANCH  19  30
ATOM     29  C   UNL     1       1.402   4.530  20.834  0.00  0.00    +0.000 C 
ATOM     30  O   UNL     1       1.655   5.721  20.186  0.00  0.00    +0.000 OA
ENDBRANCH  19  30
ENDBRANCH  15  28
ENDBRANCH   1  17
BRANCH   8  31
ATOM     31  C   UNL     1      -3.370  12.981  22.428  0.00  0.00    +0.000 C 
ATOM     32  C   UNL     1      -3.387  12.311  23.819  0.00  0.00    +0.000 C 
ATOM     33  C   UNL     1      -4.491  14.039  22.422  0.00  0.00    +0.000 C 
ENDBRANCH   8  31
TORSDOF 5
ENDMDL
MODEL 3
REMARK VINA RESULT:      -7.9      1.044      1.070
REMARK  Name = 
REMARK  8 active torsions:
REMARK  status: ('A' for Active; 'I' for Inactive)
REMARK    1  A    between atoms: C_1  and  O_2
REMARK    2  A    between atoms: O_2  and  C_3
REMARK    3  A    between atoms: C_12  and  C_13
REMARK    4  A    between atoms: N_15  and  C_16
REMARK    5  A    between atoms: C_20  and  C_21
REMARK    6  A    between atoms: N_26  and  C_27
REMARK    7  A    between atoms: C_27  and  C_28
REMARK    8  A    between atoms: C_27  and  C_29
REMARK                            x       y       z     vdW  Elec       q    Type
REMARK                         _______ _______ _______ _____ _____    ______ ____
ROOT
ATOM      1  C   UNL     1       1.013   9.949  20.105  0.00  0.00    +0.000 A 
ATOM      2  S   UNL     1       1.155  11.383  19.225  0.00  0.00    +0.000 S 
ATOM      3  C   UNL     1       0.033  12.231  20.085  0.00  0.00    +0.000 A 
ATOM      4  C   UNL     1      -0.531  11.422  21.061  0.00  0.00    +0.000 A 
ATOM      5  C   UNL     1       0.056  10.129  21.140  0.00  0.00    +0.000 A 
ATOM      6  C   UNL     1      -1.653  11.961  21.915  0.00  0.00    +0.000 C 
ATOM      7  C   UNL     1      -2.187  13.282  21.308  0.00  0.00    +0.000 C 
ATOM      8  N   UNL     1      -1.092  14.234  20.989  0.00  0.00    +0.000 NA
ATOM      9  C   UNL     1      -0.309  13.671  19.856  0.00  0.00    +0.000 C 
ENDROOT
BRANCH   5  10
ATOM     10  C   UNL     1      -0.343   9.123  22.186  0.00  0.00    +0.000 C 
ATOM     11  N   UNL     1      -0.305   9.392  23.516  0.00  0.00    +0.000 N 
ATOM     12  O   UNL     1      -0.790   8.043  21.834  0.00  0.00    +0.000 OA
ATOM     13  H   UNL     1      -0.059  10.315  23.891  0.00  0.00    +0.000 HD
ATOM     14  H   UNL     1      -0.614   8.678  24.194  0.00  0.00    +0.000 HD
ENDBRANCH   5  10
BRANCH   1  17
ATOM     15  C   UNL     1       2.117   8.420  18.503  0.00  0.00    +0.000 C 
ATOM     16  O   UNL     1       1.952   9.228  17.600  0.00  0.00    +0.000 OA
ATOM     17  N   UNL     1       1.681   8.731  19.765  0.00  0.00    +0.000 N 
ATOM     18  H   UNL     1       1.771   8.055  20.510  0.00  0.00    +0.000 HD
BRANCH  15  28
ATOM     19  C   UNL     1       2.665   5.877  18.802  0.00  0.00    +0.000 A 
ATOM     20  C   UNL     1       3.435   4.771  18.377  0.00  0.00    +0.000 A 
ATOM     21  C   UNL     1       4.332   4.881  17.310  0.00  0.00    +0.000 A 
ATOM     22  C   UNL     1       5.101   3.784  16.896  0.00  0.00    +0.000 A 
ATOM     23  C   UNL     1       5.985   3.908  15.821  0.00  0.00    +0.000 A 
ATOM     24  C   UNL     1       6.111   5.131  15.149  0.00  0.00    +0.000 A 
ATOM     25  C   UNL     1       5.354   6.225  15.556  0.00  0.00    +0.000 A 
ATOM     26  C   UNL     1       4.468   6.110  16.638  0.00  0.00    +0.000 A 
ATOM     27  C   UNL     1       3.723   7.210  17.055  0.00  0.00    +0.000 A 
ATOM     28  C   UNL     1       2.821   7.132  18.140  0.00  0.00    +0.000 A 
BRANCH  19  30
ATOM     29  C   UNL     1       1.640   4.677  20.685  0.00  0.00    +0.000 C 
ATOM     30  O   UNL     1       1.784   5.745  19.823  0.00  0.00    +0.000 OA
ENDBRANCH  19  30
ENDBRANCH  15  28
ENDBRANCH   1  17
BRANCH   8  31
ATOM     31  C   UNL     1      -0.276  14.615  22.190  0.00  0.00    +0.000 C 
ATOM     32  C   UNL     1       1.003  15.399  21.825  0.00  0.00    +0.000 C 
ATOM     33  C   UNL     1      -1.099  15.509  23.139  0.00  0.00    +0.000 C 
ENDBRANCH   8  31
TORSDOF 5
ENDMDL
MODEL 4
REMARK VINA RESULT:      -7.6      1.632      2.590
REMARK  Name = 
REMARK  8 active torsions:
REMARK  status: ('A' for Active; 'I' for Inactive)
REMARK    1  A    between atoms: C_1  and  O_2
REMARK    2  A    between atoms: O_2  and  C_3
REMARK    3  A    between atoms: C_12  and  C_13
REMARK    4  A    between atoms: N_15  and  C_16
REMARK    5  A    between atoms: C_20  and  C_21
REMARK    6  A    between atoms: N_26  and  C_27
REMARK    7  A    between atoms: C_27  and  C_28
REMARK    8  A    between atoms: C_27  and  C_29
REMARK                            x       y       z     vdW  Elec       q    Type
REMARK                         _______ _______ _______ _____ _____    ______ ____
ROOT
ATOM      1  C   UNL     1       0.639   9.921  20.102  0.00  0.00    +0.000 A 
ATOM      2  S   UNL     1      -0.192   9.672  21.550  0.00  0.00    +0.000 S 
ATOM      3  C   UNL     1      -0.446  11.266  21.886  0.00  0.00    +0.000 A 
ATOM      4  C   UNL     1       0.143  12.058  20.911  0.00  0.00    +0.000 A 
ATOM      5  C   UNL     1       0.716  11.316  19.842  0.00  0.00    +0.000 A 
ATOM      6  C   UNL     1       0.118  13.560  21.059  0.00  0.00    +0.000 C 
ATOM      7  C   UNL     1      -0.326  13.939  22.495  0.00  0.00    +0.000 C 
ATOM      8  N   UNL     1      -1.558  13.218  22.907  0.00  0.00    +0.000 NA
ATOM      9  C   UNL     1      -1.220  11.778  23.061  0.00  0.00    +0.000 C 
ENDROOT
BRANCH   5  10
ATOM     10  C   UNL     1       1.328  11.977  18.636  0.00  0.00    +0.000 C 
ATOM     11  N   UNL     1       0.693  12.945  17.927  0.00  0.00    +0.000 N 
ATOM     12  O   UNL     1       2.472  11.693  18.317  0.00  0.00    +0.000 OA
ATOM     13  H   UNL     1      -0.219  13.328  18.200  0.00  0.00    +0.000 HD
ATOM     14  H   UNL     1       1.165  13.387  17.123  0.00  0.00    +0.000 HD
ENDBRANCH   5  10
BRANCH   1  17
ATOM     15  C   UNL     1       1.817   7.755  19.890  0.00  0.00    +0.000 C 
ATOM     16  O   UNL     1       1.786   7.606  21.103  0.00  0.00    +0.000 OA
ATOM     17  N   UNL     1       1.253   8.878  19.341  0.00  0.00    +0.000 N 
ATOM     18  H   UNL     1       1.309   9.033  18.344  0.00  0.00    +0.000 HD
BRANCH  15  28
ATOM     19  C   UNL     1       2.268   5.249  19.276  0.00  0.00    +0.000 A 
ATOM     20  C   UNL     1       2.992   4.335  18.479  0.00  0.00    +0.000 A 
ATOM     21  C   UNL     1       3.884   4.779  17.499  0.00  0.00    +0.000 A 
ATOM     22  C   UNL     1       4.607   3.869  16.714  0.00  0.00    +0.000 A 
ATOM     23  C   UNL     1       5.487   4.328  15.730  0.00  0.00    +0.000 A 
ATOM     24  C   UNL     1       5.655   5.704  15.522  0.00  0.00    +0.000 A 
ATOM     25  C   UNL     1       4.945   6.612  16.299  0.00  0.00    +0.000 A 
ATOM     26  C   UNL     1       4.063   6.159  17.292  0.00  0.00    +0.000 A 
ATOM     27  C   UNL     1       3.364   7.070  18.080  0.00  0.00    +0.000 A 
ATOM     28  C   UNL     1       2.468   6.651  19.088  0.00  0.00    +0.000 A 
BRANCH  19  30
ATOM     29  C   UNL     1       1.384   3.578  20.845  0.00  0.00    +0.000 C 
ATOM     30  O   UNL     1       1.390   4.800  20.206  0.00  0.00    +0.000 OA
ENDBRANCH  19  30
ENDBRANCH  15  28
ENDBRANCH   1  17
BRANCH   8  31
ATOM     31  C   UNL     1      -2.730  13.497  22.010  0.00  0.00    +0.000 C 
ATOM     32  C   UNL     1      -3.994  12.704  22.407  0.00  0.00    +0.000 C 
ATOM     33  C   UNL     1      -3.101  14.993  22.057  0.00  0.00    +0.000 C 
ENDBRANCH   8  31
TORSDOF 5
ENDMDL
MODEL 5
REMARK VINA RESULT:      -7.5      2.649      4.820
REMARK  Name = 
REMARK  8 active torsions:
REMARK  status: ('A' for Active; 'I' for Inactive)
REMARK    1  A    between atoms: C_1  and  O_2
REMARK    2  A    between atoms: O_2  and  C_3
REMARK    3  A    between atoms: C_12  and  C_13
REMARK    4  A    between atoms: N_15  and  C_16
REMARK    5  A    between atoms: C_20  and  C_21
REMARK    6  A    between atoms: N_26  and  C_27
REMARK    7  A    between atoms: C_27  and  C_28
REMARK    8  A    between atoms: C_27  and  C_29
REMARK                            x       y       z     vdW  Elec       q    Type
REMARK                         _______ _______ _______ _____ _____    ______ ____
ROOT
ATOM      1  C   UNL     1      -1.029  12.492  22.015  0.00  0.00    +0.000 A 
ATOM      2  S   UNL     1      -2.388  12.113  22.941  0.00  0.00    +0.000 S 
ATOM      3  C   UNL     1      -2.382  13.494  23.840  0.00  0.00    +0.000 A 
ATOM      4  C   UNL     1      -1.297  14.286  23.490  0.00  0.00    +0.000 A 
ATOM      5  C   UNL     1      -0.541  13.769  22.402  0.00  0.00    +0.000 A 
ATOM      6  C   UNL     1      -1.035  15.564  24.248  0.00  0.00    +0.000 C 
ATOM      7  C   UNL     1      -1.901  15.600  25.533  0.00  0.00    +0.000 C 
ATOM      8  N   UNL     1      -3.325  15.282  25.256  0.00  0.00    +0.000 NA
ATOM      9  C   UNL     1      -3.410  13.849  24.868  0.00  0.00    +0.000 C 
ENDROOT
BRANCH   5  10
ATOM     10  C   UNL     1       0.623  14.511  21.802  0.00  0.00    +0.000 C 
ATOM     11  N   UNL     1       0.468  15.537  20.926  0.00  0.00    +0.000 N 
ATOM     12  O   UNL     1       1.756  14.238  22.167  0.00  0.00    +0.000 OA
ATOM     13  H   UNL     1      -0.451  15.909  20.662  0.00  0.00    +0.000 HD
ATOM     14  H   UNL     1       1.296  16.032  20.563  0.00  0.00    +0.000 HD
ENDBRANCH   5  10
BRANCH   1  17
ATOM     15  C   UNL     1       0.364  10.531  21.429  0.00  0.00    +0.000 C 
ATOM     16  O   UNL     1       0.557  10.300  22.614  0.00  0.00    +0.000 OA
ATOM     17  N   UNL     1      -0.423  11.598  21.077  0.00  0.00    +0.000 N 
ATOM     18  H   UNL     1      -0.556  11.825  20.102  0.00  0.00    +0.000 HD
BRANCH  15  28
ATOM     19  C   UNL     1       1.380   9.903  19.099  0.00  0.00    +0.000 A 
ATOM     20  C   UNL     1       1.925   8.892  18.276  0.00  0.00    +0.000 A 
ATOM     21  C   UNL     1       2.122   7.595  18.758  0.00  0.00    +0.000 A 
ATOM     22  C   UNL     1       2.656   6.592  17.936  0.00  0.00    +0.000 A 
ATOM     23  C   UNL     1       2.857   5.302  18.436  0.00  0.00    +0.000 A 
ATOM     24  C   UNL     1       2.525   5.002  19.764  0.00  0.00    +0.000 A 
ATOM     25  C   UNL     1       1.990   5.990  20.583  0.00  0.00    +0.000 A 
ATOM     26  C   UNL     1       1.781   7.286  20.088  0.00  0.00    +0.000 A 
ATOM     27  C   UNL     1       1.232   8.271  20.905  0.00  0.00    +0.000 A 
ATOM     28  C   UNL     1       1.006   9.585  20.440  0.00  0.00    +0.000 A 
BRANCH  19  30
ATOM     29  C   UNL     1       2.194  12.093  18.342  0.00  0.00    +0.000 C 
ATOM     30  O   UNL     1       1.217  11.161  18.621  0.00  0.00    +0.000 OA
ENDBRANCH  19  30
ENDBRANCH  15  28
ENDBRANCH   1  17
BRANCH   8  31
ATOM     31  C   UNL     1      -3.962  16.235  24.286  0.00  0.00    +0.000 C 
ATOM     32  C   UNL     1      -5.346  15.759  23.794  0.00  0.00    +0.000 C 
ATOM     33  C   UNL     1      -4.166  17.616  24.942  0.00  0.00    +0.000 C 
ENDBRANCH   8  31
TORSDOF 5
ENDMDL
MODEL 6
REMARK VINA RESULT:      -7.5      1.601      2.666
REMARK  Name = 
REMARK  8 active torsions:
REMARK  status: ('A' for Active; 'I' for Inactive)
REMARK    1  A    between atoms: C_1  and  O_2
REMARK    2  A    between atoms: O_2  and  C_3
REMARK    3  A    between atoms: C_12  and  C_13
REMARK    4  A    between atoms: N_15  and  C_16
REMARK    5  A    between atoms: C_20  and  C_21
REMARK    6  A    between atoms: N_26  and  C_27
REMARK    7  A    between atoms: C_27  and  C_28
REMARK    8  A    between atoms: C_27  and  C_29
REMARK                            x       y       z     vdW  Elec       q    Type
REMARK                         _______ _______ _______ _____ _____    ______ ____
ROOT
ATOM      1  C   UNL     1       0.969   9.696  19.720  0.00  0.00    +0.000 A 
ATOM      2  S   UNL     1       0.647  10.756  18.446  0.00  0.00    +0.000 S 
ATOM      3  C   UNL     1      -0.084  11.917  19.361  0.00  0.00    +0.000 A 
ATOM      4  C   UNL     1      -0.150  11.508  20.685  0.00  0.00    +0.000 A 
ATOM      5  C   UNL     1       0.504  10.270  20.934  0.00  0.00    +0.000 A 
ATOM      6  C   UNL     1      -0.863  12.374  21.696  0.00  0.00    +0.000 C 
ATOM      7  C   UNL     1      -1.684  13.466  20.964  0.00  0.00    +0.000 C 
ATOM      8  N   UNL     1      -0.878  14.181  19.942  0.00  0.00    +0.000 NA
ATOM      9  C   UNL     1      -0.584  13.227  18.838  0.00  0.00    +0.000 C 
ENDROOT
BRANCH   5  10
ATOM     10  C   UNL     1       0.631   9.686  22.315  0.00  0.00    +0.000 C 
ATOM     11  N   UNL     1      -0.443   9.328  23.064  0.00  0.00    +0.000 N 
ATOM     12  O   UNL     1       1.743   9.451  22.762  0.00  0.00    +0.000 OA
ATOM     13  H   UNL     1      -1.407   9.378  22.715  0.00  0.00    +0.000 HD
ATOM     14  H   UNL     1      -0.304   8.906  23.995  0.00  0.00    +0.000 HD
ENDBRANCH   5  10
BRANCH   1  17
ATOM     15  C   UNL     1       2.195   7.975  18.432  0.00  0.00    +0.000 C 
ATOM     16  O   UNL     1       2.363   8.765  17.514  0.00  0.00    +0.000 OA
ATOM     17  N   UNL     1       1.522   8.388  19.553  0.00  0.00    +0.000 N 
ATOM     18  H   UNL     1       1.339   7.733  20.300  0.00  0.00    +0.000 HD
BRANCH  15  28
ATOM     19  C   UNL     1       4.067   6.290  17.714  0.00  0.00    +0.000 A 
ATOM     20  C   UNL     1       4.453   4.940  17.559  0.00  0.00    +0.000 A 
ATOM     21  C   UNL     1       3.603   3.898  17.939  0.00  0.00    +0.000 A 
ATOM     22  C   UNL     1       3.985   2.558  17.776  0.00  0.00    +0.000 A 
ATOM     23  C   UNL     1       3.128   1.527  18.171  0.00  0.00    +0.000 A 
ATOM     24  C   UNL     1       1.879   1.825  18.733  0.00  0.00    +0.000 A 
ATOM     25  C   UNL     1       1.491   3.151  18.893  0.00  0.00    +0.000 A 
ATOM     26  C   UNL     1       2.344   4.192  18.495  0.00  0.00    +0.000 A 
ATOM     27  C   UNL     1       1.948   5.519  18.642  0.00  0.00    +0.000 A 
ATOM     28  C   UNL     1       2.779   6.592  18.251  0.00  0.00    +0.000 A 
BRANCH  19  30
ATOM     29  C   UNL     1       6.278   7.215  17.173  0.00  0.00    +0.000 C 
ATOM     30  O   UNL     1       4.914   7.288  17.360  0.00  0.00    +0.000 OA
ENDBRANCH  19  30
ENDBRANCH  15  28
ENDBRANCH   1  17
BRANCH   8  31
ATOM     31  C   UNL     1       0.328  14.866  20.517  0.00  0.00    +0.000 C 
ATOM     32  C   UNL     1       1.297  15.390  19.436  0.00  0.00    +0.000 C 
ATOM     33  C   UNL     1      -0.098  16.079  21.369  0.00  0.00    +0.000 C 
ENDBRANCH   8  31
TORSDOF 5
ENDMDL
MODEL 7
REMARK VINA RESULT:      -7.3      2.279      4.104
REMARK  Name = 
REMARK  8 active torsions:
REMARK  status: ('A' for Active; 'I' for Inactive)
REMARK    1  A    between atoms: C_1  and  O_2
REMARK    2  A    between atoms: O_2  and  C_3
REMARK    3  A    between atoms: C_12  and  C_13
REMARK    4  A    between atoms: N_15  and  C_16
REMARK    5  A    between atoms: C_20  and  C_21
REMARK    6  A    between atoms: N_26  and  C_27
REMARK    7  A    between atoms: C_27  and  C_28
REMARK    8  A    between atoms: C_27  and  C_29
REMARK                            x       y       z     vdW  Elec       q    Type
REMARK                         _______ _______ _______ _____ _____    ______ ____
ROOT
ATOM      1  C   UNL     1      -0.361  10.756  20.917  0.00  0.00    +0.000 A 
ATOM      2  S   UNL     1      -0.411  11.308  22.512  0.00  0.00    +0.000 S 
ATOM      3  C   UNL     1      -1.504  12.514  22.249  0.00  0.00    +0.000 A 
ATOM      4  C   UNL     1      -1.840  12.567  20.904  0.00  0.00    +0.000 A 
ATOM      5  C   UNL     1      -1.252  11.532  20.127  0.00  0.00    +0.000 A 
ATOM      6  C   UNL     1      -2.761  13.657  20.411  0.00  0.00    +0.000 C 
ATOM      7  C   UNL     1      -2.926  14.740  21.507  0.00  0.00    +0.000 C 
ATOM      8  N   UNL     1      -3.258  14.151  22.830  0.00  0.00    +0.000 NA
ATOM      9  C   UNL     1      -2.065  13.405  23.313  0.00  0.00    +0.000 C 
ENDROOT
BRANCH   5  10
ATOM     10  C   UNL     1      -1.554  11.348  18.664  0.00  0.00    +0.000 C 
ATOM     11  N   UNL     1      -1.439  12.353  17.758  0.00  0.00    +0.000 N 
ATOM     12  O   UNL     1      -1.842  10.236  18.250  0.00  0.00    +0.000 OA
ATOM     13  H   UNL     1      -1.085  13.285  18.002  0.00  0.00    +0.000 HD
ATOM     14  H   UNL     1      -1.631  12.171  16.761  0.00  0.00    +0.000 HD
ENDBRANCH   5  10
BRANCH   1  17
ATOM     15  C   UNL     1       0.491   8.434  20.856  0.00  0.00    +0.000 C 
ATOM     16  O   UNL     1      -0.366   8.086  21.656  0.00  0.00    +0.000 OA
ATOM     17  N   UNL     1       0.531   9.742  20.448  0.00  0.00    +0.000 N 
ATOM     18  H   UNL     1       1.260  10.052  19.821  0.00  0.00    +0.000 HD
BRANCH  15  28
ATOM     19  C   UNL     1       2.349   7.483  19.275  0.00  0.00    +0.000 A 
ATOM     20  C   UNL     1       3.131   6.368  18.898  0.00  0.00    +0.000 A 
ATOM     21  C   UNL     1       3.037   5.155  19.585  0.00  0.00    +0.000 A 
ATOM     22  C   UNL     1       3.808   4.047  19.204  0.00  0.00    +0.000 A 
ATOM     23  C   UNL     1       3.710   2.843  19.907  0.00  0.00    +0.000 A 
ATOM     24  C   UNL     1       2.839   2.734  20.999  0.00  0.00    +0.000 A 
ATOM     25  C   UNL     1       2.067   3.827  21.380  0.00  0.00    +0.000 A 
ATOM     26  C   UNL     1       2.156   5.037  20.677  0.00  0.00    +0.000 A 
ATOM     27  C   UNL     1       1.371   6.126  21.049  0.00  0.00    +0.000 A 
ATOM     28  C   UNL     1       1.434   7.359  20.364  0.00  0.00    +0.000 A 
BRANCH  19  30
ATOM     29  C   UNL     1       1.774   9.080  17.499  0.00  0.00    +0.000 C 
ATOM     30  O   UNL     1       2.471   8.659  18.612  0.00  0.00    +0.000 OA
ENDBRANCH  19  30
ENDBRANCH  15  28
ENDBRANCH   1  17
BRANCH   8  31
ATOM     31  C   UNL     1      -4.533  13.358  22.817  0.00  0.00    +0.000 C 
ATOM     32  C   UNL     1      -4.841  12.690  24.175  0.00  0.00    +0.000 C 
ATOM     33  C   UNL     1      -5.730  14.268  22.478  0.00  0.00    +0.000 C 
ENDBRANCH   8  31
TORSDOF 5
ENDMDL
MODEL 8
REMARK VINA RESULT:      -7.3      2.298      3.887
REMARK  Name = 
REMARK  8 active torsions:
REMARK  status: ('A' for Active; 'I' for Inactive)
REMARK    1  A    between atoms: C_1  and  O_2
REMARK    2  A    between atoms: O_2  and  C_3
REMARK    3  A    between atoms: C_12  and  C_13
REMARK    4  A    between atoms: N_15  and  C_16
REMARK    5  A    between atoms: C_20  and  C_21
REMARK    6  A    between atoms: N_26  and  C_27
REMARK    7  A    between atoms: C_27  and  C_28
REMARK    8  A    between atoms: C_27  and  C_29
REMARK                            x       y       z     vdW  Elec       q    Type
REMARK                         _______ _______ _______ _____ _____    ______ ____
ROOT
ATOM      1  C   UNL     1      -0.033  10.753  20.956  0.00  0.00    +0.000 A 
ATOM      2  S   UNL     1      -0.917  10.818  22.392  0.00  0.00    +0.000 S 
ATOM      3  C   UNL     1      -0.878  12.458  22.551  0.00  0.00    +0.000 A 
ATOM      4  C   UNL     1      -0.138  13.019  21.520  0.00  0.00    +0.000 A 
ATOM      5  C   UNL     1       0.303  12.074  20.554  0.00  0.00    +0.000 A 
ATOM      6  C   UNL     1       0.111  14.508  21.509  0.00  0.00    +0.000 C 
ATOM      7  C   UNL     1      -0.276  15.115  22.881  0.00  0.00    +0.000 C 
ATOM      8  N   UNL     1      -1.625  14.680  23.324  0.00  0.00    +0.000 NA
ATOM      9  C   UNL     1      -1.560  13.227  23.639  0.00  0.00    +0.000 C 
ENDROOT
BRANCH   5  10
ATOM     10  C   UNL     1       1.044  12.478  19.308  0.00  0.00    +0.000 C 
ATOM     11  N   UNL     1       0.423  12.691  18.120  0.00  0.00    +0.000 N 
ATOM     12  O   UNL     1       2.244  12.698  19.372  0.00  0.00    +0.000 OA
ATOM     13  H   UNL     1      -0.597  12.647  18.009  0.00  0.00    +0.000 HD
ATOM     14  H   UNL     1       0.970  12.993  17.300  0.00  0.00    +0.000 HD
ENDBRANCH   5  10
BRANCH   1  17
ATOM     15  C   UNL     1       1.279   8.656  20.884  0.00  0.00    +0.000 C 
ATOM     16  O   UNL     1       1.738   8.892  21.993  0.00  0.00    +0.000 OA
ATOM     17  N   UNL     1       0.389   9.539  20.329  0.00  0.00    +0.000 N 
ATOM     18  H   UNL     1       0.036   9.378  19.396  0.00  0.00    +0.000 HD
BRANCH  15  28
ATOM     19  C   UNL     1       2.408   7.268  18.972  0.00  0.00    +0.000 A 
ATOM     20  C   UNL     1       2.719   5.989  18.458  0.00  0.00    +0.000 A 
ATOM     21  C   UNL     1       2.389   4.828  19.163  0.00  0.00    +0.000 A 
ATOM     22  C   UNL     1       2.690   3.559  18.647  0.00  0.00    +0.000 A 
ATOM     23  C   UNL     1       2.364   2.408  19.368  0.00  0.00    +0.000 A 
ATOM     24  C   UNL     1       1.730   2.512  20.613  0.00  0.00    +0.000 A 
ATOM     25  C   UNL     1       1.424   3.767  21.130  0.00  0.00    +0.000 A 
ATOM     26  C   UNL     1       1.744   4.928  20.410  0.00  0.00    +0.000 A 
ATOM     27  C   UNL     1       1.423   6.183  20.921  0.00  0.00    +0.000 A 
ATOM     28  C   UNL     1       1.729   7.372  20.224  0.00  0.00    +0.000 A 
BRANCH  19  30
ATOM     29  C   UNL     1       1.962   9.156  17.465  0.00  0.00    +0.000 C 
ATOM     30  O   UNL     1       2.757   8.384  18.286  0.00  0.00    +0.000 OA
ENDBRANCH  19  30
ENDBRANCH  15  28
ENDBRANCH   1  17
BRANCH   8  31
ATOM     31  C   UNL     1      -2.713  15.067  22.364  0.00  0.00    +0.000 C 
ATOM     32  C   UNL     1      -4.070  14.409  22.693  0.00  0.00    +0.000 C 
ATOM     33  C   UNL     1      -2.933  16.593  22.386  0.00  0.00    +0.000 C 
ENDBRANCH   8  31
TORSDOF 5
ENDMDL
MODEL 9
REMARK VINA RESULT:      -7.1      1.641      2.384
REMARK  Name = 
REMARK  8 active torsions:
REMARK  status: ('A' for Active; 'I' for Inactive)
REMARK    1  A    between atoms: C_1  and  O_2
REMARK    2  A    between atoms: O_2  and  C_3
REMARK    3  A    between atoms: C_12  and  C_13
REMARK    4  A    between atoms: N_15  and  C_16
REMARK    5  A    between atoms: C_20  and  C_21
REMARK    6  A    between atoms: N_26  and  C_27
REMARK    7  A    between atoms: C_27  and  C_28
REMARK    8  A    between atoms: C_27  and  C_29
REMARK                            x       y       z     vdW  Elec       q    Type
REMARK                         _______ _______ _______ _____ _____    ______ ____
ROOT
ATOM      1  C   UNL     1       0.740  10.045  20.970  0.00  0.00    +0.000 A 
ATOM      2  S   UNL     1      -0.431   9.879  22.174  0.00  0.00    +0.000 S 
ATOM      3  C   UNL     1      -0.837  11.475  22.249  0.00  0.00    +0.000 A 
ATOM      4  C   UNL     1      -0.048  12.209  21.374  0.00  0.00    +0.000 A 
ATOM      5  C   UNL     1       0.819  11.409  20.580  0.00  0.00    +0.000 A 
ATOM      6  C   UNL     1      -0.180  13.712  21.338  0.00  0.00    +0.000 C 
ATOM      7  C   UNL     1      -1.003  14.197  22.557  0.00  0.00    +0.000 C 
ATOM      8  N   UNL     1      -2.266  13.432  22.719  0.00  0.00    +0.000 NA
ATOM      9  C   UNL     1      -1.915  12.043  23.119  0.00  0.00    +0.000 C 
ENDROOT
BRANCH   5  10
ATOM     10  C   UNL     1       1.697  11.992  19.505  0.00  0.00    +0.000 C 
ATOM     11  N   UNL     1       1.506  11.739  18.185  0.00  0.00    +0.000 N 
ATOM     12  O   UNL     1       2.573  12.784  19.815  0.00  0.00    +0.000 OA
ATOM     13  H   UNL     1       0.719  11.184  17.831  0.00  0.00    +0.000 HD
ATOM     14  H   UNL     1       2.118  12.184  17.483  0.00  0.00    +0.000 HD
ENDBRANCH   5  10
BRANCH   1  17
ATOM     15  C   UNL     1       1.549   8.464  19.247  0.00  0.00    +0.000 C 
ATOM     16  O   UNL     1       0.778   8.943  18.428  0.00  0.00    +0.000 OA
ATOM     17  N   UNL     1       1.580   8.980  20.517  0.00  0.00    +0.000 N 
ATOM     18  H   UNL     1       2.182   8.565  21.214  0.00  0.00    +0.000 HD
BRANCH  15  28
ATOM     19  C   UNL     1       2.565   6.054  19.379  0.00  0.00    +0.000 A 
ATOM     20  C   UNL     1       3.476   5.119  18.838  0.00  0.00    +0.000 A 
ATOM     21  C   UNL     1       4.236   5.422  17.705  0.00  0.00    +0.000 A 
ATOM     22  C   UNL     1       5.146   4.495  17.176  0.00  0.00    +0.000 A 
ATOM     23  C   UNL     1       5.890   4.808  16.035  0.00  0.00    +0.000 A 
ATOM     24  C   UNL     1       5.734   6.054  15.413  0.00  0.00    +0.000 A 
ATOM     25  C   UNL     1       4.837   6.980  15.934  0.00  0.00    +0.000 A 
ATOM     26  C   UNL     1       4.089   6.675  17.081  0.00  0.00    +0.000 A 
ATOM     27  C   UNL     1       3.203   7.609  17.612  0.00  0.00    +0.000 A 
ATOM     28  C   UNL     1       2.434   7.337  18.765  0.00  0.00    +0.000 A 
BRANCH  19  30
ATOM     29  C   UNL     1       1.468   4.477  20.910  0.00  0.00    +0.000 C 
ATOM     30  O   UNL     1       1.820   5.734  20.465  0.00  0.00    +0.000 OA
ENDBRANCH  19  30
ENDBRANCH  15  28
ENDBRANCH   1  17
BRANCH   8  31
ATOM     31  C   UNL     1      -3.172  13.533  21.526  0.00  0.00    +0.000 C 
ATOM     32  C   UNL     1      -4.425  12.639  21.643  0.00  0.00    +0.000 C 
ATOM     33  C   UNL     1      -3.665  14.983  21.345  0.00  0.00    +0.000 C 
ENDBRANCH   8  31
TORSDOF 5
ENDMDL
