MODEL 1
REMARK VINA RESULT:      -7.5      0.000      0.000
REMARK  Name = 
REMARK  4 active torsions:
REMARK  status: ('A' for Active; 'I' for Inactive)
REMARK    1  A    between atoms: C_1  and  C_2
REMARK    2  A    between atoms: C_7  and  C_8
REMARK    3  A    between atoms: C_14  and  C_15
REMARK    4  A    between atoms: C_18  and  C_19
REMARK                            x       y       z     vdW  Elec       q    Type
REMARK                         _______ _______ _______ _____ _____    ______ ____
ROOT
ATOM      1  C   UNL     1       4.179   5.931  17.941  0.00  0.00    +0.000 C 
ATOM      2  O   UNL     1       3.732   6.219  16.830  0.00  0.00    +0.000 OA
ATOM      3  N   UNL     1       5.545   5.787  18.151  0.00  0.00    +0.000 N 
ATOM      4  C   UNL     1       6.248   5.290  19.324  0.00  0.00    +0.000 C 
ATOM      5  C   UNL     1       7.576   6.021  19.268  0.00  0.00    +0.000 C 
ATOM      6  C   UNL     1       7.876   6.091  17.777  0.00  0.00    +0.000 C 
ATOM      7  C   UNL     1       6.497   6.110  17.088  0.00  0.00    +0.000 C 
ENDROOT
BRANCH   1  14
ATOM      8  C   UNL     1      -0.104   9.192  22.142  0.00  0.00    +0.000 C 
ATOM      9  C   UNL     1       0.835   8.543  21.161  0.00  0.00    +0.000 C 
ATOM     10  O   UNL     1       1.334   9.201  20.255  0.00  0.00    +0.000 OA
ATOM     11  N   UNL     1       1.027   7.202  21.430  0.00  0.00    +0.000 N 
ATOM     12  C   UNL     1       1.841   6.441  20.641  0.00  0.00    +0.000 A 
ATOM     13  N   UNL     1       2.656   6.843  19.710  0.00  0.00    +0.000 NA
ATOM     14  C   UNL     1       3.266   5.767  19.082  0.00  0.00    +0.000 A 
ATOM     15  C   UNL     1       2.838   4.539  19.564  0.00  0.00    +0.000 A 
ATOM     16  S   UNL     1       1.760   4.759  20.889  0.00  0.00    +0.000 S 
ATOM     17  H   UNL     1       0.491   6.727  22.139  0.00  0.00    +0.000 HD
ENDBRANCH   1  14
BRANCH   7  18
ATOM     18  C   UNL     1       6.455   5.107  15.972  0.00  0.00    +0.000 A 
ATOM     19  N   UNL     1       6.224   3.802  16.197  0.00  0.00    +0.000 NA
ATOM     20  O   UNL     1       6.144   3.268  14.910  0.00  0.00    +0.000 OA
ATOM     21  C   UNL     1       6.318   4.305  14.040  0.00  0.00    +0.000 A 
ATOM     22  N   UNL     1       6.501   5.460  14.642  0.00  0.00    +0.000 NA
BRANCH  21  23
ATOM     23  C   UNL     1       6.257   4.134  12.529  0.00  0.00    +0.000 C 
ATOM     24  C   UNL     1       6.481   2.749  11.953  0.00  0.00    +0.000 C 
ATOM     25  C   UNL     1       5.114   3.339  11.930  0.00  0.00    +0.000 C 
ENDBRANCH  21  23
ENDBRANCH   7  18
TORSDOF 3
ENDMDL
MODEL 2
REMARK VINA RESULT:      -7.3      0.811      1.073
REMARK  Name = 
REMARK  4 active torsions:
REMARK  status: ('A' for Active; 'I' for Inactive)
REMARK    1  A    between atoms: C_1  and  C_2
REMARK    2  A    between atoms: C_7  and  C_8
REMARK    3  A    between atoms: C_14  and  C_15
REMARK    4  A    between atoms: C_18  and  C_19
REMARK                            x       y       z     vdW  Elec       q    Type
REMARK                         _______ _______ _______ _____ _____    ______ ____
ROOT
ATOM      1  C   UNL     1       4.277   6.354  17.927  0.00  0.00    +0.000 C 
ATOM      2  O   UNL     1       4.015   6.989  16.904  0.00  0.00    +0.000 OA
ATOM      3  N   UNL     1       5.581   5.980  18.227  0.00  0.00    +0.000 N 
ATOM      4  C   UNL     1       6.066   5.094  19.274  0.00  0.00    +0.000 C 
ATOM      5  C   UNL     1       7.454   5.632  19.567  0.00  0.00    +0.000 C 
ATOM      6  C   UNL     1       7.959   6.064  18.197  0.00  0.00    +0.000 C 
ATOM      7  C   UNL     1       6.696   6.451  17.405  0.00  0.00    +0.000 C 
ENDROOT
BRANCH   1  14
ATOM      8  C   UNL     1      -0.334   8.901  22.272  0.00  0.00    +0.000 C 
ATOM      9  C   UNL     1       0.689   8.420  21.278  0.00  0.00    +0.000 C 
ATOM     10  O   UNL     1       1.350   9.226  20.633  0.00  0.00    +0.000 OA
ATOM     11  N   UNL     1       0.757   7.042  21.222  0.00  0.00    +0.000 N 
ATOM     12  C   UNL     1       1.623   6.419  20.370  0.00  0.00    +0.000 A 
ATOM     13  N   UNL     1       2.583   6.954  19.674  0.00  0.00    +0.000 NA
ATOM     14  C   UNL     1       3.205   6.008  18.873  0.00  0.00    +0.000 A 
ATOM     15  C   UNL     1       2.638   4.747  18.976  0.00  0.00    +0.000 A 
ATOM     16  S   UNL     1       1.402   4.743  20.176  0.00  0.00    +0.000 S 
ATOM     17  H   UNL     1       0.099   6.464  21.720  0.00  0.00    +0.000 HD
ENDBRANCH   1  14
BRANCH   7  18
ATOM     18  C   UNL     1       6.708   5.803  16.050  0.00  0.00    +0.000 A 
ATOM     19  N   UNL     1       7.681   6.045  15.155  0.00  0.00    +0.000 NA
ATOM     20  O   UNL     1       7.380   5.166  14.114  0.00  0.00    +0.000 OA
ATOM     21  C   UNL     1       6.267   4.471  14.492  0.00  0.00    +0.000 A 
ATOM     22  N   UNL     1       5.821   4.817  15.681  0.00  0.00    +0.000 NA
BRANCH  21  23
ATOM     23  C   UNL     1       5.646   3.377  13.636  0.00  0.00    +0.000 C 
ATOM     24  C   UNL     1       4.861   3.788  12.405  0.00  0.00    +0.000 C 
ATOM     25  C   UNL     1       6.193   3.142  12.243  0.00  0.00    +0.000 C 
ENDBRANCH  21  23
ENDBRANCH   7  18
TORSDOF 3
ENDMDL
MODEL 3
REMARK VINA RESULT:      -7.2      7.843      9.951
REMARK  Name = 
REMARK  4 active torsions:
REMARK  status: ('A' for Active; 'I' for Inactive)
REMARK    1  A    between atoms: C_1  and  C_2
REMARK    2  A    between atoms: C_7  and  C_8
REMARK    3  A    between atoms: C_14  and  C_15
REMARK    4  A    between atoms: C_18  and  C_19
REMARK                            x       y       z     vdW  Elec       q    Type
REMARK                         _______ _______ _______ _____ _____    ______ ____
ROOT
ATOM      1  C   UNL     1      -0.889  12.805  21.894  0.00  0.00    +0.000 C 
ATOM      2  O   UNL     1      -0.440  13.416  20.923  0.00  0.00    +0.000 OA
ATOM      3  N   UNL     1      -0.564  11.473  22.120  0.00  0.00    +0.000 N 
ATOM      4  C   UNL     1      -1.119  10.543  23.092  0.00  0.00    +0.000 C 
ATOM      5  C   UNL     1       0.036   9.597  23.363  0.00  0.00    +0.000 C 
ATOM      6  C   UNL     1       0.710   9.466  22.004  0.00  0.00    +0.000 C 
ATOM      7  C   UNL     1       0.432  10.801  21.286  0.00  0.00    +0.000 C 
ENDROOT
BRANCH   1  14
ATOM      8  C   UNL     1      -7.298  13.361  24.184  0.00  0.00    +0.000 C 
ATOM      9  C   UNL     1      -5.908  13.161  23.642  0.00  0.00    +0.000 C 
ATOM     10  O   UNL     1      -5.694  12.306  22.790  0.00  0.00    +0.000 OA
ATOM     11  N   UNL     1      -4.996  14.027  24.212  0.00  0.00    +0.000 N 
ATOM     12  C   UNL     1      -3.679  13.989  23.852  0.00  0.00    +0.000 A 
ATOM     13  N   UNL     1      -3.138  13.337  22.865  0.00  0.00    +0.000 NA
ATOM     14  C   UNL     1      -1.760  13.495  22.858  0.00  0.00    +0.000 A 
ATOM     15  C   UNL     1      -1.294  14.267  23.912  0.00  0.00    +0.000 A 
ATOM     16  S   UNL     1      -2.613  14.887  24.830  0.00  0.00    +0.000 S 
ATOM     17  H   UNL     1      -5.250  14.627  24.980  0.00  0.00    +0.000 HD
ENDBRANCH   1  14
BRANCH   7  18
ATOM     18  C   UNL     1      -0.075  10.552  19.895  0.00  0.00    +0.000 A 
ATOM     19  N   UNL     1       0.750  10.232  18.884  0.00  0.00    +0.000 NA
ATOM     20  O   UNL     1      -0.126   9.970  17.830  0.00  0.00    +0.000 OA
ATOM     21  C   UNL     1      -1.390  10.142  18.315  0.00  0.00    +0.000 A 
ATOM     22  N   UNL     1      -1.415  10.489  19.584  0.00  0.00    +0.000 NA
BRANCH  21  23
ATOM     23  C   UNL     1      -2.637   9.907  17.473  0.00  0.00    +0.000 C 
ATOM     24  C   UNL     1      -3.207  11.075  16.692  0.00  0.00    +0.000 C 
ATOM     25  C   UNL     1      -2.521   9.972  15.964  0.00  0.00    +0.000 C 
ENDBRANCH  21  23
ENDBRANCH   7  18
TORSDOF 3
ENDMDL
MODEL 4
REMARK VINA RESULT:      -7.2      1.782      2.534
REMARK  Name = 
REMARK  4 active torsions:
REMARK  status: ('A' for Active; 'I' for Inactive)
REMARK    1  A    between atoms: C_1  and  C_2
REMARK    2  A    between atoms: C_7  and  C_8
REMARK    3  A    between atoms: C_14  and  C_15
REMARK    4  A    between atoms: C_18  and  C_19
REMARK                            x       y       z     vdW  Elec       q    Type
REMARK                         _______ _______ _______ _____ _____    ______ ____
ROOT
ATOM      1  C   UNL     1       4.311   6.255  17.709  0.00  0.00    +0.000 C 
ATOM      2  O   UNL     1       4.023   6.615  16.567  0.00  0.00    +0.000 OA
ATOM      3  N   UNL     1       5.614   5.911  18.049  0.00  0.00    +0.000 N 
ATOM      4  C   UNL     1       6.115   5.306  19.273  0.00  0.00    +0.000 C 
ATOM      5  C   UNL     1       7.534   5.836  19.365  0.00  0.00    +0.000 C 
ATOM      6  C   UNL     1       7.989   5.875  17.912  0.00  0.00    +0.000 C 
ATOM      7  C   UNL     1       6.704   6.102  17.093  0.00  0.00    +0.000 C 
ENDROOT
BRANCH   1  14
ATOM      8  C   UNL     1       1.166   2.265  22.271  0.00  0.00    +0.000 C 
ATOM      9  C   UNL     1       1.924   3.084  21.261  0.00  0.00    +0.000 C 
ATOM     10  O   UNL     1       2.851   2.586  20.633  0.00  0.00    +0.000 OA
ATOM     11  N   UNL     1       1.441   4.374  21.166  0.00  0.00    +0.000 N 
ATOM     12  C   UNL     1       2.009   5.271  20.307  0.00  0.00    +0.000 A 
ATOM     13  N   UNL     1       2.886   5.040  19.374  0.00  0.00    +0.000 NA
ATOM     14  C   UNL     1       3.273   6.216  18.751  0.00  0.00    +0.000 A 
ATOM     15  C   UNL     1       2.670   7.344  19.289  0.00  0.00    +0.000 A 
ATOM     16  S   UNL     1       1.528   6.893  20.497  0.00  0.00    +0.000 S 
ATOM     17  H   UNL     1       0.738   4.720  21.800  0.00  0.00    +0.000 HD
ENDBRANCH   1  14
BRANCH   7  18
ATOM     18  C   UNL     1       6.630   5.125  15.954  0.00  0.00    +0.000 A 
ATOM     19  N   UNL     1       6.335   3.829  16.147  0.00  0.00    +0.000 NA
ATOM     20  O   UNL     1       6.247   3.326  14.849  0.00  0.00    +0.000 OA
ATOM     21  C   UNL     1       6.482   4.372  14.004  0.00  0.00    +0.000 A 
ATOM     22  N   UNL     1       6.711   5.504  14.633  0.00  0.00    +0.000 NA
BRANCH  21  23
ATOM     23  C   UNL     1       6.433   4.236  12.488  0.00  0.00    +0.000 C 
ATOM     24  C   UNL     1       6.842   2.912  11.872  0.00  0.00    +0.000 C 
ATOM     25  C   UNL     1       5.406   3.308  11.872  0.00  0.00    +0.000 C 
ENDBRANCH  21  23
ENDBRANCH   7  18
TORSDOF 3
ENDMDL
MODEL 5
REMARK VINA RESULT:      -7.2      2.160      2.790
REMARK  Name = 
REMARK  4 active torsions:
REMARK  status: ('A' for Active; 'I' for Inactive)
REMARK    1  A    between atoms: C_1  and  C_2
REMARK    2  A    between atoms: C_7  and  C_8
REMARK    3  A    between atoms: C_14  and  C_15
REMARK    4  A    between atoms: C_18  and  C_19
REMARK                            x       y       z     vdW  Elec       q    Type
REMARK                         _______ _______ _______ _____ _____    ______ ____
ROOT
ATOM      1  C   UNL     1       3.867   6.577  18.157  0.00  0.00    +0.000 C 
ATOM      2  O   UNL     1       5.044   6.923  18.263  0.00  0.00    +0.000 OA
ATOM      3  N   UNL     1       3.526   5.256  17.888  0.00  0.00    +0.000 N 
ATOM      4  C   UNL     1       2.226   4.691  17.560  0.00  0.00    +0.000 C 
ATOM      5  C   UNL     1       2.323   3.273  18.090  0.00  0.00    +0.000 C 
ATOM      6  C   UNL     1       3.770   2.890  17.812  0.00  0.00    +0.000 C 
ATOM      7  C   UNL     1       4.554   4.216  17.862  0.00  0.00    +0.000 C 
ENDROOT
BRANCH   1  14
ATOM      8  C   UNL     1      -0.048   9.693  22.805  0.00  0.00    +0.000 C 
ATOM      9  C   UNL     1       0.870   8.983  21.846  0.00  0.00    +0.000 C 
ATOM     10  O   UNL     1       1.738   8.226  22.267  0.00  0.00    +0.000 OA
ATOM     11  N   UNL     1       0.594   9.295  20.529  0.00  0.00    +0.000 N 
ATOM     12  C   UNL     1       1.329   8.753  19.514  0.00  0.00    +0.000 A 
ATOM     13  N   UNL     1       2.201   7.790  19.584  0.00  0.00    +0.000 NA
ATOM     14  C   UNL     1       2.790   7.561  18.350  0.00  0.00    +0.000 A 
ATOM     15  C   UNL     1       2.342   8.425  17.361  0.00  0.00    +0.000 A 
ATOM     16  S   UNL     1       1.093   9.440  17.974  0.00  0.00    +0.000 S 
ATOM     17  H   UNL     1      -0.076  10.009  20.288  0.00  0.00    +0.000 HD
ENDBRANCH   1  14
BRANCH   7  18
ATOM     18  C   UNL     1       5.449   4.341  16.663  0.00  0.00    +0.000 A 
ATOM     19  N   UNL     1       6.788   4.369  16.775  0.00  0.00    +0.000 NA
ATOM     20  O   UNL     1       7.218   4.364  15.448  0.00  0.00    +0.000 OA
ATOM     21  C   UNL     1       6.097   4.318  14.669  0.00  0.00    +0.000 A 
ATOM     22  N   UNL     1       4.983   4.290  15.368  0.00  0.00    +0.000 NA
BRANCH  21  23
ATOM     23  C   UNL     1       6.149   4.258  13.149  0.00  0.00    +0.000 C 
ATOM     24  C   UNL     1       6.315   2.902  12.490  0.00  0.00    +0.000 C 
ATOM     25  C   UNL     1       5.003   3.603  12.406  0.00  0.00    +0.000 C 
ENDBRANCH  21  23
ENDBRANCH   7  18
TORSDOF 3
ENDMDL
MODEL 6
REMARK VINA RESULT:      -7.2      2.432      3.644
REMARK  Name = 
REMARK  4 active torsions:
REMARK  status: ('A' for Active; 'I' for Inactive)
REMARK    1  A    between atoms: C_1  and  C_2
REMARK    2  A    between atoms: C_7  and  C_8
REMARK    3  A    between atoms: C_14  and  C_15
REMARK    4  A    between atoms: C_18  and  C_19
REMARK                            x       y       z     vdW  Elec       q    Type
REMARK                         _______ _______ _______ _____ _____    ______ ____
ROOT
ATOM      1  C   UNL     1       2.979   7.100  18.892  0.00  0.00    +0.000 C 
ATOM      2  O   UNL     1       4.046   7.312  18.313  0.00  0.00    +0.000 OA
ATOM      3  N   UNL     1       2.725   5.882  19.510  0.00  0.00    +0.000 N 
ATOM      4  C   UNL     1       1.485   5.383  20.084  0.00  0.00    +0.000 C 
ATOM      5  C   UNL     1       1.963   4.446  21.177  0.00  0.00    +0.000 C 
ATOM      6  C   UNL     1       3.209   3.810  20.576  0.00  0.00    +0.000 C 
ATOM      7  C   UNL     1       3.775   4.868  19.609  0.00  0.00    +0.000 C 
ENDROOT
BRANCH   1  14
ATOM      8  C   UNL     1      -0.961  10.731  23.125  0.00  0.00    +0.000 C 
ATOM      9  C   UNL     1      -0.042   9.908  22.262  0.00  0.00    +0.000 C 
ATOM     10  O   UNL     1       0.752   9.127  22.774  0.00  0.00    +0.000 OA
ATOM     11  N   UNL     1      -0.230  10.155  20.916  0.00  0.00    +0.000 N 
ATOM     12  C   UNL     1       0.521   9.508  19.976  0.00  0.00    +0.000 A 
ATOM     13  N   UNL     1       1.324   8.499  20.150  0.00  0.00    +0.000 NA
ATOM     14  C   UNL     1       1.960   8.159  18.966  0.00  0.00    +0.000 A 
ATOM     15  C   UNL     1       1.621   8.986  17.906  0.00  0.00    +0.000 A 
ATOM     16  S   UNL     1       0.409  10.111  18.389  0.00  0.00    +0.000 S 
ATOM     17  H   UNL     1      -0.838  10.892  20.597  0.00  0.00    +0.000 HD
ENDBRANCH   1  14
BRANCH   7  18
ATOM     18  C   UNL     1       4.085   4.248  18.276  0.00  0.00    +0.000 A 
ATOM     19  N   UNL     1       3.138   3.656  17.530  0.00  0.00    +0.000 NA
ATOM     20  O   UNL     1       3.813   3.341  16.351  0.00  0.00    +0.000 OA
ATOM     21  C   UNL     1       5.094   3.790  16.498  0.00  0.00    +0.000 A 
ATOM     22  N   UNL     1       5.311   4.367  17.660  0.00  0.00    +0.000 NA
BRANCH  21  23
ATOM     23  C   UNL     1       6.142   3.670  15.400  0.00  0.00    +0.000 C 
ATOM     24  C   UNL     1       5.873   4.350  14.072  0.00  0.00    +0.000 C 
ATOM     25  C   UNL     1       6.909   4.908  14.985  0.00  0.00    +0.000 C 
ENDBRANCH  21  23
ENDBRANCH   7  18
TORSDOF 3
ENDMDL
MODEL 7
REMARK VINA RESULT:      -7.1      2.343      3.400
REMARK  Name = 
REMARK  4 active torsions:
REMARK  status: ('A' for Active; 'I' for Inactive)
REMARK    1  A    between atoms: C_1  and  C_2
REMARK    2  A    between atoms: C_7  and  C_8
REMARK    3  A    between atoms: C_14  and  C_15
REMARK    4  A    between atoms: C_18  and  C_19
REMARK                            x       y       z     vdW  Elec       q    Type
REMARK                         _______ _______ _______ _____ _____    ______ ____
ROOT
ATOM      1  C   UNL     1       3.221   6.536  18.974  0.00  0.00    +0.000 C 
ATOM      2  O   UNL     1       4.366   6.701  19.397  0.00  0.00    +0.000 OA
ATOM      3  N   UNL     1       2.785   5.289  18.545  0.00  0.00    +0.000 N 
ATOM      4  C   UNL     1       1.551   4.931  17.862  0.00  0.00    +0.000 C 
ATOM      5  C   UNL     1       1.312   3.501  18.308  0.00  0.00    +0.000 C 
ATOM      6  C   UNL     1       2.715   2.915  18.383  0.00  0.00    +0.000 C 
ATOM      7  C   UNL     1       3.632   4.108  18.714  0.00  0.00    +0.000 C 
ENDROOT
BRANCH   1  14
ATOM      8  C   UNL     1      -0.642  10.635  22.836  0.00  0.00    +0.000 C 
ATOM      9  C   UNL     1       0.255   9.709  22.058  0.00  0.00    +0.000 C 
ATOM     10  O   UNL     1       0.968   8.903  22.644  0.00  0.00    +0.000 OA
ATOM     11  N   UNL     1       0.147   9.900  20.694  0.00  0.00    +0.000 N 
ATOM     12  C   UNL     1       0.891   9.157  19.824  0.00  0.00    +0.000 A 
ATOM     13  N   UNL     1       1.613   8.106  20.084  0.00  0.00    +0.000 NA
ATOM     14  C   UNL     1       2.276   7.664  18.949  0.00  0.00    +0.000 A 
ATOM     15  C   UNL     1       2.045   8.458  17.836  0.00  0.00    +0.000 A 
ATOM     16  S   UNL     1       0.894   9.686  18.206  0.00  0.00    +0.000 S 
ATOM     17  H   UNL     1      -0.394  10.660  20.312  0.00  0.00    +0.000 HD
ENDBRANCH   1  14
BRANCH   7  18
ATOM     18  C   UNL     1       4.818   4.131  17.791  0.00  0.00    +0.000 A 
ATOM     19  N   UNL     1       6.074   4.253  18.251  0.00  0.00    +0.000 NA
ATOM     20  O   UNL     1       6.849   4.102  17.101  0.00  0.00    +0.000 OA
ATOM     21  C   UNL     1       5.984   3.888  16.067  0.00  0.00    +0.000 A 
ATOM     22  N   UNL     1       4.722   3.883  16.440  0.00  0.00    +0.000 NA
BRANCH  21  23
ATOM     23  C   UNL     1       6.449   3.633  14.640  0.00  0.00    +0.000 C 
ATOM     24  C   UNL     1       5.617   4.193  13.502  0.00  0.00    +0.000 C 
ATOM     25  C   UNL     1       6.940   4.804  13.813  0.00  0.00    +0.000 C 
ENDBRANCH  21  23
ENDBRANCH   7  18
TORSDOF 3
ENDMDL
MODEL 8
REMARK VINA RESULT:      -7.0      2.144      2.995
REMARK  Name = 
REMARK  4 active torsions:
REMARK  status: ('A' for Active; 'I' for Inactive)
REMARK    1  A    between atoms: C_1  and  C_2
REMARK    2  A    between atoms: C_7  and  C_8
REMARK    3  A    between atoms: C_14  and  C_15
REMARK    4  A    between atoms: C_18  and  C_19
REMARK                            x       y       z     vdW  Elec       q    Type
REMARK                         _______ _______ _______ _____ _____    ______ ____
ROOT
ATOM      1  C   UNL     1       3.753   5.495  19.175  0.00  0.00    +0.000 C 
ATOM      2  O   UNL     1       4.953   5.716  19.337  0.00  0.00    +0.000 OA
ATOM      3  N   UNL     1       3.314   4.377  18.476  0.00  0.00    +0.000 N 
ATOM      4  C   UNL     1       1.970   4.038  18.034  0.00  0.00    +0.000 C 
ATOM      5  C   UNL     1       1.982   2.521  18.026  0.00  0.00    +0.000 C 
ATOM      6  C   UNL     1       3.392   2.182  17.559  0.00  0.00    +0.000 C 
ATOM      7  C   UNL     1       4.266   3.359  18.034  0.00  0.00    +0.000 C 
ENDROOT
BRANCH   1  14
ATOM      8  C   UNL     1       0.565  11.482  18.380  0.00  0.00    +0.000 C 
ATOM      9  C   UNL     1       1.292  10.166  18.470  0.00  0.00    +0.000 C 
ATOM     10  O   UNL     1       2.059   9.823  17.578  0.00  0.00    +0.000 OA
ATOM     11  N   UNL     1       0.980   9.475  19.624  0.00  0.00    +0.000 N 
ATOM     12  C   UNL     1       1.535   8.254  19.878  0.00  0.00    +0.000 A 
ATOM     13  N   UNL     1       2.511   7.671  19.243  0.00  0.00    +0.000 NA
ATOM     14  C   UNL     1       2.752   6.406  19.755  0.00  0.00    +0.000 A 
ATOM     15  C   UNL     1       1.885   6.055  20.779  0.00  0.00    +0.000 A 
ATOM     16  S   UNL     1       0.851   7.377  21.166  0.00  0.00    +0.000 S 
ATOM     17  H   UNL     1       0.257   9.796  20.249  0.00  0.00    +0.000 HD
ENDBRANCH   1  14
BRANCH   7  18
ATOM     18  C   UNL     1       5.136   3.852  16.912  0.00  0.00    +0.000 A 
ATOM     19  N   UNL     1       6.433   4.148  17.097  0.00  0.00    +0.000 NA
ATOM     20  O   UNL     1       6.879   4.435  15.806  0.00  0.00    +0.000 OA
ATOM     21  C   UNL     1       5.812   4.267  14.972  0.00  0.00    +0.000 A 
ATOM     22  N   UNL     1       4.717   3.896  15.601  0.00  0.00    +0.000 NA
BRANCH  21  23
ATOM     23  C   UNL     1       5.906   4.447  13.464  0.00  0.00    +0.000 C 
ATOM     24  C   UNL     1       6.400   3.281  12.630  0.00  0.00    +0.000 C 
ATOM     25  C   UNL     1       4.961   3.664  12.575  0.00  0.00    +0.000 C 
ENDBRANCH  21  23
ENDBRANCH   7  18
TORSDOF 3
ENDMDL
MODEL 9
REMARK VINA RESULT:      -7.0      2.144      2.745
REMARK  Name = 
REMARK  4 active torsions:
REMARK  status: ('A' for Active; 'I' for Inactive)
REMARK    1  A    between atoms: C_1  and  C_2
REMARK    2  A    between atoms: C_7  and  C_8
REMARK    3  A    between atoms: C_14  and  C_15
REMARK    4  A    between atoms: C_18  and  C_19
REMARK                            x       y       z     vdW  Elec       q    Type
REMARK                         _______ _______ _______ _____ _____    ______ ____
ROOT
ATOM      1  C   UNL     1       4.641   6.432  17.226  0.00  0.00    +0.000 C 
ATOM      2  O   UNL     1       4.593   7.165  16.238  0.00  0.00    +0.000 OA
ATOM      3  N   UNL     1       5.743   5.621  17.469  0.00  0.00    +0.000 N 
ATOM      4  C   UNL     1       5.914   4.575  18.465  0.00  0.00    +0.000 C 
ATOM      5  C   UNL     1       7.407   4.593  18.732  0.00  0.00    +0.000 C 
ATOM      6  C   UNL     1       8.006   4.890  17.364  0.00  0.00    +0.000 C 
ATOM      7  C   UNL     1       6.937   5.722  16.629  0.00  0.00    +0.000 C 
ENDROOT
BRANCH   1  14
ATOM      8  C   UNL     1       1.287   2.652  21.819  0.00  0.00    +0.000 C 
ATOM      9  C   UNL     1       2.093   3.426  20.811  0.00  0.00    +0.000 C 
ATOM     10  O   UNL     1       3.077   2.919  20.284  0.00  0.00    +0.000 OA
ATOM     11  N   UNL     1       1.583   4.691  20.595  0.00  0.00    +0.000 N 
ATOM     12  C   UNL     1       2.186   5.547  19.718  0.00  0.00    +0.000 A 
ATOM     13  N   UNL     1       3.134   5.283  18.867  0.00  0.00    +0.000 NA
ATOM     14  C   UNL     1       3.532   6.428  18.194  0.00  0.00    +0.000 A 
ATOM     15  C   UNL     1       2.862   7.568  18.611  0.00  0.00    +0.000 A 
ATOM     16  S   UNL     1       1.648   7.161  19.763  0.00  0.00    +0.000 S 
ATOM     17  H   UNL     1       0.827   5.055  21.153  0.00  0.00    +0.000 HD
ENDBRANCH   1  14
BRANCH   7  18
ATOM     18  C   UNL     1       6.702   5.173  15.251  0.00  0.00    +0.000 A 
ATOM     19  N   UNL     1       7.525   5.451  14.226  0.00  0.00    +0.000 NA
ATOM     20  O   UNL     1       7.024   4.658  13.193  0.00  0.00    +0.000 OA
ATOM     21  C   UNL     1       5.960   3.971  13.703  0.00  0.00    +0.000 A 
ATOM     22  N   UNL     1       5.727   4.242  14.969  0.00  0.00    +0.000 NA
BRANCH  21  23
ATOM     23  C   UNL     1       5.164   2.960  12.890  0.00  0.00    +0.000 C 
ATOM     24  C   UNL     1       4.539   3.419  11.586  0.00  0.00    +0.000 C 
ATOM     25  C   UNL     1       5.713   2.503  11.553  0.00  0.00    +0.000 C 
ENDBRANCH  21  23
ENDBRANCH   7  18
TORSDOF 3
ENDMDL
