MODEL 1
REMARK VINA RESULT:      -7.2      0.000      0.000
REMARK  Name = 
REMARK  4 active torsions:
REMARK  status: ('A' for Active; 'I' for Inactive)
REMARK    1  A    between atoms: C_1  and  C_2
REMARK    2  A    between atoms: C_3  and  N_4
REMARK    3  A    between atoms: C_10  and  O_11
REMARK    4  A    between atoms: C_15  and  C_16
REMARK                            x       y       z     vdW  Elec       q    Type
REMARK                         _______ _______ _______ _____ _____    ______ ____
ROOT
ATOM      1  C   UNL     1       5.864   5.783  19.364  0.00  0.00    +0.000 C 
ATOM      2  C   UNL     1       5.694   5.075  18.039  0.00  0.00    +0.000 A 
ATOM      3  C   UNL     1       4.662   4.118  17.829  0.00  0.00    +0.000 A 
ATOM      4  C   UNL     1       4.595   3.518  16.558  0.00  0.00    +0.000 A 
ATOM      5  C   UNL     1       5.446   3.865  15.511  0.00  0.00    +0.000 A 
ATOM      6  C   UNL     1       6.408   4.852  15.693  0.00  0.00    +0.000 A 
ATOM      7  C   UNL     1       6.543   5.447  16.956  0.00  0.00    +0.000 A 
ATOM      8 CL   UNL     1       7.745   6.691  17.169  0.00  0.00    +0.000 Cl
ENDROOT
BRANCH   3   9
ATOM      9  N   UNL     1       3.693   3.854  18.816  0.00  0.00    +0.000 N 
ATOM     10  C   UNL     1       2.268   3.915  18.427  0.00  0.00    +0.000 C 
ATOM     11  C   UNL     1       1.897   2.474  18.032  0.00  0.00    +0.000 C 
ATOM     12  C   UNL     1       2.948   1.598  18.708  0.00  0.00    +0.000 C 
ATOM     13  C   UNL     1       3.790   2.570  19.544  0.00  0.00    +0.000 C 
ATOM     14  C   UNL     1       3.150   2.768  20.930  0.00  0.00    +0.000 C 
ATOM     15  C   UNL     1       1.835   3.573  20.940  0.00  0.00    +0.000 C 
ATOM     16  C   UNL     1       1.486   4.361  19.669  0.00  0.00    +0.000 C 
BRANCH  15  17
ATOM     17  O   UNL     1       0.740   2.724  21.303  0.00  0.00    +0.000 OA
ATOM     18  H   UNL     1       0.112   3.230  21.843  0.00  0.00    +0.000 HD
ENDBRANCH  15  17
ENDBRANCH   3   9
BRANCH   6  19
ATOM     19  C   UNL     1       7.192   5.237  14.557  0.00  0.00    +0.000 C 
ATOM     20  N   UNL     1       7.800   5.502  13.605  0.00  0.00    +0.000 NA
ENDBRANCH   6  19
TORSDOF 3
ENDMDL
MODEL 2
REMARK VINA RESULT:      -7.2      3.710      5.048
REMARK  Name = 
REMARK  4 active torsions:
REMARK  status: ('A' for Active; 'I' for Inactive)
REMARK    1  A    between atoms: C_1  and  C_2
REMARK    2  A    between atoms: C_3  and  N_4
REMARK    3  A    between atoms: C_10  and  O_11
REMARK    4  A    between atoms: C_15  and  C_16
REMARK                            x       y       z     vdW  Elec       q    Type
REMARK                         _______ _______ _______ _____ _____    ______ ____
ROOT
ATOM      1  C   UNL     1       1.835   5.583  21.119  0.00  0.00    +0.000 C 
ATOM      2  C   UNL     1       2.183   6.421  19.910  0.00  0.00    +0.000 A 
ATOM      3  C   UNL     1       2.848   5.864  18.782  0.00  0.00    +0.000 A 
ATOM      4  C   UNL     1       3.126   6.733  17.710  0.00  0.00    +0.000 A 
ATOM      5  C   UNL     1       2.729   8.069  17.696  0.00  0.00    +0.000 A 
ATOM      6  C   UNL     1       2.015   8.595  18.766  0.00  0.00    +0.000 A 
ATOM      7  C   UNL     1       1.753   7.779  19.877  0.00  0.00    +0.000 A 
ATOM      8 CL   UNL     1       0.848   8.446  21.209  0.00  0.00    +0.000 Cl
ENDROOT
BRANCH   3   9
ATOM      9  N   UNL     1       3.130   4.487  18.700  0.00  0.00    +0.000 N 
ATOM     10  C   UNL     1       3.059   3.839  17.372  0.00  0.00    +0.000 C 
ATOM     11  C   UNL     1       4.493   3.911  16.814  0.00  0.00    +0.000 C 
ATOM     12  C   UNL     1       5.382   4.107  18.038  0.00  0.00    +0.000 C 
ATOM     13  C   UNL     1       4.428   4.020  19.235  0.00  0.00    +0.000 C 
ATOM     14  C   UNL     1       4.255   2.553  19.670  0.00  0.00    +0.000 C 
ATOM     15  C   UNL     1       3.449   1.669  18.698  0.00  0.00    +0.000 C 
ATOM     16  C   UNL     1       2.636   2.384  17.609  0.00  0.00    +0.000 C 
BRANCH  15  17
ATOM     17  O   UNL     1       4.303   0.686  18.103  0.00  0.00    +0.000 OA
ATOM     18  H   UNL     1       4.161   0.682  17.143  0.00  0.00    +0.000 HD
ENDBRANCH  15  17
ENDBRANCH   3   9
BRANCH   6  19
ATOM     19  C   UNL     1       1.549   9.945  18.658  0.00  0.00    +0.000 C 
ATOM     20  N   UNL     1       1.119  11.022  18.602  0.00  0.00    +0.000 NA
ENDBRANCH   6  19
TORSDOF 3
ENDMDL
MODEL 3
REMARK VINA RESULT:      -7.1      0.791      1.240
REMARK  Name = 
REMARK  4 active torsions:
REMARK  status: ('A' for Active; 'I' for Inactive)
REMARK    1  A    between atoms: C_1  and  C_2
REMARK    2  A    between atoms: C_3  and  N_4
REMARK    3  A    between atoms: C_10  and  O_11
REMARK    4  A    between atoms: C_15  and  C_16
REMARK                            x       y       z     vdW  Elec       q    Type
REMARK                         _______ _______ _______ _____ _____    ______ ____
ROOT
ATOM      1  C   UNL     1       5.837   5.502  19.293  0.00  0.00    +0.000 C 
ATOM      2  C   UNL     1       5.724   4.865  17.926  0.00  0.00    +0.000 A 
ATOM      3  C   UNL     1       4.713   3.909  17.628  0.00  0.00    +0.000 A 
ATOM      4  C   UNL     1       4.700   3.378  16.325  0.00  0.00    +0.000 A 
ATOM      5  C   UNL     1       5.582   3.792  15.329  0.00  0.00    +0.000 A 
ATOM      6  C   UNL     1       6.523   4.779  15.599  0.00  0.00    +0.000 A 
ATOM      7  C   UNL     1       6.605   5.307  16.896  0.00  0.00    +0.000 A 
ATOM      8 CL   UNL     1       7.780   6.552  17.220  0.00  0.00    +0.000 Cl
ENDROOT
BRANCH   3   9
ATOM      9  N   UNL     1       3.714   3.579  18.564  0.00  0.00    +0.000 N 
ATOM     10  C   UNL     1       3.065   4.680  19.307  0.00  0.00    +0.000 C 
ATOM     11  C   UNL     1       1.819   5.044  18.479  0.00  0.00    +0.000 C 
ATOM     12  C   UNL     1       1.543   3.811  17.622  0.00  0.00    +0.000 C 
ATOM     13  C   UNL     1       2.569   2.772  18.088  0.00  0.00    +0.000 C 
ATOM     14  C   UNL     1       2.018   1.985  19.291  0.00  0.00    +0.000 C 
ATOM     15  C   UNL     1       1.918   2.780  20.608  0.00  0.00    +0.000 C 
ATOM     16  C   UNL     1       2.667   4.118  20.678  0.00  0.00    +0.000 C 
BRANCH  15  17
ATOM     17  O   UNL     1       0.544   2.971  20.964  0.00  0.00    +0.000 OA
ATOM     18  H   UNL     1       0.026   2.214  20.647  0.00  0.00    +0.000 HD
ENDBRANCH  15  17
ENDBRANCH   3   9
BRANCH   6  19
ATOM     19  C   UNL     1       7.341   5.235  14.514  0.00  0.00    +0.000 C 
ATOM     20  N   UNL     1       8.054   5.591  13.670  0.00  0.00    +0.000 NA
ENDBRANCH   6  19
TORSDOF 3
ENDMDL
MODEL 4
REMARK VINA RESULT:      -6.8      3.306      6.141
REMARK  Name = 
REMARK  4 active torsions:
REMARK  status: ('A' for Active; 'I' for Inactive)
REMARK    1  A    between atoms: C_1  and  C_2
REMARK    2  A    between atoms: C_3  and  N_4
REMARK    3  A    between atoms: C_10  and  O_11
REMARK    4  A    between atoms: C_15  and  C_16
REMARK                            x       y       z     vdW  Elec       q    Type
REMARK                         _______ _______ _______ _____ _____    ______ ____
ROOT
ATOM      1  C   UNL     1       3.098   6.531  18.116  0.00  0.00    +0.000 C 
ATOM      2  C   UNL     1       3.122   5.081  18.547  0.00  0.00    +0.000 A 
ATOM      3  C   UNL     1       3.890   4.107  17.850  0.00  0.00    +0.000 A 
ATOM      4  C   UNL     1       3.839   2.787  18.335  0.00  0.00    +0.000 A 
ATOM      5  C   UNL     1       3.128   2.426  19.477  0.00  0.00    +0.000 A 
ATOM      6  C   UNL     1       2.437   3.391  20.201  0.00  0.00    +0.000 A 
ATOM      7  C   UNL     1       2.421   4.713  19.732  0.00  0.00    +0.000 A 
ATOM      8 CL   UNL     1       1.560   5.916  20.652  0.00  0.00    +0.000 Cl
ENDROOT
BRANCH   3   9
ATOM      9  N   UNL     1       4.737   4.463  16.783  0.00  0.00    +0.000 N 
ATOM     10  C   UNL     1       5.259   5.846  16.740  0.00  0.00    +0.000 C 
ATOM     11  C   UNL     1       6.614   5.787  17.468  0.00  0.00    +0.000 C 
ATOM     12  C   UNL     1       7.025   4.318  17.415  0.00  0.00    +0.000 C 
ATOM     13  C   UNL     1       5.946   3.639  16.563  0.00  0.00    +0.000 C 
ATOM     14  C   UNL     1       6.312   3.733  15.071  0.00  0.00    +0.000 C 
ATOM     15  C   UNL     1       6.206   5.142  14.454  0.00  0.00    +0.000 C 
ATOM     16  C   UNL     1       5.447   6.205  15.260  0.00  0.00    +0.000 C 
BRANCH  15  17
ATOM     17  O   UNL     1       7.508   5.628  14.110  0.00  0.00    +0.000 OA
ATOM     18  H   UNL     1       8.121   4.878  14.049  0.00  0.00    +0.000 HD
ENDBRANCH  15  17
ENDBRANCH   3   9
BRANCH   6  19
ATOM     19  C   UNL     1       1.803   2.984  21.419  0.00  0.00    +0.000 C 
ATOM     20  N   UNL     1       1.313   2.597  22.398  0.00  0.00    +0.000 NA
ENDBRANCH   6  19
TORSDOF 3
ENDMDL
MODEL 5
REMARK VINA RESULT:      -6.7      3.914      5.884
REMARK  Name = 
REMARK  4 active torsions:
REMARK  status: ('A' for Active; 'I' for Inactive)
REMARK    1  A    between atoms: C_1  and  C_2
REMARK    2  A    between atoms: C_3  and  N_4
REMARK    3  A    between atoms: C_10  and  O_11
REMARK    4  A    between atoms: C_15  and  C_16
REMARK                            x       y       z     vdW  Elec       q    Type
REMARK                         _______ _______ _______ _____ _____    ______ ____
ROOT
ATOM      1  C   UNL     1       2.786   7.672  17.242  0.00  0.00    +0.000 C 
ATOM      2  C   UNL     1       2.189   7.678  18.631  0.00  0.00    +0.000 A 
ATOM      3  C   UNL     1       2.133   6.499  19.426  0.00  0.00    +0.000 A 
ATOM      4  C   UNL     1       1.556   6.617  20.704  0.00  0.00    +0.000 A 
ATOM      5  C   UNL     1       1.105   7.829  21.223  0.00  0.00    +0.000 A 
ATOM      6  C   UNL     1       1.226   8.994  20.476  0.00  0.00    +0.000 A 
ATOM      7  C   UNL     1       1.754   8.920  19.178  0.00  0.00    +0.000 A 
ATOM      8 CL   UNL     1       1.910  10.390  18.254  0.00  0.00    +0.000 Cl
ENDROOT
BRANCH   3   9
ATOM      9  N   UNL     1       2.714   5.292  18.993  0.00  0.00    +0.000 N 
ATOM     10  C   UNL     1       3.282   4.386  20.014  0.00  0.00    +0.000 C 
ATOM     11  C   UNL     1       2.140   3.418  20.371  0.00  0.00    +0.000 C 
ATOM     12  C   UNL     1       1.184   3.482  19.184  0.00  0.00    +0.000 C 
ATOM     13  C   UNL     1       1.884   4.390  18.165  0.00  0.00    +0.000 C 
ATOM     14  C   UNL     1       2.831   3.561  17.280  0.00  0.00    +0.000 C 
ATOM     15  C   UNL     1       4.095   3.029  17.985  0.00  0.00    +0.000 C 
ATOM     16  C   UNL     1       4.446   3.640  19.350  0.00  0.00    +0.000 C 
BRANCH  15  17
ATOM     17  O   UNL     1       4.037   1.602  18.090  0.00  0.00    +0.000 OA
ATOM     18  H   UNL     1       4.453   1.328  18.923  0.00  0.00    +0.000 HD
ENDBRANCH  15  17
ENDBRANCH   3   9
BRANCH   6  19
ATOM     19  C   UNL     1       0.835  10.226  21.094  0.00  0.00    +0.000 C 
ATOM     20  N   UNL     1       0.491  11.191  21.639  0.00  0.00    +0.000 NA
ENDBRANCH   6  19
TORSDOF 3
ENDMDL
MODEL 6
REMARK VINA RESULT:      -6.5      4.000      6.324
REMARK  Name = 
REMARK  4 active torsions:
REMARK  status: ('A' for Active; 'I' for Inactive)
REMARK    1  A    between atoms: C_1  and  C_2
REMARK    2  A    between atoms: C_3  and  N_4
REMARK    3  A    between atoms: C_10  and  O_11
REMARK    4  A    between atoms: C_15  and  C_16
REMARK                            x       y       z     vdW  Elec       q    Type
REMARK                         _______ _______ _______ _____ _____    ______ ____
ROOT
ATOM      1  C   UNL     1       2.616   8.511  17.446  0.00  0.00    +0.000 C 
ATOM      2  C   UNL     1       2.194   7.851  18.740  0.00  0.00    +0.000 A 
ATOM      3  C   UNL     1       2.528   6.500  19.034  0.00  0.00    +0.000 A 
ATOM      4  C   UNL     1       2.084   5.985  20.266  0.00  0.00    +0.000 A 
ATOM      5  C   UNL     1       1.397   6.753  21.205  0.00  0.00    +0.000 A 
ATOM      6  C   UNL     1       1.133   8.093  20.949  0.00  0.00    +0.000 A 
ATOM      7  C   UNL     1       1.517   8.641  19.715  0.00  0.00    +0.000 A 
ATOM      8 CL   UNL     1       1.191  10.325  19.410  0.00  0.00    +0.000 Cl
ENDROOT
BRANCH   3   9
ATOM      9  N   UNL     1       3.349   5.742  18.176  0.00  0.00    +0.000 N 
ATOM     10  C   UNL     1       4.788   6.076  18.114  0.00  0.00    +0.000 C 
ATOM     11  C   UNL     1       5.457   5.160  19.155  0.00  0.00    +0.000 C 
ATOM     12  C   UNL     1       4.471   4.014  19.363  0.00  0.00    +0.000 C 
ATOM     13  C   UNL     1       3.349   4.273  18.351  0.00  0.00    +0.000 C 
ATOM     14  C   UNL     1       3.704   3.640  16.993  0.00  0.00    +0.000 C 
ATOM     15  C   UNL     1       4.843   4.335  16.221  0.00  0.00    +0.000 C 
ATOM     16  C   UNL     1       5.263   5.733  16.697  0.00  0.00    +0.000 C 
BRANCH  15  17
ATOM     17  O   UNL     1       5.989   3.477  16.157  0.00  0.00    +0.000 OA
ATOM     18  H   UNL     1       6.656   3.882  15.580  0.00  0.00    +0.000 HD
ENDBRANCH  15  17
ENDBRANCH   3   9
BRANCH   6  19
ATOM     19  C   UNL     1       0.510   8.860  21.987  0.00  0.00    +0.000 C 
ATOM     20  N   UNL     1      -0.027   9.430  22.843  0.00  0.00    +0.000 NA
ENDBRANCH   6  19
TORSDOF 3
ENDMDL
MODEL 7
REMARK VINA RESULT:      -6.5      1.268      1.299
REMARK  Name = 
REMARK  4 active torsions:
REMARK  status: ('A' for Active; 'I' for Inactive)
REMARK    1  A    between atoms: C_1  and  C_2
REMARK    2  A    between atoms: C_3  and  N_4
REMARK    3  A    between atoms: C_10  and  O_11
REMARK    4  A    between atoms: C_15  and  C_16
REMARK                            x       y       z     vdW  Elec       q    Type
REMARK                         _______ _______ _______ _____ _____    ______ ____
ROOT
ATOM      1  C   UNL     1       3.364   6.683  17.913  0.00  0.00    +0.000 C 
ATOM      2  C   UNL     1       4.258   5.580  17.393  0.00  0.00    +0.000 A 
ATOM      3  C   UNL     1       4.297   4.297  18.008  0.00  0.00    +0.000 A 
ATOM      4  C   UNL     1       5.164   3.344  17.445  0.00  0.00    +0.000 A 
ATOM      5  C   UNL     1       5.921   3.591  16.301  0.00  0.00    +0.000 A 
ATOM      6  C   UNL     1       5.829   4.819  15.657  0.00  0.00    +0.000 A 
ATOM      7  C   UNL     1       5.011   5.817  16.207  0.00  0.00    +0.000 A 
ATOM      8 CL   UNL     1       4.895   7.349  15.385  0.00  0.00    +0.000 Cl
ENDROOT
BRANCH   3   9
ATOM      9  N   UNL     1       3.436   3.966  19.073  0.00  0.00    +0.000 N 
ATOM     10  C   UNL     1       1.979   4.094  18.856  0.00  0.00    +0.000 C 
ATOM     11  C   UNL     1       1.520   2.703  18.381  0.00  0.00    +0.000 C 
ATOM     12  C   UNL     1       2.611   1.746  18.853  0.00  0.00    +0.000 C 
ATOM     13  C   UNL     1       3.572   2.619  19.669  0.00  0.00    +0.000 C 
ATOM     14  C   UNL     1       3.098   2.704  21.132  0.00  0.00    +0.000 C 
ATOM     15  C   UNL     1       1.819   3.534  21.362  0.00  0.00    +0.000 C 
ATOM     16  C   UNL     1       1.356   4.442  20.214  0.00  0.00    +0.000 C 
BRANCH  15  17
ATOM     17  O   UNL     1       0.745   2.680  21.772  0.00  0.00    +0.000 OA
ATOM     18  H   UNL     1      -0.096   3.065  21.477  0.00  0.00    +0.000 HD
ENDBRANCH  15  17
ENDBRANCH   3   9
BRANCH   6  19
ATOM     19  C   UNL     1       6.554   4.986  14.432  0.00  0.00    +0.000 C 
ATOM     20  N   UNL     1       7.193   5.134  13.474  0.00  0.00    +0.000 NA
ENDBRANCH   6  19
TORSDOF 3
ENDMDL
MODEL 8
REMARK VINA RESULT:      -6.4      3.407      6.352
REMARK  Name = 
REMARK  4 active torsions:
REMARK  status: ('A' for Active; 'I' for Inactive)
REMARK    1  A    between atoms: C_1  and  C_2
REMARK    2  A    between atoms: C_3  and  N_4
REMARK    3  A    between atoms: C_10  and  O_11
REMARK    4  A    between atoms: C_15  and  C_16
REMARK                            x       y       z     vdW  Elec       q    Type
REMARK                         _______ _______ _______ _____ _____    ______ ____
ROOT
ATOM      1  C   UNL     1       2.349   3.474  16.753  0.00  0.00    +0.000 C 
ATOM      2  C   UNL     1       2.924   3.247  18.134  0.00  0.00    +0.000 A 
ATOM      3  C   UNL     1       4.313   3.407  18.400  0.00  0.00    +0.000 A 
ATOM      4  C   UNL     1       4.742   3.169  19.719  0.00  0.00    +0.000 A 
ATOM      5  C   UNL     1       3.866   2.848  20.755  0.00  0.00    +0.000 A 
ATOM      6  C   UNL     1       2.500   2.762  20.510  0.00  0.00    +0.000 A 
ATOM      7  C   UNL     1       2.029   2.948  19.201  0.00  0.00    +0.000 A 
ATOM      8 CL   UNL     1       0.314   2.849  18.909  0.00  0.00    +0.000 Cl
ENDROOT
BRANCH   3   9
ATOM      9  N   UNL     1       5.202   3.875  17.414  0.00  0.00    +0.000 N 
ATOM     10  C   UNL     1       4.671   4.776  16.369  0.00  0.00    +0.000 C 
ATOM     11  C   UNL     1       4.911   6.199  16.906  0.00  0.00    +0.000 C 
ATOM     12  C   UNL     1       6.014   6.045  17.948  0.00  0.00    +0.000 C 
ATOM     13  C   UNL     1       6.426   4.570  17.870  0.00  0.00    +0.000 C 
ATOM     14  C   UNL     1       7.504   4.378  16.788  0.00  0.00    +0.000 C 
ATOM     15  C   UNL     1       7.014   4.533  15.335  0.00  0.00    +0.000 C 
ATOM     16  C   UNL     1       5.497   4.523  15.101  0.00  0.00    +0.000 C 
BRANCH  15  17
ATOM     17  O   UNL     1       7.590   5.703  14.743  0.00  0.00    +0.000 OA
ATOM     18  H   UNL     1       6.929   6.415  14.739  0.00  0.00    +0.000 HD
ENDBRANCH  15  17
ENDBRANCH   3   9
BRANCH   6  19
ATOM     19  C   UNL     1       1.636   2.524  21.628  0.00  0.00    +0.000 C 
ATOM     20  N   UNL     1       0.970   2.373  22.566  0.00  0.00    +0.000 NA
ENDBRANCH   6  19
TORSDOF 3
ENDMDL
MODEL 9
REMARK VINA RESULT:      -6.3      4.363      5.704
REMARK  Name = 
REMARK  4 active torsions:
REMARK  status: ('A' for Active; 'I' for Inactive)
REMARK    1  A    between atoms: C_1  and  C_2
REMARK    2  A    between atoms: C_3  and  N_4
REMARK    3  A    between atoms: C_10  and  O_11
REMARK    4  A    between atoms: C_15  and  C_16
REMARK                            x       y       z     vdW  Elec       q    Type
REMARK                         _______ _______ _______ _____ _____    ______ ____
ROOT
ATOM      1  C   UNL     1       1.413   6.635  21.191  0.00  0.00    +0.000 C 
ATOM      2  C   UNL     1       1.736   7.502  19.994  0.00  0.00    +0.000 A 
ATOM      3  C   UNL     1       2.436   6.988  18.867  0.00  0.00    +0.000 A 
ATOM      4  C   UNL     1       2.686   7.882  17.809  0.00  0.00    +0.000 A 
ATOM      5  C   UNL     1       2.231   9.199  17.806  0.00  0.00    +0.000 A 
ATOM      6  C   UNL     1       1.484   9.680  18.875  0.00  0.00    +0.000 A 
ATOM      7  C   UNL     1       1.247   8.840  19.973  0.00  0.00    +0.000 A 
ATOM      8 CL   UNL     1       0.301   9.451  21.303  0.00  0.00    +0.000 Cl
ENDROOT
BRANCH   3   9
ATOM      9  N   UNL     1       2.779   5.626  18.772  0.00  0.00    +0.000 N 
ATOM     10  C   UNL     1       3.256   5.117  17.468  0.00  0.00    +0.000 C 
ATOM     11  C   UNL     1       4.789   5.242  17.524  0.00  0.00    +0.000 C 
ATOM     12  C   UNL     1       5.124   5.309  19.012  0.00  0.00    +0.000 C 
ATOM     13  C   UNL     1       3.782   5.104  19.726  0.00  0.00    +0.000 C 
ATOM     14  C   UNL     1       3.509   3.601  19.917  0.00  0.00    +0.000 C 
ATOM     15  C   UNL     1       3.178   2.822  18.628  0.00  0.00    +0.000 C 
ATOM     16  C   UNL     1       2.829   3.646  17.381  0.00  0.00    +0.000 C 
BRANCH  15  17
ATOM     17  O   UNL     1       4.233   1.903  18.325  0.00  0.00    +0.000 OA
ATOM     18  H   UNL     1       4.069   1.066  18.789  0.00  0.00    +0.000 HD
ENDBRANCH  15  17
ENDBRANCH   3   9
BRANCH   6  19
ATOM     19  C   UNL     1       0.960  11.010  18.777  0.00  0.00    +0.000 C 
ATOM     20  N   UNL     1       0.568  12.102  18.749  0.00  0.00    +0.000 NA
ENDBRANCH   6  19
TORSDOF 3
ENDMDL
