MODEL 1
REMARK VINA RESULT:      -7.2      0.000      0.000
REMARK  Name = 
REMARK  12 active torsions:
REMARK  status: ('A' for Active; 'I' for Inactive)
REMARK    1  A    between atoms: C_1  and  C_2
REMARK    2  A    between atoms: C_2  and  N_3
REMARK    3  A    between atoms: C_7  and  C_8
REMARK    4  A    between atoms: C_8  and  N_9
REMARK    5  A    between atoms: N_9  and  C_10
REMARK    6  A    between atoms: N_9  and  C_11
REMARK    7  A    between atoms: C_11  and  C_12
REMARK    8  A    between atoms: C_14  and  C_15
REMARK    9  A    between atoms: C_15  and  C_16
REMARK   10  A    between atoms: C_16  and  C_17
REMARK   11  A    between atoms: C_17  and  C_18
REMARK   12  A    between atoms: C_17  and  C_19
REMARK                            x       y       z     vdW  Elec       q    Type
REMARK                         _______ _______ _______ _____ _____    ______ ____
ROOT
ATOM      1  C   UNL     1       4.742   7.031  17.289  0.00  0.00    +0.000 C 
ENDROOT
BRANCH   1   2
ATOM      2  C   UNL     1       5.551   6.238  16.312  0.00  0.00    +0.000 A 
ATOM      3  N   UNL     1       5.169   5.396  15.373  0.00  0.00    +0.000 NA
ATOM      4  C   UNL     1       6.370   4.997  14.842  0.00  0.00    +0.000 A 
ATOM      5  N   UNL     1       7.451   5.547  15.410  0.00  0.00    +0.000 NA
ATOM      6  O   UNL     1       6.908   6.381  16.389  0.00  0.00    +0.000 OA
BRANCH   4   7
ATOM      7  C   UNL     1       6.471   4.026  13.724  0.00  0.00    +0.000 C 
BRANCH   7   8
ATOM      8  C   UNL     1       5.123   3.664  13.092  0.00  0.00    +0.000 C 
BRANCH   8   9
ATOM      9  C   UNL     1       5.180   3.199  11.623  0.00  0.00    +0.000 C 
ATOM     10  C   UNL     1       5.816   1.817  11.463  0.00  0.00    +0.000 C 
ATOM     11  C   UNL     1       3.767   3.184  11.032  0.00  0.00    +0.000 C 
ENDBRANCH   8   9
ENDBRANCH   7   8
ENDBRANCH   4   7
ENDBRANCH   1   2
BRANCH   1  12
ATOM     12  N   UNL     1       3.616   6.278  17.885  0.00  0.00    +0.000 NA
ATOM     13  C   UNL     1       2.647   7.205  18.476  0.00  0.00    +0.000 C 
BRANCH  12  14
ATOM     14  C   UNL     1       4.061   5.252  18.857  0.00  0.00    +0.000 C 
BRANCH  14  19
ATOM     15  N   UNL     1       2.533   3.245  19.254  0.00  0.00    +0.000 N 
ATOM     16  C   UNL     1       2.463   1.939  18.835  0.00  0.00    +0.000 A 
ATOM     17  C   UNL     1       3.462   1.801  17.908  0.00  0.00    +0.000 A 
ATOM     18  N   UNL     1       4.150   2.971  17.771  0.00  0.00    +0.000 NA
ATOM     19  C   UNL     1       3.601   3.841  18.608  0.00  0.00    +0.000 A 
BRANCH  15  21
ATOM     20  C   UNL     1       2.148   3.652  21.661  0.00  0.00    +0.000 C 
ATOM     21  C   UNL     1       1.640   3.825  20.239  0.00  0.00    +0.000 C 
ENDBRANCH  15  21
ENDBRANCH  14  19
ENDBRANCH  12  14
ENDBRANCH   1  12
TORSDOF 8
ENDMDL
MODEL 2
REMARK VINA RESULT:      -7.0      0.981      1.887
REMARK  Name = 
REMARK  12 active torsions:
REMARK  status: ('A' for Active; 'I' for Inactive)
REMARK    1  A    between atoms: C_1  and  C_2
REMARK    2  A    between atoms: C_2  and  N_3
REMARK    3  A    between atoms: C_7  and  C_8
REMARK    4  A    between atoms: C_8  and  N_9
REMARK    5  A    between atoms: N_9  and  C_10
REMARK    6  A    between atoms: N_9  and  C_11
REMARK    7  A    between atoms: C_11  and  C_12
REMARK    8  A    between atoms: C_14  and  C_15
REMARK    9  A    between atoms: C_15  and  C_16
REMARK   10  A    between atoms: C_16  and  C_17
REMARK   11  A    between atoms: C_17  and  C_18
REMARK   12  A    between atoms: C_17  and  C_19
REMARK                            x       y       z     vdW  Elec       q    Type
REMARK                         _______ _______ _______ _____ _____    ______ ____
ROOT
ATOM      1  C   UNL     1       5.669   6.120  17.710  0.00  0.00    +0.000 C 
ENDROOT
BRANCH   1   2
ATOM      2  C   UNL     1       6.194   5.627  16.400  0.00  0.00    +0.000 A 
ATOM      3  N   UNL     1       5.706   4.729  15.568  0.00  0.00    +0.000 NA
ATOM      4  C   UNL     1       6.650   4.718  14.573  0.00  0.00    +0.000 A 
ATOM      5  N   UNL     1       7.679   5.554  14.759  0.00  0.00    +0.000 NA
ATOM      6  O   UNL     1       7.377   6.166  15.977  0.00  0.00    +0.000 OA
BRANCH   4   7
ATOM      7  C   UNL     1       6.546   3.846  13.376  0.00  0.00    +0.000 C 
BRANCH   7   8
ATOM      8  C   UNL     1       5.122   3.712  12.826  0.00  0.00    +0.000 C 
BRANCH   8   9
ATOM      9  C   UNL     1       5.010   3.130  11.403  0.00  0.00    +0.000 C 
ATOM     10  C   UNL     1       5.586   1.717  11.294  0.00  0.00    +0.000 C 
ATOM     11  C   UNL     1       3.543   3.120  10.964  0.00  0.00    +0.000 C 
ENDBRANCH   8   9
ENDBRANCH   7   8
ENDBRANCH   4   7
ENDBRANCH   1   2
BRANCH   1  12
ATOM     12  N   UNL     1       4.287   5.678  18.006  0.00  0.00    +0.000 NA
ATOM     13  C   UNL     1       3.369   6.820  17.942  0.00  0.00    +0.000 C 
BRANCH  12  14
ATOM     14  C   UNL     1       4.179   4.955  19.294  0.00  0.00    +0.000 C 
BRANCH  14  19
ATOM     15  N   UNL     1       2.224   3.341  18.993  0.00  0.00    +0.000 N 
ATOM     16  C   UNL     1       0.970   3.172  19.527  0.00  0.00    +0.000 A 
ATOM     17  C   UNL     1       0.871   4.107  20.523  0.00  0.00    +0.000 A 
ATOM     18  N   UNL     1       2.013   4.852  20.592  0.00  0.00    +0.000 NA
ATOM     19  C   UNL     1       2.824   4.402  19.645  0.00  0.00    +0.000 A 
BRANCH  15  21
ATOM     20  C   UNL     1       3.690   1.446  18.385  0.00  0.00    +0.000 C 
ATOM     21  C   UNL     1       2.750   2.539  17.904  0.00  0.00    +0.000 C 
ENDBRANCH  15  21
ENDBRANCH  14  19
ENDBRANCH  12  14
ENDBRANCH   1  12
TORSDOF 8
ENDMDL
MODEL 3
REMARK VINA RESULT:      -7.0      1.242      2.244
REMARK  Name = 
REMARK  12 active torsions:
REMARK  status: ('A' for Active; 'I' for Inactive)
REMARK    1  A    between atoms: C_1  and  C_2
REMARK    2  A    between atoms: C_2  and  N_3
REMARK    3  A    between atoms: C_7  and  C_8
REMARK    4  A    between atoms: C_8  and  N_9
REMARK    5  A    between atoms: N_9  and  C_10
REMARK    6  A    between atoms: N_9  and  C_11
REMARK    7  A    between atoms: C_11  and  C_12
REMARK    8  A    between atoms: C_14  and  C_15
REMARK    9  A    between atoms: C_15  and  C_16
REMARK   10  A    between atoms: C_16  and  C_17
REMARK   11  A    between atoms: C_17  and  C_18
REMARK   12  A    between atoms: C_17  and  C_19
REMARK                            x       y       z     vdW  Elec       q    Type
REMARK                         _______ _______ _______ _____ _____    ______ ____
ROOT
ATOM      1  C   UNL     1       6.095   4.773  17.834  0.00  0.00    +0.000 C 
ENDROOT
BRANCH   1   2
ATOM      2  C   UNL     1       6.451   4.734  16.382  0.00  0.00    +0.000 A 
ATOM      3  N   UNL     1       5.962   4.000  15.403  0.00  0.00    +0.000 NA
ATOM      4  C   UNL     1       6.709   4.419  14.332  0.00  0.00    +0.000 A 
ATOM      5  N   UNL     1       7.621   5.359  14.610  0.00  0.00    +0.000 NA
ATOM      6  O   UNL     1       7.449   5.576  15.978  0.00  0.00    +0.000 OA
BRANCH   4   7
ATOM      7  C   UNL     1       6.528   3.874  12.963  0.00  0.00    +0.000 C 
BRANCH   7   8
ATOM      8  C   UNL     1       5.116   4.066  12.400  0.00  0.00    +0.000 C 
BRANCH   8   9
ATOM      9  C   UNL     1       4.491   2.824  11.732  0.00  0.00    +0.000 C 
ATOM     10  C   UNL     1       3.587   3.180  10.550  0.00  0.00    +0.000 C 
ATOM     11  C   UNL     1       5.600   1.878  11.262  0.00  0.00    +0.000 C 
ENDBRANCH   8   9
ENDBRANCH   7   8
ENDBRANCH   4   7
ENDBRANCH   1   2
BRANCH   1  12
ATOM     12  N   UNL     1       4.740   5.305  18.105  0.00  0.00    +0.000 NA
ATOM     13  C   UNL     1       4.584   6.623  17.484  0.00  0.00    +0.000 C 
BRANCH  12  14
ATOM     14  C   UNL     1       4.412   5.333  19.549  0.00  0.00    +0.000 C 
BRANCH  14  19
ATOM     15  N   UNL     1       3.035   3.228  19.984  0.00  0.00    +0.000 N 
ATOM     16  C   UNL     1       1.744   2.931  20.344  0.00  0.00    +0.000 A 
ATOM     17  C   UNL     1       1.148   4.139  20.590  0.00  0.00    +0.000 A 
ATOM     18  N   UNL     1       2.027   5.158  20.366  0.00  0.00    +0.000 NA
ATOM     19  C   UNL     1       3.166   4.604  19.973  0.00  0.00    +0.000 A 
BRANCH  15  21
ATOM     20  C   UNL     1       3.678   1.466  18.374  0.00  0.00    +0.000 C 
ATOM     21  C   UNL     1       4.027   2.226  19.643  0.00  0.00    +0.000 C 
ENDBRANCH  15  21
ENDBRANCH  14  19
ENDBRANCH  12  14
ENDBRANCH   1  12
TORSDOF 8
ENDMDL
MODEL 4
REMARK VINA RESULT:      -6.7      1.469      2.342
REMARK  Name = 
REMARK  12 active torsions:
REMARK  status: ('A' for Active; 'I' for Inactive)
REMARK    1  A    between atoms: C_1  and  C_2
REMARK    2  A    between atoms: C_2  and  N_3
REMARK    3  A    between atoms: C_7  and  C_8
REMARK    4  A    between atoms: C_8  and  N_9
REMARK    5  A    between atoms: N_9  and  C_10
REMARK    6  A    between atoms: N_9  and  C_11
REMARK    7  A    between atoms: C_11  and  C_12
REMARK    8  A    between atoms: C_14  and  C_15
REMARK    9  A    between atoms: C_15  and  C_16
REMARK   10  A    between atoms: C_16  and  C_17
REMARK   11  A    between atoms: C_17  and  C_18
REMARK   12  A    between atoms: C_17  and  C_19
REMARK                            x       y       z     vdW  Elec       q    Type
REMARK                         _______ _______ _______ _____ _____    ______ ____
ROOT
ATOM      1  C   UNL     1       6.191   6.859  17.566  0.00  0.00    +0.000 C 
ENDROOT
BRANCH   1   2
ATOM      2  C   UNL     1       6.275   6.030  16.324  0.00  0.00    +0.000 A 
ATOM      3  N   UNL     1       5.348   5.332  15.700  0.00  0.00    +0.000 NA
ATOM      4  C   UNL     1       6.052   4.796  14.651  0.00  0.00    +0.000 A 
ATOM      5  N   UNL     1       7.348   5.129  14.610  0.00  0.00    +0.000 NA
ATOM      6  O   UNL     1       7.501   5.957  15.723  0.00  0.00    +0.000 OA
BRANCH   4   7
ATOM      7  C   UNL     1       5.430   3.911  13.634  0.00  0.00    +0.000 C 
BRANCH   7   8
ATOM      8  C   UNL     1       6.362   3.550  12.473  0.00  0.00    +0.000 C 
BRANCH   8   9
ATOM      9  C   UNL     1       5.701   2.803  11.297  0.00  0.00    +0.000 C 
ATOM     10  C   UNL     1       5.962   1.295  11.332  0.00  0.00    +0.000 C 
ATOM     11  C   UNL     1       4.192   3.061  11.304  0.00  0.00    +0.000 C 
ENDBRANCH   8   9
ENDBRANCH   7   8
ENDBRANCH   4   7
ENDBRANCH   1   2
BRANCH   1  12
ATOM     12  N   UNL     1       6.438   6.097  18.811  0.00  0.00    +0.000 NA
ATOM     13  C   UNL     1       7.880   5.962  19.041  0.00  0.00    +0.000 C 
BRANCH  12  14
ATOM     14  C   UNL     1       5.752   4.784  18.827  0.00  0.00    +0.000 C 
BRANCH  14  19
ATOM     15  N   UNL     1       3.634   3.616  19.645  0.00  0.00    +0.000 N 
ATOM     16  C   UNL     1       2.362   3.984  20.010  0.00  0.00    +0.000 A 
ATOM     17  C   UNL     1       2.355   5.353  19.970  0.00  0.00    +0.000 A 
ATOM     18  N   UNL     1       3.571   5.824  19.568  0.00  0.00    +0.000 NA
ATOM     19  C   UNL     1       4.340   4.767  19.347  0.00  0.00    +0.000 A 
BRANCH  15  21
ATOM     20  C   UNL     1       3.490   1.501  18.375  0.00  0.00    +0.000 C 
ATOM     21  C   UNL     1       4.082   2.238  19.564  0.00  0.00    +0.000 C 
ENDBRANCH  15  21
ENDBRANCH  14  19
ENDBRANCH  12  14
ENDBRANCH   1  12
TORSDOF 8
ENDMDL
MODEL 5
REMARK VINA RESULT:      -6.6      1.004      2.063
REMARK  Name = 
REMARK  12 active torsions:
REMARK  status: ('A' for Active; 'I' for Inactive)
REMARK    1  A    between atoms: C_1  and  C_2
REMARK    2  A    between atoms: C_2  and  N_3
REMARK    3  A    between atoms: C_7  and  C_8
REMARK    4  A    between atoms: C_8  and  N_9
REMARK    5  A    between atoms: N_9  and  C_10
REMARK    6  A    between atoms: N_9  and  C_11
REMARK    7  A    between atoms: C_11  and  C_12
REMARK    8  A    between atoms: C_14  and  C_15
REMARK    9  A    between atoms: C_15  and  C_16
REMARK   10  A    between atoms: C_16  and  C_17
REMARK   11  A    between atoms: C_17  and  C_18
REMARK   12  A    between atoms: C_17  and  C_19
REMARK                            x       y       z     vdW  Elec       q    Type
REMARK                         _______ _______ _______ _____ _____    ______ ____
ROOT
ATOM      1  C   UNL     1       4.455   7.425  17.650  0.00  0.00    +0.000 C 
ENDROOT
BRANCH   1   2
ATOM      2  C   UNL     1       5.341   6.581  16.790  0.00  0.00    +0.000 A 
ATOM      3  N   UNL     1       5.057   5.534  16.041  0.00  0.00    +0.000 NA
ATOM      4  C   UNL     1       6.287   5.209  15.527  0.00  0.00    +0.000 A 
ATOM      5  N   UNL     1       7.294   5.996  15.926  0.00  0.00    +0.000 NA
ATOM      6  O   UNL     1       6.665   6.917  16.766  0.00  0.00    +0.000 OA
BRANCH   4   7
ATOM      7  C   UNL     1       6.495   4.068  14.599  0.00  0.00    +0.000 C 
BRANCH   7   8
ATOM      8  C   UNL     1       5.350   3.863  13.603  0.00  0.00    +0.000 C 
BRANCH   8   9
ATOM      9  C   UNL     1       5.722   3.114  12.307  0.00  0.00    +0.000 C 
ATOM     10  C   UNL     1       4.577   3.082  11.292  0.00  0.00    +0.000 C 
ATOM     11  C   UNL     1       6.952   3.765  11.670  0.00  0.00    +0.000 C 
ENDBRANCH   8   9
ENDBRANCH   7   8
ENDBRANCH   4   7
ENDBRANCH   1   2
BRANCH   1  12
ATOM     12  N   UNL     1       3.338   6.680  18.272  0.00  0.00    +0.000 NA
ATOM     13  C   UNL     1       2.338   7.616  18.795  0.00  0.00    +0.000 C 
BRANCH  12  14
ATOM     14  C   UNL     1       3.792   5.723  19.308  0.00  0.00    +0.000 C 
BRANCH  14  19
ATOM     15  N   UNL     1       2.347   3.632  19.070  0.00  0.00    +0.000 N 
ATOM     16  C   UNL     1       1.365   3.003  19.795  0.00  0.00    +0.000 A 
ATOM     17  C   UNL     1       1.269   3.709  20.965  0.00  0.00    +0.000 A 
ATOM     18  N   UNL     1       2.140   4.759  20.960  0.00  0.00    +0.000 NA
ATOM     19  C   UNL     1       2.777   4.726  19.798  0.00  0.00    +0.000 A 
BRANCH  15  21
ATOM     20  C   UNL     1       3.502   1.862  17.789  0.00  0.00    +0.000 C 
ATOM     21  C   UNL     1       2.780   3.199  17.754  0.00  0.00    +0.000 C 
ENDBRANCH  15  21
ENDBRANCH  14  19
ENDBRANCH  12  14
ENDBRANCH   1  12
TORSDOF 8
ENDMDL
MODEL 6
REMARK VINA RESULT:      -6.5      1.173      1.653
REMARK  Name = 
REMARK  12 active torsions:
REMARK  status: ('A' for Active; 'I' for Inactive)
REMARK    1  A    between atoms: C_1  and  C_2
REMARK    2  A    between atoms: C_2  and  N_3
REMARK    3  A    between atoms: C_7  and  C_8
REMARK    4  A    between atoms: C_8  and  N_9
REMARK    5  A    between atoms: N_9  and  C_10
REMARK    6  A    between atoms: N_9  and  C_11
REMARK    7  A    between atoms: C_11  and  C_12
REMARK    8  A    between atoms: C_14  and  C_15
REMARK    9  A    between atoms: C_15  and  C_16
REMARK   10  A    between atoms: C_16  and  C_17
REMARK   11  A    between atoms: C_17  and  C_18
REMARK   12  A    between atoms: C_17  and  C_19
REMARK                            x       y       z     vdW  Elec       q    Type
REMARK                         _______ _______ _______ _____ _____    ______ ____
ROOT
ATOM      1  C   UNL     1       4.746   5.782  17.675  0.00  0.00    +0.000 C 
ENDROOT
BRANCH   1   2
ATOM      2  C   UNL     1       5.551   5.413  16.469  0.00  0.00    +0.000 A 
ATOM      3  N   UNL     1       5.361   4.465  15.574  0.00  0.00    +0.000 NA
ATOM      4  C   UNL     1       6.440   4.636  14.744  0.00  0.00    +0.000 A 
ATOM      5  N   UNL     1       7.270   5.628  15.091  0.00  0.00    +0.000 NA
ATOM      6  O   UNL     1       6.677   6.153  16.240  0.00  0.00    +0.000 OA
BRANCH   4   7
ATOM      7  C   UNL     1       6.679   3.786  13.550  0.00  0.00    +0.000 C 
BRANCH   7   8
ATOM      8  C   UNL     1       5.736   4.081  12.380  0.00  0.00    +0.000 C 
BRANCH   8   9
ATOM      9  C   UNL     1       4.868   2.897  11.908  0.00  0.00    +0.000 C 
ATOM     10  C   UNL     1       3.829   3.304  10.862  0.00  0.00    +0.000 C 
ATOM     11  C   UNL     1       5.766   1.796  11.337  0.00  0.00    +0.000 C 
ENDBRANCH   8   9
ENDBRANCH   7   8
ENDBRANCH   4   7
ENDBRANCH   1   2
BRANCH   1  12
ATOM     12  N   UNL     1       5.297   5.258  18.945  0.00  0.00    +0.000 NA
ATOM     13  C   UNL     1       6.718   5.600  19.057  0.00  0.00    +0.000 C 
BRANCH  12  14
ATOM     14  C   UNL     1       5.065   3.805  19.116  0.00  0.00    +0.000 C 
BRANCH  14  19
ATOM     15  N   UNL     1       2.571   3.546  19.600  0.00  0.00    +0.000 N 
ATOM     16  C   UNL     1       1.509   2.865  19.058  0.00  0.00    +0.000 A 
ATOM     17  C   UNL     1       1.999   2.271  17.926  0.00  0.00    +0.000 A 
ATOM     18  N   UNL     1       3.327   2.547  17.779  0.00  0.00    +0.000 NA
ATOM     19  C   UNL     1       3.680   3.302  18.811  0.00  0.00    +0.000 A 
BRANCH  15  21
ATOM     20  C   UNL     1       1.672   5.601  20.638  0.00  0.00    +0.000 C 
ATOM     21  C   UNL     1       2.488   4.332  20.817  0.00  0.00    +0.000 C 
ENDBRANCH  15  21
ENDBRANCH  14  19
ENDBRANCH  12  14
ENDBRANCH   1  12
TORSDOF 8
ENDMDL
MODEL 7
REMARK VINA RESULT:      -6.5      0.857      1.173
REMARK  Name = 
REMARK  12 active torsions:
REMARK  status: ('A' for Active; 'I' for Inactive)
REMARK    1  A    between atoms: C_1  and  C_2
REMARK    2  A    between atoms: C_2  and  N_3
REMARK    3  A    between atoms: C_7  and  C_8
REMARK    4  A    between atoms: C_8  and  N_9
REMARK    5  A    between atoms: N_9  and  C_10
REMARK    6  A    between atoms: N_9  and  C_11
REMARK    7  A    between atoms: C_11  and  C_12
REMARK    8  A    between atoms: C_14  and  C_15
REMARK    9  A    between atoms: C_15  and  C_16
REMARK   10  A    between atoms: C_16  and  C_17
REMARK   11  A    between atoms: C_17  and  C_18
REMARK   12  A    between atoms: C_17  and  C_19
REMARK                            x       y       z     vdW  Elec       q    Type
REMARK                         _______ _______ _______ _____ _____    ______ ____
ROOT
ATOM      1  C   UNL     1       4.847   6.736  17.290  0.00  0.00    +0.000 C 
ENDROOT
BRANCH   1   2
ATOM      2  C   UNL     1       5.698   6.135  16.217  0.00  0.00    +0.000 A 
ATOM      3  N   UNL     1       5.363   5.413  15.166  0.00  0.00    +0.000 NA
ATOM      4  C   UNL     1       6.583   5.160  14.592  0.00  0.00    +0.000 A 
ATOM      5  N   UNL     1       7.632   5.684  15.238  0.00  0.00    +0.000 NA
ATOM      6  O   UNL     1       7.045   6.340  16.322  0.00  0.00    +0.000 OA
BRANCH   4   7
ATOM      7  C   UNL     1       6.737   4.363  13.349  0.00  0.00    +0.000 C 
BRANCH   7   8
ATOM      8  C   UNL     1       5.579   3.397  13.084  0.00  0.00    +0.000 C 
BRANCH   8   9
ATOM      9  C   UNL     1       5.385   2.978  11.612  0.00  0.00    +0.000 C 
ATOM     10  C   UNL     1       5.704   1.501  11.370  0.00  0.00    +0.000 C 
ATOM     11  C   UNL     1       3.945   3.268  11.179  0.00  0.00    +0.000 C 
ENDBRANCH   8   9
ENDBRANCH   7   8
ENDBRANCH   4   7
ENDBRANCH   1   2
BRANCH   1  12
ATOM     12  N   UNL     1       4.874   5.985  18.566  0.00  0.00    +0.000 NA
ATOM     13  C   UNL     1       5.875   4.916  18.499  0.00  0.00    +0.000 C 
BRANCH  12  14
ATOM     14  C   UNL     1       3.541   5.469  18.956  0.00  0.00    +0.000 C 
BRANCH  14  19
ATOM     15  N   UNL     1       3.202   2.968  19.339  0.00  0.00    +0.000 N 
ATOM     16  C   UNL     1       2.925   1.864  18.571  0.00  0.00    +0.000 A 
ATOM     17  C   UNL     1       2.714   2.345  17.306  0.00  0.00    +0.000 A 
ATOM     18  N   UNL     1       2.880   3.699  17.278  0.00  0.00    +0.000 NA
ATOM     19  C   UNL     1       3.200   4.074  18.509  0.00  0.00    +0.000 A 
BRANCH  15  21
ATOM     20  C   UNL     1       2.234   3.099  21.610  0.00  0.00    +0.000 C 
ATOM     21  C   UNL     1       3.481   2.910  20.762  0.00  0.00    +0.000 C 
ENDBRANCH  15  21
ENDBRANCH  14  19
ENDBRANCH  12  14
ENDBRANCH   1  12
TORSDOF 8
ENDMDL
MODEL 8
REMARK VINA RESULT:      -6.4      1.332      1.782
REMARK  Name = 
REMARK  12 active torsions:
REMARK  status: ('A' for Active; 'I' for Inactive)
REMARK    1  A    between atoms: C_1  and  C_2
REMARK    2  A    between atoms: C_2  and  N_3
REMARK    3  A    between atoms: C_7  and  C_8
REMARK    4  A    between atoms: C_8  and  N_9
REMARK    5  A    between atoms: N_9  and  C_10
REMARK    6  A    between atoms: N_9  and  C_11
REMARK    7  A    between atoms: C_11  and  C_12
REMARK    8  A    between atoms: C_14  and  C_15
REMARK    9  A    between atoms: C_15  and  C_16
REMARK   10  A    between atoms: C_16  and  C_17
REMARK   11  A    between atoms: C_17  and  C_18
REMARK   12  A    between atoms: C_17  and  C_19
REMARK                            x       y       z     vdW  Elec       q    Type
REMARK                         _______ _______ _______ _____ _____    ______ ____
ROOT
ATOM      1  C   UNL     1       5.929   5.130  17.404  0.00  0.00    +0.000 C 
ENDROOT
BRANCH   1   2
ATOM      2  C   UNL     1       6.405   5.081  15.987  0.00  0.00    +0.000 A 
ATOM      3  N   UNL     1       5.807   4.634  14.901  0.00  0.00    +0.000 NA
ATOM      4  C   UNL     1       6.761   4.851  13.940  0.00  0.00    +0.000 A 
ATOM      5  N   UNL     1       7.899   5.399  14.385  0.00  0.00    +0.000 NA
ATOM      6  O   UNL     1       7.663   5.559  15.751  0.00  0.00    +0.000 OA
BRANCH   4   7
ATOM      7  C   UNL     1       6.556   4.505  12.511  0.00  0.00    +0.000 C 
BRANCH   7   8
ATOM      8  C   UNL     1       6.853   3.039  12.178  0.00  0.00    +0.000 C 
BRANCH   8   9
ATOM      9  C   UNL     1       5.622   2.166  11.862  0.00  0.00    +0.000 C 
ATOM     10  C   UNL     1       4.451   2.975  11.298  0.00  0.00    +0.000 C 
ATOM     11  C   UNL     1       6.011   1.068  10.867  0.00  0.00    +0.000 C 
ENDBRANCH   8   9
ENDBRANCH   7   8
ENDBRANCH   4   7
ENDBRANCH   1   2
BRANCH   1  12
ATOM     12  N   UNL     1       4.501   4.778  17.569  0.00  0.00    +0.000 NA
ATOM     13  C   UNL     1       3.690   5.996  17.662  0.00  0.00    +0.000 C 
BRANCH  12  14
ATOM     14  C   UNL     1       4.261   3.869  18.713  0.00  0.00    +0.000 C 
BRANCH  14  19
ATOM     15  N   UNL     1       2.023   3.749  19.936  0.00  0.00    +0.000 N 
ATOM     16  C   UNL     1       0.856   3.035  19.824  0.00  0.00    +0.000 A 
ATOM     17  C   UNL     1       0.997   2.283  18.689  0.00  0.00    +0.000 A 
ATOM     18  N   UNL     1       2.221   2.498  18.124  0.00  0.00    +0.000 NA
ATOM     19  C   UNL     1       2.853   3.371  18.897  0.00  0.00    +0.000 A 
BRANCH  15  21
ATOM     20  C   UNL     1       1.585   6.019  20.809  0.00  0.00    +0.000 C 
ATOM     21  C   UNL     1       2.293   4.690  21.008  0.00  0.00    +0.000 C 
ENDBRANCH  15  21
ENDBRANCH  14  19
ENDBRANCH  12  14
ENDBRANCH   1  12
TORSDOF 8
ENDMDL
MODEL 9
REMARK VINA RESULT:      -6.3      2.174      6.108
REMARK  Name = 
REMARK  12 active torsions:
REMARK  status: ('A' for Active; 'I' for Inactive)
REMARK    1  A    between atoms: C_1  and  C_2
REMARK    2  A    between atoms: C_2  and  N_3
REMARK    3  A    between atoms: C_7  and  C_8
REMARK    4  A    between atoms: C_8  and  N_9
REMARK    5  A    between atoms: N_9  and  C_10
REMARK    6  A    between atoms: N_9  and  C_11
REMARK    7  A    between atoms: C_11  and  C_12
REMARK    8  A    between atoms: C_14  and  C_15
REMARK    9  A    between atoms: C_15  and  C_16
REMARK   10  A    between atoms: C_16  and  C_17
REMARK   11  A    between atoms: C_17  and  C_18
REMARK   12  A    between atoms: C_17  and  C_19
REMARK                            x       y       z     vdW  Elec       q    Type
REMARK                         _______ _______ _______ _____ _____    ______ ____
ROOT
ATOM      1  C   UNL     1       6.032   6.232  18.114  0.00  0.00    +0.000 C 
ENDROOT
BRANCH   1   2
ATOM      2  C   UNL     1       4.642   6.163  18.662  0.00  0.00    +0.000 A 
ATOM      3  N   UNL     1       4.163   5.497  19.693  0.00  0.00    +0.000 NA
ATOM      4  C   UNL     1       2.834   5.836  19.660  0.00  0.00    +0.000 A 
ATOM      5  N   UNL     1       2.486   6.664  18.668  0.00  0.00    +0.000 NA
ATOM      6  O   UNL     1       3.691   6.889  18.001  0.00  0.00    +0.000 OA
BRANCH   4   7
ATOM      7  C   UNL     1       1.849   5.325  20.647  0.00  0.00    +0.000 C 
BRANCH   7   8
ATOM      8  C   UNL     1       0.917   4.245  20.090  0.00  0.00    +0.000 C 
BRANCH   8   9
ATOM      9  C   UNL     1       1.254   2.797  20.501  0.00  0.00    +0.000 C 
ATOM     10  C   UNL     1       1.796   1.963  19.339  0.00  0.00    +0.000 C 
ATOM     11  C   UNL     1       2.276   2.811  21.642  0.00  0.00    +0.000 C 
ENDBRANCH   8   9
ENDBRANCH   7   8
ENDBRANCH   4   7
ENDBRANCH   1   2
BRANCH   1  12
ATOM     12  N   UNL     1       6.930   5.173  18.627  0.00  0.00    +0.000 NA
ATOM     13  C   UNL     1       7.849   5.732  19.624  0.00  0.00    +0.000 C 
BRANCH  12  14
ATOM     14  C   UNL     1       7.655   4.462  17.548  0.00  0.00    +0.000 C 
BRANCH  14  19
ATOM     15  N   UNL     1       5.853   3.892  15.831  0.00  0.00    +0.000 N 
ATOM     16  C   UNL     1       5.652   4.085  14.486  0.00  0.00    +0.000 A 
ATOM     17  C   UNL     1       6.701   4.860  14.069  0.00  0.00    +0.000 A 
ATOM     18  N   UNL     1       7.543   5.122  15.111  0.00  0.00    +0.000 NA
ATOM     19  C   UNL     1       7.040   4.512  16.176  0.00  0.00    +0.000 A 
BRANCH  15  21
ATOM     20  C   UNL     1       3.530   3.638  16.634  0.00  0.00    +0.000 C 
ATOM     21  C   UNL     1       4.959   3.125  16.678  0.00  0.00    +0.000 C 
ENDBRANCH  15  21
ENDBRANCH  14  19
ENDBRANCH  12  14
ENDBRANCH   1  12
TORSDOF 8
ENDMDL
