MODEL 1
REMARK VINA RESULT:      -6.3      0.000      0.000
REMARK  Name = 
REMARK  7 active torsions:
REMARK  status: ('A' for Active; 'I' for Inactive)
REMARK    1  A    between atoms: C_1  and  N_2
REMARK    2  A    between atoms: N_2  and  C_3
REMARK    3  A    between atoms: N_2  and  C_4
REMARK    4  A    between atoms: N_2  and  C_5
REMARK    5  A    between atoms: C_5  and  C_6
REMARK    6  A    between atoms: C_10  and  C_11
REMARK    7  A    between atoms: C_10  and  C_17
REMARK                            x       y       z     vdW  Elec       q    Type
REMARK                         _______ _______ _______ _____ _____    ______ ____
ROOT
ATOM      1  C   UNL     1       4.403   4.671  17.065  0.00  0.00    +0.000 C 
ATOM      2  C   UNL     1       4.968   3.886  18.229  0.00  0.00    +0.000 C 
ATOM      3  S   UNL     1       4.246   4.647  19.681  0.00  0.00    +0.000 S 
ATOM      4  O   UNL     1       5.152   5.906  19.939  0.00  0.00    +0.000 OA
ATOM      5  C   UNL     1       2.703   5.105  18.688  0.00  0.00    +0.000 C 
ATOM      6  O   UNL     1       2.986   4.715  17.287  0.00  0.00    +0.000 OA
ENDROOT
BRANCH   5   7
ATOM      7  C   UNL     1       2.401   6.615  18.746  0.00  0.00    +0.000 A 
ATOM      8  C   UNL     1       1.992   7.240  19.942  0.00  0.00    +0.000 A 
ATOM      9  C   UNL     1       1.655   8.605  19.970  0.00  0.00    +0.000 A 
ATOM     10  C   UNL     1       1.722   9.371  18.808  0.00  0.00    +0.000 A 
ATOM     11  C   UNL     1       2.186   8.795  17.637  0.00  0.00    +0.000 A 
ATOM     12  C   UNL     1       2.548   7.450  17.619  0.00  0.00    +0.000 A 
ENDBRANCH   5   7
BRANCH   5  13
ATOM     13  C   UNL     1       1.425   4.269  19.102  0.00  0.00    +0.000 C 
ATOM     14  C   UNL     1       1.367   2.809  18.597  0.00  0.00    +0.000 C 
ATOM     15  C   UNL     1       2.144   1.803  19.444  0.00  0.00    +0.000 C 
ATOM     16  C   UNL     1       1.836   1.909  20.934  0.00  0.00    +0.000 C 
ATOM     17  C   UNL     1       1.814   3.338  21.471  0.00  0.00    +0.000 C 
ATOM     18  C   UNL     1       1.013   4.285  20.588  0.00  0.00    +0.000 C 
ENDBRANCH   5  13
BRANCH   1  19
ATOM     19  C   UNL     1       4.808   3.911  15.780  0.00  0.00    +0.000 C 
BRANCH  19  21
ATOM     20  C   UNL     1       5.958   3.890  13.520  0.00  0.00    +0.000 C 
ATOM     21  N   UNL     1       5.886   4.550  14.888  0.00  0.00    +0.000 N 
ATOM     22  C   UNL     1       7.255   4.493  15.559  0.00  0.00    +0.000 C 
ATOM     23  C   UNL     1       5.504   6.024  14.690  0.00  0.00    +0.000 C 
ENDBRANCH  19  21
ENDBRANCH   1  19
TORSDOF 4
ENDMDL
MODEL 2
REMARK VINA RESULT:      -6.2      9.425     12.509
REMARK  Name = 
REMARK  7 active torsions:
REMARK  status: ('A' for Active; 'I' for Inactive)
REMARK    1  A    between atoms: C_1  and  N_2
REMARK    2  A    between atoms: N_2  and  C_3
REMARK    3  A    between atoms: N_2  and  C_4
REMARK    4  A    between atoms: N_2  and  C_5
REMARK    5  A    between atoms: C_5  and  C_6
REMARK    6  A    between atoms: C_10  and  C_11
REMARK    7  A    between atoms: C_10  and  C_17
REMARK                            x       y       z     vdW  Elec       q    Type
REMARK                         _______ _______ _______ _____ _____    ______ ____
ROOT
ATOM      1  C   UNL     1      -5.339  11.693  18.737  0.00  0.00    +0.000 C 
ATOM      2  C   UNL     1      -6.747  11.169  18.559  0.00  0.00    +0.000 C 
ATOM      3  S   UNL     1      -7.535  11.444  20.145  0.00  0.00    +0.000 S 
ATOM      4  O   UNL     1      -7.068  10.224  21.017  0.00  0.00    +0.000 OA
ATOM      5  C   UNL     1      -6.440  12.958  20.439  0.00  0.00    +0.000 C 
ATOM      6  O   UNL     1      -5.487  13.002  19.306  0.00  0.00    +0.000 OA
ENDROOT
BRANCH   5   7
ATOM      7  C   UNL     1      -5.656  12.859  21.762  0.00  0.00    +0.000 A 
ATOM      8  C   UNL     1      -4.249  12.771  21.780  0.00  0.00    +0.000 A 
ATOM      9  C   UNL     1      -3.547  12.615  22.988  0.00  0.00    +0.000 A 
ATOM     10  C   UNL     1      -4.233  12.547  24.199  0.00  0.00    +0.000 A 
ATOM     11  C   UNL     1      -5.610  12.699  24.211  0.00  0.00    +0.000 A 
ATOM     12  C   UNL     1      -6.301  12.883  23.016  0.00  0.00    +0.000 A 
ENDBRANCH   5   7
BRANCH   5  13
ATOM     13  C   UNL     1      -7.235  14.325  20.367  0.00  0.00    +0.000 C 
ATOM     14  C   UNL     1      -6.493  15.577  20.889  0.00  0.00    +0.000 C 
ATOM     15  C   UNL     1      -5.540  16.224  19.886  0.00  0.00    +0.000 C 
ATOM     16  C   UNL     1      -6.174  16.459  18.519  0.00  0.00    +0.000 C 
ATOM     17  C   UNL     1      -6.977  15.274  17.988  0.00  0.00    +0.000 C 
ATOM     18  C   UNL     1      -7.916  14.685  19.031  0.00  0.00    +0.000 C 
ENDBRANCH   5  13
BRANCH   1  19
ATOM     19  C   UNL     1      -4.686  11.694  17.334  0.00  0.00    +0.000 C 
BRANCH  19  21
ATOM     20  C   UNL     1      -2.846  10.984  15.741  0.00  0.00    +0.000 C 
ATOM     21  N   UNL     1      -3.328  10.985  17.183  0.00  0.00    +0.000 N 
ATOM     22  C   UNL     1      -3.399   9.553  17.702  0.00  0.00    +0.000 C 
ATOM     23  C   UNL     1      -2.309  11.759  18.030  0.00  0.00    +0.000 C 
ENDBRANCH  19  21
ENDBRANCH   1  19
TORSDOF 4
ENDMDL
MODEL 3
REMARK VINA RESULT:      -6.0      0.066      1.003
REMARK  Name = 
REMARK  7 active torsions:
REMARK  status: ('A' for Active; 'I' for Inactive)
REMARK    1  A    between atoms: C_1  and  N_2
REMARK    2  A    between atoms: N_2  and  C_3
REMARK    3  A    between atoms: N_2  and  C_4
REMARK    4  A    between atoms: N_2  and  C_5
REMARK    5  A    between atoms: C_5  and  C_6
REMARK    6  A    between atoms: C_10  and  C_11
REMARK    7  A    between atoms: C_10  and  C_17
REMARK                            x       y       z     vdW  Elec       q    Type
REMARK                         _______ _______ _______ _____ _____    ______ ____
ROOT
ATOM      1  C   UNL     1       4.361   4.670  17.057  0.00  0.00    +0.000 C 
ATOM      2  C   UNL     1       4.950   3.904  18.221  0.00  0.00    +0.000 C 
ATOM      3  S   UNL     1       4.219   4.657  19.673  0.00  0.00    +0.000 S 
ATOM      4  O   UNL     1       5.100   5.936  19.920  0.00  0.00    +0.000 OA
ATOM      5  C   UNL     1       2.662   5.077  18.687  0.00  0.00    +0.000 C 
ATOM      6  O   UNL     1       2.944   4.686  17.286  0.00  0.00    +0.000 OA
ENDROOT
BRANCH   5   7
ATOM      7  C   UNL     1       2.328   6.580  18.739  0.00  0.00    +0.000 A 
ATOM      8  C   UNL     1       2.406   7.394  17.589  0.00  0.00    +0.000 A 
ATOM      9  C   UNL     1       2.164   8.777  17.660  0.00  0.00    +0.000 A 
ATOM     10  C   UNL     1       1.837   9.374  18.876  0.00  0.00    +0.000 A 
ATOM     11  C   UNL     1       1.689   8.584  20.005  0.00  0.00    +0.000 A 
ATOM     12  C   UNL     1       1.900   7.210  19.926  0.00  0.00    +0.000 A 
ENDBRANCH   5   7
BRANCH   5  13
ATOM     13  C   UNL     1       1.404   4.216  19.113  0.00  0.00    +0.000 C 
ATOM     14  C   UNL     1       1.376   2.751  18.618  0.00  0.00    +0.000 C 
ATOM     15  C   UNL     1       2.178   1.769  19.470  0.00  0.00    +0.000 C 
ATOM     16  C   UNL     1       1.874   1.880  20.960  0.00  0.00    +0.000 C 
ATOM     17  C   UNL     1       1.823   3.311  21.486  0.00  0.00    +0.000 C 
ATOM     18  C   UNL     1       0.998   4.234  20.600  0.00  0.00    +0.000 C 
ENDBRANCH   5  13
BRANCH   1  19
ATOM     19  C   UNL     1       4.774   3.913  15.773  0.00  0.00    +0.000 C 
BRANCH  19  21
ATOM     20  C   UNL     1       5.972   3.880  13.538  0.00  0.00    +0.000 C 
ATOM     21  N   UNL     1       5.881   4.538  14.905  0.00  0.00    +0.000 N 
ATOM     22  C   UNL     1       7.234   4.458  15.605  0.00  0.00    +0.000 C 
ATOM     23  C   UNL     1       5.526   6.018  14.704  0.00  0.00    +0.000 C 
ENDBRANCH  19  21
ENDBRANCH   1  19
TORSDOF 4
ENDMDL
MODEL 4
REMARK VINA RESULT:      -5.9      9.175     11.191
REMARK  Name = 
REMARK  7 active torsions:
REMARK  status: ('A' for Active; 'I' for Inactive)
REMARK    1  A    between atoms: C_1  and  N_2
REMARK    2  A    between atoms: N_2  and  C_3
REMARK    3  A    between atoms: N_2  and  C_4
REMARK    4  A    between atoms: N_2  and  C_5
REMARK    5  A    between atoms: C_5  and  C_6
REMARK    6  A    between atoms: C_10  and  C_11
REMARK    7  A    between atoms: C_10  and  C_17
REMARK                            x       y       z     vdW  Elec       q    Type
REMARK                         _______ _______ _______ _____ _____    ______ ____
ROOT
ATOM      1  C   UNL     1       7.935  14.812  20.309  0.00  0.00    +0.000 C 
ATOM      2  C   UNL     1       9.250  15.552  20.424  0.00  0.00    +0.000 C 
ATOM      3  S   UNL     1      10.054  14.825  21.850  0.00  0.00    +0.000 S 
ATOM      4  O   UNL     1       9.398  15.564  23.072  0.00  0.00    +0.000 OA
ATOM      5  C   UNL     1       9.198  13.174  21.506  0.00  0.00    +0.000 C 
ATOM      6  O   UNL     1       8.273  13.419  20.375  0.00  0.00    +0.000 OA
ENDROOT
BRANCH   5   7
ATOM      7  C   UNL     1       8.394  12.672  22.722  0.00  0.00    +0.000 A 
ATOM      8  C   UNL     1       9.017  12.407  23.959  0.00  0.00    +0.000 A 
ATOM      9  C   UNL     1       8.287  11.887  25.042  0.00  0.00    +0.000 A 
ATOM     10  C   UNL     1       6.925  11.624  24.914  0.00  0.00    +0.000 A 
ATOM     11  C   UNL     1       6.278  11.940  23.730  0.00  0.00    +0.000 A 
ATOM     12  C   UNL     1       6.998  12.483  22.667  0.00  0.00    +0.000 A 
ENDBRANCH   5   7
BRANCH   5  13
ATOM     13  C   UNL     1      10.190  12.052  20.998  0.00  0.00    +0.000 C 
ATOM     14  C   UNL     1       9.541  10.775  20.415  0.00  0.00    +0.000 C 
ATOM     15  C   UNL     1       9.113  10.881  18.953  0.00  0.00    +0.000 C 
ATOM     16  C   UNL     1      10.205  11.437  18.046  0.00  0.00    +0.000 C 
ATOM     17  C   UNL     1      10.925  12.660  18.607  0.00  0.00    +0.000 C 
ATOM     18  C   UNL     1      11.337  12.484  20.061  0.00  0.00    +0.000 C 
ENDBRANCH   5  13
BRANCH   1  19
ATOM     19  C   UNL     1       7.304  15.235  18.961  0.00  0.00    +0.000 C 
BRANCH  19  21
ATOM     20  C   UNL     1       5.575  17.086  18.849  0.00  0.00    +0.000 C 
ATOM     21  N   UNL     1       5.806  15.588  18.958  0.00  0.00    +0.000 N 
ATOM     22  C   UNL     1       5.116  15.050  20.207  0.00  0.00    +0.000 C 
ATOM     23  C   UNL     1       5.178  14.914  17.729  0.00  0.00    +0.000 C 
ENDBRANCH  19  21
ENDBRANCH   1  19
TORSDOF 4
ENDMDL
MODEL 5
REMARK VINA RESULT:      -5.8      9.420     11.402
REMARK  Name = 
REMARK  7 active torsions:
REMARK  status: ('A' for Active; 'I' for Inactive)
REMARK    1  A    between atoms: C_1  and  N_2
REMARK    2  A    between atoms: N_2  and  C_3
REMARK    3  A    between atoms: N_2  and  C_4
REMARK    4  A    between atoms: N_2  and  C_5
REMARK    5  A    between atoms: C_5  and  C_6
REMARK    6  A    between atoms: C_10  and  C_11
REMARK    7  A    between atoms: C_10  and  C_17
REMARK                            x       y       z     vdW  Elec       q    Type
REMARK                         _______ _______ _______ _____ _____    ______ ____
ROOT
ATOM      1  C   UNL     1       8.153  14.719  19.935  0.00  0.00    +0.000 C 
ATOM      2  C   UNL     1       9.530  15.271  19.636  0.00  0.00    +0.000 C 
ATOM      3  S   UNL     1      10.551  14.695  20.991  0.00  0.00    +0.000 S 
ATOM      4  O   UNL     1      10.263  15.722  22.145  0.00  0.00    +0.000 OA
ATOM      5  C   UNL     1       9.472  13.151  21.162  0.00  0.00    +0.000 C 
ATOM      6  O   UNL     1       8.351  13.325  20.210  0.00  0.00    +0.000 OA
ENDROOT
BRANCH   5   7
ATOM      7  C   UNL     1       8.911  12.989  22.588  0.00  0.00    +0.000 A 
ATOM      8  C   UNL     1       8.801  14.086  23.466  0.00  0.00    +0.000 A 
ATOM      9  C   UNL     1       8.350  13.917  24.787  0.00  0.00    +0.000 A 
ATOM     10  C   UNL     1       7.998  12.653  25.255  0.00  0.00    +0.000 A 
ATOM     11  C   UNL     1       8.033  11.571  24.390  0.00  0.00    +0.000 A 
ATOM     12  C   UNL     1       8.452  11.746  23.073  0.00  0.00    +0.000 A 
ENDBRANCH   5   7
BRANCH   5  13
ATOM     13  C   UNL     1      10.205  11.825  20.702  0.00  0.00    +0.000 C 
ATOM     14  C   UNL     1       9.390  10.868  19.802  0.00  0.00    +0.000 C 
ATOM     15  C   UNL     1       9.384  11.229  18.318  0.00  0.00    +0.000 C 
ATOM     16  C   UNL     1      10.777  11.497  17.760  0.00  0.00    +0.000 C 
ATOM     17  C   UNL     1      11.649  12.384  18.645  0.00  0.00    +0.000 C 
ATOM     18  C   UNL     1      11.621  11.962  20.107  0.00  0.00    +0.000 C 
ENDBRANCH   5  13
BRANCH   1  19
ATOM     19  C   UNL     1       7.286  14.989  18.681  0.00  0.00    +0.000 C 
BRANCH  19  21
ATOM     20  C   UNL     1       5.837  17.065  18.805  0.00  0.00    +0.000 C 
ATOM     21  N   UNL     1       5.870  15.549  18.905  0.00  0.00    +0.000 N 
ATOM     22  C   UNL     1       5.316  15.109  20.256  0.00  0.00    +0.000 C 
ATOM     23  C   UNL     1       4.970  14.975  17.801  0.00  0.00    +0.000 C 
ENDBRANCH  19  21
ENDBRANCH   1  19
TORSDOF 4
ENDMDL
MODEL 6
REMARK VINA RESULT:      -5.7      9.401     11.700
REMARK  Name = 
REMARK  7 active torsions:
REMARK  status: ('A' for Active; 'I' for Inactive)
REMARK    1  A    between atoms: C_1  and  N_2
REMARK    2  A    between atoms: N_2  and  C_3
REMARK    3  A    between atoms: N_2  and  C_4
REMARK    4  A    between atoms: N_2  and  C_5
REMARK    5  A    between atoms: C_5  and  C_6
REMARK    6  A    between atoms: C_10  and  C_11
REMARK    7  A    between atoms: C_10  and  C_17
REMARK                            x       y       z     vdW  Elec       q    Type
REMARK                         _______ _______ _______ _____ _____    ______ ____
ROOT
ATOM      1  C   UNL     1       7.331  15.039  18.798  0.00  0.00    +0.000 C 
ATOM      2  C   UNL     1       8.184  15.654  17.710  0.00  0.00    +0.000 C 
ATOM      3  S   UNL     1       9.756  15.987  18.503  0.00  0.00    +0.000 S 
ATOM      4  O   UNL     1       9.522  17.349  19.251  0.00  0.00    +0.000 OA
ATOM      5  C   UNL     1       9.496  14.514  19.661  0.00  0.00    +0.000 C 
ATOM      6  O   UNL     1       8.136  14.001  19.374  0.00  0.00    +0.000 OA
ENDROOT
BRANCH   5   7
ATOM      7  C   UNL     1       9.586  14.919  21.145  0.00  0.00    +0.000 A 
ATOM      8  C   UNL     1       8.585  14.557  22.070  0.00  0.00    +0.000 A 
ATOM      9  C   UNL     1       8.642  14.988  23.408  0.00  0.00    +0.000 A 
ATOM     10  C   UNL     1       9.697  15.783  23.848  0.00  0.00    +0.000 A 
ATOM     11  C   UNL     1      10.727  16.095  22.974  0.00  0.00    +0.000 A 
ATOM     12  C   UNL     1      10.683  15.643  21.657  0.00  0.00    +0.000 A 
ENDBRANCH   5   7
BRANCH   5  13
ATOM     13  C   UNL     1      10.470  13.304  19.358  0.00  0.00    +0.000 C 
ATOM     14  C   UNL     1      10.664  12.279  20.499  0.00  0.00    +0.000 C 
ATOM     15  C   UNL     1       9.576  11.212  20.597  0.00  0.00    +0.000 C 
ATOM     16  C   UNL     1       9.271  10.539  19.264  0.00  0.00    +0.000 C 
ATOM     17  C   UNL     1       9.137  11.504  18.089  0.00  0.00    +0.000 C 
ATOM     18  C   UNL     1      10.259  12.531  18.041  0.00  0.00    +0.000 C 
ENDBRANCH   5  13
BRANCH   1  19
ATOM     19  C   UNL     1       6.045  14.519  18.112  0.00  0.00    +0.000 C 
BRANCH  19  21
ATOM     20  C   UNL     1       3.617  13.880  18.470  0.00  0.00    +0.000 C 
ATOM     21  N   UNL     1       4.696  14.918  18.737  0.00  0.00    +0.000 N 
ATOM     22  C   UNL     1       4.238  16.279  18.224  0.00  0.00    +0.000 C 
ATOM     23  C   UNL     1       4.905  15.016  20.255  0.00  0.00    +0.000 C 
ENDBRANCH  19  21
ENDBRANCH   1  19
TORSDOF 4
ENDMDL
MODEL 7
REMARK VINA RESULT:      -5.7      8.164     11.133
REMARK  Name = 
REMARK  7 active torsions:
REMARK  status: ('A' for Active; 'I' for Inactive)
REMARK    1  A    between atoms: C_1  and  N_2
REMARK    2  A    between atoms: N_2  and  C_3
REMARK    3  A    between atoms: N_2  and  C_4
REMARK    4  A    between atoms: N_2  and  C_5
REMARK    5  A    between atoms: C_5  and  C_6
REMARK    6  A    between atoms: C_10  and  C_11
REMARK    7  A    between atoms: C_10  and  C_17
REMARK                            x       y       z     vdW  Elec       q    Type
REMARK                         _______ _______ _______ _____ _____    ______ ____
ROOT
ATOM      1  C   UNL     1      -2.138  12.920  21.614  0.00  0.00    +0.000 C 
ATOM      2  C   UNL     1      -0.750  12.622  22.136  0.00  0.00    +0.000 C 
ATOM      3  S   UNL     1       0.030  11.675  20.830  0.00  0.00    +0.000 S 
ATOM      4  O   UNL     1      -0.496  10.212  21.057  0.00  0.00    +0.000 OA
ATOM      5  C   UNL     1      -1.008  12.584  19.536  0.00  0.00    +0.000 C 
ATOM      6  O   UNL     1      -1.945  13.446  20.293  0.00  0.00    +0.000 OA
ENDROOT
BRANCH   5   7
ATOM      7  C   UNL     1      -1.811  11.614  18.649  0.00  0.00    +0.000 A 
ATOM      8  C   UNL     1      -1.173  10.617  17.881  0.00  0.00    +0.000 A 
ATOM      9  C   UNL     1      -1.908   9.780  17.024  0.00  0.00    +0.000 A 
ATOM     10  C   UNL     1      -3.290   9.918  16.917  0.00  0.00    +0.000 A 
ATOM     11  C   UNL     1      -3.946  10.845  17.712  0.00  0.00    +0.000 A 
ATOM     12  C   UNL     1      -3.219  11.653  18.583  0.00  0.00    +0.000 A 
ENDBRANCH   5   7
BRANCH   5  13
ATOM     13  C   UNL     1      -0.158  13.577  18.643  0.00  0.00    +0.000 C 
ATOM     14  C   UNL     1      -0.274  15.080  18.989  0.00  0.00    +0.000 C 
ATOM     15  C   UNL     1       0.621  15.547  20.135  0.00  0.00    +0.000 C 
ATOM     16  C   UNL     1       2.071  15.101  19.985  0.00  0.00    +0.000 C 
ATOM     17  C   UNL     1       2.239  13.640  19.577  0.00  0.00    +0.000 C 
ATOM     18  C   UNL     1       1.331  13.243  18.422  0.00  0.00    +0.000 C 
ENDBRANCH   5  13
BRANCH   1  19
ATOM     19  C   UNL     1      -2.774  13.931  22.599  0.00  0.00    +0.000 C 
BRANCH  19  21
ATOM     20  C   UNL     1      -4.868  14.790  23.741  0.00  0.00    +0.000 C 
ATOM     21  N   UNL     1      -4.140  13.567  23.206  0.00  0.00    +0.000 N 
ATOM     22  C   UNL     1      -3.986  12.533  24.316  0.00  0.00    +0.000 C 
ATOM     23  C   UNL     1      -4.991  12.952  22.085  0.00  0.00    +0.000 C 
ENDBRANCH  19  21
ENDBRANCH   1  19
TORSDOF 4
ENDMDL
MODEL 8
REMARK VINA RESULT:      -5.7      9.408     11.402
REMARK  Name = 
REMARK  7 active torsions:
REMARK  status: ('A' for Active; 'I' for Inactive)
REMARK    1  A    between atoms: C_1  and  N_2
REMARK    2  A    between atoms: N_2  and  C_3
REMARK    3  A    between atoms: N_2  and  C_4
REMARK    4  A    between atoms: N_2  and  C_5
REMARK    5  A    between atoms: C_5  and  C_6
REMARK    6  A    between atoms: C_10  and  C_11
REMARK    7  A    between atoms: C_10  and  C_17
REMARK                            x       y       z     vdW  Elec       q    Type
REMARK                         _______ _______ _______ _____ _____    ______ ____
ROOT
ATOM      1  C   UNL     1       8.191  14.766  19.992  0.00  0.00    +0.000 C 
ATOM      2  C   UNL     1       9.576  15.310  19.715  0.00  0.00    +0.000 C 
ATOM      3  S   UNL     1      10.576  14.710  21.076  0.00  0.00    +0.000 S 
ATOM      4  O   UNL     1      10.283  15.727  22.238  0.00  0.00    +0.000 OA
ATOM      5  C   UNL     1       9.484  13.173  21.217  0.00  0.00    +0.000 C 
ATOM      6  O   UNL     1       8.375  13.367  20.255  0.00  0.00    +0.000 OA
ENDROOT
BRANCH   5   7
ATOM      7  C   UNL     1       8.905  13.000  22.635  0.00  0.00    +0.000 A 
ATOM      8  C   UNL     1       8.518  11.735  23.124  0.00  0.00    +0.000 A 
ATOM      9  C   UNL     1       7.929  11.596  24.393  0.00  0.00    +0.000 A 
ATOM     10  C   UNL     1       7.718  12.714  25.198  0.00  0.00    +0.000 A 
ATOM     11  C   UNL     1       8.152  13.957  24.767  0.00  0.00    +0.000 A 
ATOM     12  C   UNL     1       8.761  14.088  23.521  0.00  0.00    +0.000 A 
ENDBRANCH   5   7
BRANCH   5  13
ATOM     13  C   UNL     1      10.212  11.847  20.751  0.00  0.00    +0.000 C 
ATOM     14  C   UNL     1       9.367  10.861  19.911  0.00  0.00    +0.000 C 
ATOM     15  C   UNL     1       9.287  11.189  18.422  0.00  0.00    +0.000 C 
ATOM     16  C   UNL     1      10.648  11.462  17.793  0.00  0.00    +0.000 C 
ATOM     17  C   UNL     1      11.549  12.378  18.616  0.00  0.00    +0.000 C 
ATOM     18  C   UNL     1      11.596  11.988  20.087  0.00  0.00    +0.000 C 
ENDBRANCH   5  13
BRANCH   1  19
ATOM     19  C   UNL     1       7.341  15.056  18.732  0.00  0.00    +0.000 C 
BRANCH  19  21
ATOM     20  C   UNL     1       5.363  15.133  20.316  0.00  0.00    +0.000 C 
ATOM     21  N   UNL     1       5.892  15.528  18.947  0.00  0.00    +0.000 N 
ATOM     22  C   UNL     1       4.972  14.977  17.862  0.00  0.00    +0.000 C 
ATOM     23  C   UNL     1       5.889  17.060  18.853  0.00  0.00    +0.000 C 
ENDBRANCH  19  21
ENDBRANCH   1  19
TORSDOF 4
ENDMDL
MODEL 9
REMARK VINA RESULT:      -5.7      8.178     11.121
REMARK  Name = 
REMARK  7 active torsions:
REMARK  status: ('A' for Active; 'I' for Inactive)
REMARK    1  A    between atoms: C_1  and  N_2
REMARK    2  A    between atoms: N_2  and  C_3
REMARK    3  A    between atoms: N_2  and  C_4
REMARK    4  A    between atoms: N_2  and  C_5
REMARK    5  A    between atoms: C_5  and  C_6
REMARK    6  A    between atoms: C_10  and  C_11
REMARK    7  A    between atoms: C_10  and  C_17
REMARK                            x       y       z     vdW  Elec       q    Type
REMARK                         _______ _______ _______ _____ _____    ______ ____
ROOT
ATOM      1  C   UNL     1      -2.119  12.851  21.739  0.00  0.00    +0.000 C 
ATOM      2  C   UNL     1      -0.719  12.549  22.226  0.00  0.00    +0.000 C 
ATOM      3  S   UNL     1       0.048  11.662  20.871  0.00  0.00    +0.000 S 
ATOM      4  O   UNL     1      -0.458  10.185  21.050  0.00  0.00    +0.000 OA
ATOM      5  C   UNL     1      -1.021  12.608  19.631  0.00  0.00    +0.000 C 
ATOM      6  O   UNL     1      -1.955  13.429  20.436  0.00  0.00    +0.000 OA
ENDROOT
BRANCH   5   7
ATOM      7  C   UNL     1      -1.829  11.663  18.720  0.00  0.00    +0.000 A 
ATOM      8  C   UNL     1      -3.236  11.730  18.650  0.00  0.00    +0.000 A 
ATOM      9  C   UNL     1      -3.968  10.821  17.867  0.00  0.00    +0.000 A 
ATOM     10  C   UNL     1      -3.313   9.831  17.138  0.00  0.00    +0.000 A 
ATOM     11  C   UNL     1      -1.928   9.788  17.138  0.00  0.00    +0.000 A 
ATOM     12  C   UNL     1      -1.203  10.709  17.892  0.00  0.00    +0.000 A 
ENDBRANCH   5   7
BRANCH   5  13
ATOM     13  C   UNL     1      -0.199  13.644  18.763  0.00  0.00    +0.000 C 
ATOM     14  C   UNL     1      -0.269  15.123  19.211  0.00  0.00    +0.000 C 
ATOM     15  C   UNL     1       0.689  15.499  20.338  0.00  0.00    +0.000 C 
ATOM     16  C   UNL     1       2.122  15.042  20.087  0.00  0.00    +0.000 C 
ATOM     17  C   UNL     1       2.243  13.609  19.577  0.00  0.00    +0.000 C 
ATOM     18  C   UNL     1       1.271  13.303  18.446  0.00  0.00    +0.000 C 
ENDBRANCH   5  13
BRANCH   1  19
ATOM     19  C   UNL     1      -2.749  13.816  22.772  0.00  0.00    +0.000 C 
BRANCH  19  21
ATOM     20  C   UNL     1      -5.014  12.873  22.133  0.00  0.00    +0.000 C 
ATOM     21  N   UNL     1      -4.188  13.522  23.232  0.00  0.00    +0.000 N 
ATOM     22  C   UNL     1      -4.878  14.794  23.712  0.00  0.00    +0.000 C 
ATOM     23  C   UNL     1      -4.103  12.542  24.411  0.00  0.00    +0.000 C 
ENDBRANCH  19  21
ENDBRANCH   1  19
TORSDOF 4
ENDMDL
