MODEL 1
REMARK VINA RESULT:      -6.6      0.000      0.000
REMARK  Name = 
REMARK  4 active torsions:
REMARK  status: ('A' for Active; 'I' for Inactive)
REMARK    1  A    between atoms: C_1  and  P_2
REMARK    2  A    between atoms: P_2  and  C_3
REMARK    3  A    between atoms: P_2  and  C_9
REMARK    4  A    between atoms: C_12  and  O_13
REMARK                            x       y       z     vdW  Elec       q    Type
REMARK                         _______ _______ _______ _____ _____    ______ ____
ROOT
ATOM      1  C   UNL     1       2.679   7.170  18.607  0.00  0.00    +0.000 C 
ATOM      2  P   UNL     1       3.733   5.835  19.293  0.00  0.00    +0.000 P 
ENDROOT
BRANCH   2   3
ATOM      3  C   UNL     1       2.718   4.327  19.105  0.00  0.00    +0.000 A 
ATOM      4  C   UNL     1       2.930   3.361  18.110  0.00  0.00    +0.000 A 
ATOM      5  C   UNL     1       2.081   2.256  17.981  0.00  0.00    +0.000 A 
ATOM      6  C   UNL     1       0.998   2.103  18.839  0.00  0.00    +0.000 A 
ATOM      7  C   UNL     1       0.769   3.049  19.833  0.00  0.00    +0.000 A 
ATOM      8  C   UNL     1       1.623   4.149  19.967  0.00  0.00    +0.000 A 
ENDBRANCH   2   3
BRANCH   2   9
ATOM      9  C   UNL     1       4.969   5.653  17.964  0.00  0.00    +0.000 A 
ATOM     10  C   UNL     1       4.664   6.119  16.675  0.00  0.00    +0.000 A 
ATOM     11  C   UNL     1       5.569   5.965  15.617  0.00  0.00    +0.000 A 
ATOM     12  C   UNL     1       6.788   5.340  15.849  0.00  0.00    +0.000 A 
ATOM     13  C   UNL     1       7.113   4.874  17.114  0.00  0.00    +0.000 A 
ATOM     14  C   UNL     1       6.209   5.033  18.168  0.00  0.00    +0.000 A 
BRANCH  12  15
ATOM     15  O   UNL     1       7.701   5.158  14.852  0.00  0.00    +0.000 OA
ATOM     16  H   UNL     1       8.447   5.763  14.998  0.00  0.00    +0.000 HD
ENDBRANCH  12  15
ENDBRANCH   2   9
TORSDOF 3
ENDMDL
MODEL 2
REMARK VINA RESULT:      -6.6      0.850      1.880
REMARK  Name = 
REMARK  4 active torsions:
REMARK  status: ('A' for Active; 'I' for Inactive)
REMARK    1  A    between atoms: C_1  and  P_2
REMARK    2  A    between atoms: P_2  and  C_3
REMARK    3  A    between atoms: P_2  and  C_9
REMARK    4  A    between atoms: C_12  and  O_13
REMARK                            x       y       z     vdW  Elec       q    Type
REMARK                         _______ _______ _______ _____ _____    ______ ____
ROOT
ATOM      1  C   UNL     1       2.310   7.568  17.914  0.00  0.00    +0.000 C 
ATOM      2  P   UNL     1       3.265   6.564  19.114  0.00  0.00    +0.000 P 
ENDROOT
BRANCH   2   3
ATOM      3  C   UNL     1       2.244   5.068  19.353  0.00  0.00    +0.000 A 
ATOM      4  C   UNL     1       1.838   4.592  20.609  0.00  0.00    +0.000 A 
ATOM      5  C   UNL     1       1.106   3.405  20.731  0.00  0.00    +0.000 A 
ATOM      6  C   UNL     1       0.776   2.668  19.600  0.00  0.00    +0.000 A 
ATOM      7  C   UNL     1       1.168   3.122  18.344  0.00  0.00    +0.000 A 
ATOM      8  C   UNL     1       1.893   4.312  18.222  0.00  0.00    +0.000 A 
ENDBRANCH   2   3
BRANCH   2   9
ATOM      9  C   UNL     1       4.622   5.958  18.057  0.00  0.00    +0.000 A 
ATOM     10  C   UNL     1       5.631   5.161  18.624  0.00  0.00    +0.000 A 
ATOM     11  C   UNL     1       6.710   4.706  17.856  0.00  0.00    +0.000 A 
ATOM     12  C   UNL     1       6.783   5.049  16.512  0.00  0.00    +0.000 A 
ATOM     13  C   UNL     1       5.798   5.830  15.929  0.00  0.00    +0.000 A 
ATOM     14  C   UNL     1       4.720   6.281  16.697  0.00  0.00    +0.000 A 
BRANCH  12  15
ATOM     15  O   UNL     1       7.817   4.638  15.723  0.00  0.00    +0.000 OA
ATOM     16  H   UNL     1       8.642   4.702  16.232  0.00  0.00    +0.000 HD
ENDBRANCH  12  15
ENDBRANCH   2   9
TORSDOF 3
ENDMDL
MODEL 3
REMARK VINA RESULT:      -6.5      0.170      1.254
REMARK  Name = 
REMARK  4 active torsions:
REMARK  status: ('A' for Active; 'I' for Inactive)
REMARK    1  A    between atoms: C_1  and  P_2
REMARK    2  A    between atoms: P_2  and  C_3
REMARK    3  A    between atoms: P_2  and  C_9
REMARK    4  A    between atoms: C_12  and  O_13
REMARK                            x       y       z     vdW  Elec       q    Type
REMARK                         _______ _______ _______ _____ _____    ______ ____
ROOT
ATOM      1  C   UNL     1       2.795   7.083  18.934  0.00  0.00    +0.000 C 
ATOM      2  P   UNL     1       3.830   5.653  19.426  0.00  0.00    +0.000 P 
ENDROOT
BRANCH   2   3
ATOM      3  C   UNL     1       2.728   4.211  19.212  0.00  0.00    +0.000 A 
ATOM      4  C   UNL     1       2.916   3.222  18.235  0.00  0.00    +0.000 A 
ATOM      5  C   UNL     1       2.003   2.173  18.081  0.00  0.00    +0.000 A 
ATOM      6  C   UNL     1       0.878   2.101  18.896  0.00  0.00    +0.000 A 
ATOM      7  C   UNL     1       0.672   3.071  19.871  0.00  0.00    +0.000 A 
ATOM      8  C   UNL     1       1.590   4.115  20.030  0.00  0.00    +0.000 A 
ENDBRANCH   2   3
BRANCH   2   9
ATOM      9  C   UNL     1       4.945   5.520  17.989  0.00  0.00    +0.000 A 
ATOM     10  C   UNL     1       6.168   4.842  18.129  0.00  0.00    +0.000 A 
ATOM     11  C   UNL     1       7.070   4.750  17.061  0.00  0.00    +0.000 A 
ATOM     12  C   UNL     1       6.749   5.339  15.845  0.00  0.00    +0.000 A 
ATOM     13  C   UNL     1       5.547   6.011  15.681  0.00  0.00    +0.000 A 
ATOM     14  C   UNL     1       4.647   6.099  16.748  0.00  0.00    +0.000 A 
BRANCH  12  15
ATOM     15  O   UNL     1       7.595   5.285  14.777  0.00  0.00    +0.000 OA
ATOM     16  H   UNL     1       8.174   6.065  14.798  0.00  0.00    +0.000 HD
ENDBRANCH  12  15
ENDBRANCH   2   9
TORSDOF 3
ENDMDL
MODEL 4
REMARK VINA RESULT:      -6.4      0.564      1.354
REMARK  Name = 
REMARK  4 active torsions:
REMARK  status: ('A' for Active; 'I' for Inactive)
REMARK    1  A    between atoms: C_1  and  P_2
REMARK    2  A    between atoms: P_2  and  C_3
REMARK    3  A    between atoms: P_2  and  C_9
REMARK    4  A    between atoms: C_12  and  O_13
REMARK                            x       y       z     vdW  Elec       q    Type
REMARK                         _______ _______ _______ _____ _____    ______ ____
ROOT
ATOM      1  C   UNL     1       2.396   7.463  18.056  0.00  0.00    +0.000 C 
ATOM      2  P   UNL     1       3.319   6.326  19.160  0.00  0.00    +0.000 P 
ENDROOT
BRANCH   2   3
ATOM      3  C   UNL     1       2.298   4.810  19.190  0.00  0.00    +0.000 A 
ATOM      4  C   UNL     1       1.429   4.475  20.239  0.00  0.00    +0.000 A 
ATOM      5  C   UNL     1       0.718   3.270  20.233  0.00  0.00    +0.000 A 
ATOM      6  C   UNL     1       0.872   2.373  19.181  0.00  0.00    +0.000 A 
ATOM      7  C   UNL     1       1.728   2.686  18.130  0.00  0.00    +0.000 A 
ATOM      8  C   UNL     1       2.433   3.895  18.133  0.00  0.00    +0.000 A 
ENDBRANCH   2   3
BRANCH   2   9
ATOM      9  C   UNL     1       4.710   5.849  18.081  0.00  0.00    +0.000 A 
ATOM     10  C   UNL     1       4.679   6.208  16.723  0.00  0.00    +0.000 A 
ATOM     11  C   UNL     1       5.708   5.829  15.851  0.00  0.00    +0.000 A 
ATOM     12  C   UNL     1       6.776   5.087  16.339  0.00  0.00    +0.000 A 
ATOM     13  C   UNL     1       6.831   4.724  17.677  0.00  0.00    +0.000 A 
ATOM     14  C   UNL     1       5.804   5.106  18.545  0.00  0.00    +0.000 A 
BRANCH  12  15
ATOM     15  O   UNL     1       7.799   4.686  15.531  0.00  0.00    +0.000 OA
ATOM     16  H   UNL     1       7.642   5.029  14.636  0.00  0.00    +0.000 HD
ENDBRANCH  12  15
ENDBRANCH   2   9
TORSDOF 3
ENDMDL
MODEL 5
REMARK VINA RESULT:      -6.4      2.984      5.886
REMARK  Name = 
REMARK  4 active torsions:
REMARK  status: ('A' for Active; 'I' for Inactive)
REMARK    1  A    between atoms: C_1  and  P_2
REMARK    2  A    between atoms: P_2  and  C_3
REMARK    3  A    between atoms: P_2  and  C_9
REMARK    4  A    between atoms: C_12  and  O_13
REMARK                            x       y       z     vdW  Elec       q    Type
REMARK                         _______ _______ _______ _____ _____    ______ ____
ROOT
ATOM      1  C   UNL     1       2.931   7.291  17.818  0.00  0.00    +0.000 C 
ATOM      2  P   UNL     1       3.751   5.674  17.550  0.00  0.00    +0.000 P 
ENDROOT
BRANCH   2   3
ATOM      3  C   UNL     1       5.494   5.979  18.009  0.00  0.00    +0.000 A 
ATOM      4  C   UNL     1       6.139   5.353  19.087  0.00  0.00    +0.000 A 
ATOM      5  C   UNL     1       7.459   5.673  19.425  0.00  0.00    +0.000 A 
ATOM      6  C   UNL     1       8.154   6.632  18.697  0.00  0.00    +0.000 A 
ATOM      7  C   UNL     1       7.533   7.265  17.625  0.00  0.00    +0.000 A 
ATOM      8  C   UNL     1       6.217   6.939  17.282  0.00  0.00    +0.000 A 
ENDBRANCH   2   3
BRANCH   2   9
ATOM      9  C   UNL     1       3.123   4.726  18.976  0.00  0.00    +0.000 A 
ATOM     10  C   UNL     1       3.085   3.323  18.904  0.00  0.00    +0.000 A 
ATOM     11  C   UNL     1       2.575   2.559  19.962  0.00  0.00    +0.000 A 
ATOM     12  C   UNL     1       2.099   3.199  21.098  0.00  0.00    +0.000 A 
ATOM     13  C   UNL     1       2.128   4.582  21.194  0.00  0.00    +0.000 A 
ATOM     14  C   UNL     1       2.641   5.343  20.138  0.00  0.00    +0.000 A 
BRANCH  12  15
ATOM     15  O   UNL     1       1.585   2.502  22.152  0.00  0.00    +0.000 OA
ATOM     16  H   UNL     1       1.026   3.098  22.677  0.00  0.00    +0.000 HD
ENDBRANCH  12  15
ENDBRANCH   2   9
TORSDOF 3
ENDMDL
MODEL 6
REMARK VINA RESULT:      -6.4      2.967      5.835
REMARK  Name = 
REMARK  4 active torsions:
REMARK  status: ('A' for Active; 'I' for Inactive)
REMARK    1  A    between atoms: C_1  and  P_2
REMARK    2  A    between atoms: P_2  and  C_3
REMARK    3  A    between atoms: P_2  and  C_9
REMARK    4  A    between atoms: C_12  and  O_13
REMARK                            x       y       z     vdW  Elec       q    Type
REMARK                         _______ _______ _______ _____ _____    ______ ____
ROOT
ATOM      1  C   UNL     1       2.916   7.288  17.960  0.00  0.00    +0.000 C 
ATOM      2  P   UNL     1       3.715   5.680  17.588  0.00  0.00    +0.000 P 
ENDROOT
BRANCH   2   3
ATOM      3  C   UNL     1       5.466   5.939  18.044  0.00  0.00    +0.000 A 
ATOM      4  C   UNL     1       6.083   5.336  19.151  0.00  0.00    +0.000 A 
ATOM      5  C   UNL     1       7.412   5.620  19.483  0.00  0.00    +0.000 A 
ATOM      6  C   UNL     1       8.146   6.522  18.720  0.00  0.00    +0.000 A 
ATOM      7  C   UNL     1       7.554   7.132  17.618  0.00  0.00    +0.000 A 
ATOM      8  C   UNL     1       6.228   6.840  17.282  0.00  0.00    +0.000 A 
ENDBRANCH   2   3
BRANCH   2   9
ATOM      9  C   UNL     1       3.092   4.657  18.963  0.00  0.00    +0.000 A 
ATOM     10  C   UNL     1       2.535   5.287  20.089  0.00  0.00    +0.000 A 
ATOM     11  C   UNL     1       2.079   4.540  21.183  0.00  0.00    +0.000 A 
ATOM     12  C   UNL     1       2.180   3.155  21.153  0.00  0.00    +0.000 A 
ATOM     13  C   UNL     1       2.723   2.511  20.052  0.00  0.00    +0.000 A 
ATOM     14  C   UNL     1       3.174   3.258  18.960  0.00  0.00    +0.000 A 
BRANCH  12  15
ATOM     15  O   UNL     1       1.758   2.383  22.196  0.00  0.00    +0.000 OA
ATOM     16  H   UNL     1       1.494   2.965  22.927  0.00  0.00    +0.000 HD
ENDBRANCH  12  15
ENDBRANCH   2   9
TORSDOF 3
ENDMDL
MODEL 7
REMARK VINA RESULT:      -6.3      2.990      5.807
REMARK  Name = 
REMARK  4 active torsions:
REMARK  status: ('A' for Active; 'I' for Inactive)
REMARK    1  A    between atoms: C_1  and  P_2
REMARK    2  A    between atoms: P_2  and  C_3
REMARK    3  A    between atoms: P_2  and  C_9
REMARK    4  A    between atoms: C_12  and  O_13
REMARK                            x       y       z     vdW  Elec       q    Type
REMARK                         _______ _______ _______ _____ _____    ______ ____
ROOT
ATOM      1  C   UNL     1       2.758   7.239  17.848  0.00  0.00    +0.000 C 
ATOM      2  P   UNL     1       3.658   5.665  17.580  0.00  0.00    +0.000 P 
ENDROOT
BRANCH   2   3
ATOM      3  C   UNL     1       5.387   6.061  18.022  0.00  0.00    +0.000 A 
ATOM      4  C   UNL     1       6.189   6.962  17.306  0.00  0.00    +0.000 A 
ATOM      5  C   UNL     1       7.526   7.179  17.659  0.00  0.00    +0.000 A 
ATOM      6  C   UNL     1       8.087   6.490  18.728  0.00  0.00    +0.000 A 
ATOM      7  C   UNL     1       7.310   5.591  19.451  0.00  0.00    +0.000 A 
ATOM      8  C   UNL     1       5.971   5.381  19.103  0.00  0.00    +0.000 A 
ENDBRANCH   2   3
BRANCH   2   9
ATOM      9  C   UNL     1       3.091   4.693  19.016  0.00  0.00    +0.000 A 
ATOM     10  C   UNL     1       3.176   3.291  18.972  0.00  0.00    +0.000 A 
ATOM     11  C   UNL     1       2.718   2.505  20.037  0.00  0.00    +0.000 A 
ATOM     12  C   UNL     1       2.170   3.123  21.154  0.00  0.00    +0.000 A 
ATOM     13  C   UNL     1       2.079   4.505  21.222  0.00  0.00    +0.000 A 
ATOM     14  C   UNL     1       2.540   5.287  20.159  0.00  0.00    +0.000 A 
BRANCH  12  15
ATOM     15  O   UNL     1       1.702   2.404  22.214  0.00  0.00    +0.000 OA
ATOM     16  H   UNL     1       2.459   2.083  22.731  0.00  0.00    +0.000 HD
ENDBRANCH  12  15
ENDBRANCH   2   9
TORSDOF 3
ENDMDL
MODEL 8
REMARK VINA RESULT:      -6.2      1.842      3.095
REMARK  Name = 
REMARK  4 active torsions:
REMARK  status: ('A' for Active; 'I' for Inactive)
REMARK    1  A    between atoms: C_1  and  P_2
REMARK    2  A    between atoms: P_2  and  C_3
REMARK    3  A    between atoms: P_2  and  C_9
REMARK    4  A    between atoms: C_12  and  O_13
REMARK                            x       y       z     vdW  Elec       q    Type
REMARK                         _______ _______ _______ _____ _____    ______ ____
ROOT
ATOM      1  C   UNL     1       4.458   2.872  19.613  0.00  0.00    +0.000 C 
ATOM      2  P   UNL     1       3.496   3.548  18.206  0.00  0.00    +0.000 P 
ENDROOT
BRANCH   2   3
ATOM      3  C   UNL     1       2.843   5.134  18.836  0.00  0.00    +0.000 A 
ATOM      4  C   UNL     1       2.965   6.355  18.154  0.00  0.00    +0.000 A 
ATOM      5  C   UNL     1       2.496   7.548  18.717  0.00  0.00    +0.000 A 
ATOM      6  C   UNL     1       1.906   7.542  19.975  0.00  0.00    +0.000 A 
ATOM      7  C   UNL     1       1.775   6.343  20.669  0.00  0.00    +0.000 A 
ATOM      8  C   UNL     1       2.236   5.150  20.103  0.00  0.00    +0.000 A 
ENDBRANCH   2   3
BRANCH   2   9
ATOM      9  C   UNL     1       4.838   4.082  17.093  0.00  0.00    +0.000 A 
ATOM     10  C   UNL     1       6.073   4.464  17.642  0.00  0.00    +0.000 A 
ATOM     11  C   UNL     1       7.118   4.916  16.826  0.00  0.00    +0.000 A 
ATOM     12  C   UNL     1       6.928   4.988  15.452  0.00  0.00    +0.000 A 
ATOM     13  C   UNL     1       5.718   4.613  14.886  0.00  0.00    +0.000 A 
ATOM     14  C   UNL     1       4.678   4.159  15.703  0.00  0.00    +0.000 A 
BRANCH  12  15
ATOM     15  O   UNL     1       7.910   5.429  14.614  0.00  0.00    +0.000 OA
ATOM     16  H   UNL     1       7.498   5.908  13.876  0.00  0.00    +0.000 HD
ENDBRANCH  12  15
ENDBRANCH   2   9
TORSDOF 3
ENDMDL
MODEL 9
REMARK VINA RESULT:      -6.2      1.160      1.226
REMARK  Name = 
REMARK  4 active torsions:
REMARK  status: ('A' for Active; 'I' for Inactive)
REMARK    1  A    between atoms: C_1  and  P_2
REMARK    2  A    between atoms: P_2  and  C_3
REMARK    3  A    between atoms: P_2  and  C_9
REMARK    4  A    between atoms: C_12  and  O_13
REMARK                            x       y       z     vdW  Elec       q    Type
REMARK                         _______ _______ _______ _____ _____    ______ ____
ROOT
ATOM      1  C   UNL     1       2.668   7.376  18.178  0.00  0.00    +0.000 C 
ATOM      2  P   UNL     1       3.723   6.067  18.908  0.00  0.00    +0.000 P 
ENDROOT
BRANCH   2   3
ATOM      3  C   UNL     1       2.558   4.703  19.261  0.00  0.00    +0.000 A 
ATOM      4  C   UNL     1       1.818   4.034  18.275  0.00  0.00    +0.000 A 
ATOM      5  C   UNL     1       0.897   3.037  18.614  0.00  0.00    +0.000 A 
ATOM      6  C   UNL     1       0.692   2.698  19.947  0.00  0.00    +0.000 A 
ATOM      7  C   UNL     1       1.416   3.349  20.941  0.00  0.00    +0.000 A 
ATOM      8  C   UNL     1       2.342   4.340  20.600  0.00  0.00    +0.000 A 
ENDBRANCH   2   3
BRANCH   2   9
ATOM      9  C   UNL     1       4.604   5.467  17.428  0.00  0.00    +0.000 A 
ATOM     10  C   UNL     1       4.840   6.353  16.364  0.00  0.00    +0.000 A 
ATOM     11  C   UNL     1       5.480   5.924  15.194  0.00  0.00    +0.000 A 
ATOM     12  C   UNL     1       5.887   4.600  15.086  0.00  0.00    +0.000 A 
ATOM     13  C   UNL     1       5.668   3.708  16.124  0.00  0.00    +0.000 A 
ATOM     14  C   UNL     1       5.033   4.140  17.292  0.00  0.00    +0.000 A 
BRANCH  12  15
ATOM     15  O   UNL     1       6.506   4.130  13.965  0.00  0.00    +0.000 OA
ATOM     16  H   UNL     1       7.052   4.841  13.589  0.00  0.00    +0.000 HD
ENDBRANCH  12  15
ENDBRANCH   2   9
TORSDOF 3
ENDMDL
