MODEL 1
REMARK VINA RESULT:      -7.7      0.000      0.000
REMARK  Name = 
REMARK  7 active torsions:
REMARK  status: ('A' for Active; 'I' for Inactive)
REMARK    1  A    between atoms: C_1  and  O_2
REMARK    2  A    between atoms: O_2  and  C_3
REMARK    3  A    between atoms: C_6  and  C_7
REMARK    4  A    between atoms: C_7  and  C_8
REMARK    5  A    between atoms: C_8  and  N_9
REMARK    6  A    between atoms: C_10  and  C_12
REMARK    7  A    between atoms: N_14  and  C_15
REMARK                            x       y       z     vdW  Elec       q    Type
REMARK                         _______ _______ _______ _____ _____    ______ ____
ROOT
ATOM      1  N   UNL     1       7.638   7.171  18.280  0.00  0.00    +0.000 N 
ATOM      2  C   UNL     1       7.192   6.253  17.347  0.00  0.00    +0.000 C 
ATOM      3  O   UNL     1       7.531   6.192  16.171  0.00  0.00    +0.000 OA
ATOM      4  H   UNL     1       7.218   7.098  19.207  0.00  0.00    +0.000 HD
ENDROOT
BRANCH   2   5
ATOM      5  C   UNL     1       6.195   5.231  17.915  0.00  0.00    +0.000 C 
ATOM      6  O   UNL     1       6.629   4.389  18.694  0.00  0.00    +0.000 OA
ATOM      7  N   UNL     1       4.905   5.376  17.435  0.00  0.00    +0.000 N 
ATOM      8  H   UNL     1       4.793   6.080  16.706  0.00  0.00    +0.000 HD
BRANCH   7   9
ATOM      9  C   UNL     1       3.801   4.572  17.788  0.00  0.00    +0.000 A 
ATOM     10  C   UNL     1       3.435   3.446  17.047  0.00  0.00    +0.000 A 
ATOM     11  C   UNL     1       2.335   2.672  17.411  0.00  0.00    +0.000 A 
ATOM     12  C   UNL     1       1.578   3.035  18.517  0.00  0.00    +0.000 A 
ATOM     13  F   UNL     1       0.514   2.286  18.842  0.00  0.00    +0.000 F 
ATOM     14  C   UNL     1       1.930   4.149  19.273  0.00  0.00    +0.000 A 
ATOM     15 CL   UNL     1       0.977   4.610  20.633  0.00  0.00    +0.000 Cl
ATOM     16  C   UNL     1       3.053   4.912  18.923  0.00  0.00    +0.000 A 
ENDBRANCH   7   9
ENDBRANCH   2   5
BRANCH   1  17
ATOM     17  C   UNL     1       8.575   8.219  17.948  0.00  0.00    +0.000 C 
BRANCH  17  18
ATOM     18  C   UNL     1       7.917   9.598  17.862  0.00  0.00    +0.000 C 
BRANCH  18  22
ATOM     19  C   UNL     1      10.473  12.729  19.417  0.00  0.00    +0.000 A 
ATOM     20  C   UNL     1       9.703  12.945  18.275  0.00  0.00    +0.000 A 
ATOM     21  C   UNL     1       8.868  11.940  17.779  0.00  0.00    +0.000 A 
ATOM     22  C   UNL     1       8.805  10.691  18.413  0.00  0.00    +0.000 A 
ATOM     23  C   UNL     1       9.598  10.475  19.549  0.00  0.00    +0.000 A 
ATOM     24  C   UNL     1      10.427  11.486  20.047  0.00  0.00    +0.000 A 
BRANCH  19  26
ATOM     25  C   UNL     1      11.703  14.637  18.750  0.00  0.00    +0.000 C 
ATOM     26  O   UNL     1      11.262  13.782  19.800  0.00  0.00    +0.000 OA
ENDBRANCH  19  26
ENDBRANCH  18  22
ENDBRANCH  17  18
ENDBRANCH   1  17
TORSDOF 6
ENDMDL
MODEL 2
REMARK VINA RESULT:      -7.7      1.269      1.351
REMARK  Name = 
REMARK  7 active torsions:
REMARK  status: ('A' for Active; 'I' for Inactive)
REMARK    1  A    between atoms: C_1  and  O_2
REMARK    2  A    between atoms: O_2  and  C_3
REMARK    3  A    between atoms: C_6  and  C_7
REMARK    4  A    between atoms: C_7  and  C_8
REMARK    5  A    between atoms: C_8  and  N_9
REMARK    6  A    between atoms: C_10  and  C_12
REMARK    7  A    between atoms: N_14  and  C_15
REMARK                            x       y       z     vdW  Elec       q    Type
REMARK                         _______ _______ _______ _____ _____    ______ ____
ROOT
ATOM      1  N   UNL     1       7.030   7.988  17.750  0.00  0.00    +0.000 N 
ATOM      2  C   UNL     1       6.777   6.809  17.073  0.00  0.00    +0.000 C 
ATOM      3  O   UNL     1       7.523   6.260  16.270  0.00  0.00    +0.000 OA
ATOM      4  H   UNL     1       6.277   8.321  18.353  0.00  0.00    +0.000 HD
ENDROOT
BRANCH   2   5
ATOM      5  C   UNL     1       5.423   6.174  17.425  0.00  0.00    +0.000 C 
ATOM      6  O   UNL     1       4.425   6.881  17.334  0.00  0.00    +0.000 OA
ATOM      7  N   UNL     1       5.511   4.858  17.843  0.00  0.00    +0.000 N 
ATOM      8  H   UNL     1       6.459   4.500  17.948  0.00  0.00    +0.000 HD
BRANCH   7   9
ATOM      9  C   UNL     1       4.425   4.044  18.229  0.00  0.00    +0.000 A 
ATOM     10  C   UNL     1       3.805   3.161  17.342  0.00  0.00    +0.000 A 
ATOM     11  C   UNL     1       2.730   2.373  17.743  0.00  0.00    +0.000 A 
ATOM     12  C   UNL     1       2.251   2.479  19.043  0.00  0.00    +0.000 A 
ATOM     13  F   UNL     1       1.205   1.723  19.407  0.00  0.00    +0.000 F 
ATOM     14  C   UNL     1       2.859   3.347  19.946  0.00  0.00    +0.000 A 
ATOM     15 CL   UNL     1       2.250   3.492  21.552  0.00  0.00    +0.000 Cl
ATOM     16  C   UNL     1       3.959   4.119  19.548  0.00  0.00    +0.000 A 
ENDBRANCH   7   9
ENDBRANCH   2   5
BRANCH   1  17
ATOM     17  C   UNL     1       8.244   8.746  17.558  0.00  0.00    +0.000 C 
BRANCH  17  18
ATOM     18  C   UNL     1       8.753   9.389  18.849  0.00  0.00    +0.000 C 
BRANCH  18  22
ATOM     19  C   UNL     1      10.426  13.322  18.148  0.00  0.00    +0.000 A 
ATOM     20  C   UNL     1       9.197  12.966  17.595  0.00  0.00    +0.000 A 
ATOM     21  C   UNL     1       8.649  11.701  17.830  0.00  0.00    +0.000 A 
ATOM     22  C   UNL     1       9.336  10.764  18.613  0.00  0.00    +0.000 A 
ATOM     23  C   UNL     1      10.583  11.123  19.150  0.00  0.00    +0.000 A 
ATOM     24  C   UNL     1      11.123  12.392  18.918  0.00  0.00    +0.000 A 
BRANCH  19  26
ATOM     25  C   UNL     1      12.279  14.768  17.874  0.00  0.00    +0.000 C 
ATOM     26  O   UNL     1      10.867  14.581  17.837  0.00  0.00    +0.000 OA
ENDBRANCH  19  26
ENDBRANCH  18  22
ENDBRANCH  17  18
ENDBRANCH   1  17
TORSDOF 6
ENDMDL
MODEL 3
REMARK VINA RESULT:      -7.7      1.307      1.476
REMARK  Name = 
REMARK  7 active torsions:
REMARK  status: ('A' for Active; 'I' for Inactive)
REMARK    1  A    between atoms: C_1  and  O_2
REMARK    2  A    between atoms: O_2  and  C_3
REMARK    3  A    between atoms: C_6  and  C_7
REMARK    4  A    between atoms: C_7  and  C_8
REMARK    5  A    between atoms: C_8  and  N_9
REMARK    6  A    between atoms: C_10  and  C_12
REMARK    7  A    between atoms: N_14  and  C_15
REMARK                            x       y       z     vdW  Elec       q    Type
REMARK                         _______ _______ _______ _____ _____    ______ ____
ROOT
ATOM      1  N   UNL     1       7.713   7.959  18.421  0.00  0.00    +0.000 N 
ATOM      2  C   UNL     1       7.469   6.907  17.556  0.00  0.00    +0.000 C 
ATOM      3  O   UNL     1       7.795   6.850  16.375  0.00  0.00    +0.000 OA
ATOM      4  H   UNL     1       7.335   7.853  19.363  0.00  0.00    +0.000 HD
ENDROOT
BRANCH   2   5
ATOM      5  C   UNL     1       6.736   5.727  18.211  0.00  0.00    +0.000 C 
ATOM      6  O   UNL     1       7.377   5.019  18.980  0.00  0.00    +0.000 OA
ATOM      7  N   UNL     1       5.419   5.592  17.812  0.00  0.00    +0.000 N 
ATOM      8  H   UNL     1       5.123   6.231  17.075  0.00  0.00    +0.000 HD
BRANCH   7   9
ATOM      9  C   UNL     1       4.524   4.595  18.254  0.00  0.00    +0.000 A 
ATOM     10  C   UNL     1       4.256   3.449  17.501  0.00  0.00    +0.000 A 
ATOM     11  C   UNL     1       3.362   2.482  17.954  0.00  0.00    +0.000 A 
ATOM     12  C   UNL     1       2.710   2.667  19.167  0.00  0.00    +0.000 A 
ATOM     13  F   UNL     1       1.842   1.732  19.580  0.00  0.00    +0.000 F 
ATOM     14  C   UNL     1       2.969   3.797  19.937  0.00  0.00    +0.000 A 
ATOM     15 CL   UNL     1       2.145   4.035  21.432  0.00  0.00    +0.000 Cl
ATOM     16  C   UNL     1       3.890   4.757  19.492  0.00  0.00    +0.000 A 
ENDBRANCH   7   9
ENDBRANCH   2   5
BRANCH   1  17
ATOM     17  C   UNL     1       8.386   9.166  18.002  0.00  0.00    +0.000 C 
BRANCH  17  18
ATOM     18  C   UNL     1       9.142   9.851  19.142  0.00  0.00    +0.000 C 
BRANCH  18  22
ATOM     19  C   UNL     1      10.500  13.824  18.079  0.00  0.00    +0.000 A 
ATOM     20  C   UNL     1      10.952  12.708  17.374  0.00  0.00    +0.000 A 
ATOM     21  C   UNL     1      10.505  11.426  17.708  0.00  0.00    +0.000 A 
ATOM     22  C   UNL     1       9.608  11.240  18.768  0.00  0.00    +0.000 A 
ATOM     23  C   UNL     1       9.173  12.365  19.486  0.00  0.00    +0.000 A 
ATOM     24  C   UNL     1       9.617  13.647  19.143  0.00  0.00    +0.000 A 
BRANCH  19  26
ATOM     25  C   UNL     1      10.071  16.070  17.474  0.00  0.00    +0.000 C 
ATOM     26  O   UNL     1      11.018  15.025  17.670  0.00  0.00    +0.000 OA
ENDBRANCH  19  26
ENDBRANCH  18  22
ENDBRANCH  17  18
ENDBRANCH   1  17
TORSDOF 6
ENDMDL
MODEL 4
REMARK VINA RESULT:      -7.7      1.192      1.632
REMARK  Name = 
REMARK  7 active torsions:
REMARK  status: ('A' for Active; 'I' for Inactive)
REMARK    1  A    between atoms: C_1  and  O_2
REMARK    2  A    between atoms: O_2  and  C_3
REMARK    3  A    between atoms: C_6  and  C_7
REMARK    4  A    between atoms: C_7  and  C_8
REMARK    5  A    between atoms: C_8  and  N_9
REMARK    6  A    between atoms: C_10  and  C_12
REMARK    7  A    between atoms: N_14  and  C_15
REMARK                            x       y       z     vdW  Elec       q    Type
REMARK                         _______ _______ _______ _____ _____    ______ ____
ROOT
ATOM      1  N   UNL     1       7.406   6.963  18.117  0.00  0.00    +0.000 N 
ATOM      2  C   UNL     1       7.392   5.845  18.931  0.00  0.00    +0.000 C 
ATOM      3  O   UNL     1       8.209   5.574  19.804  0.00  0.00    +0.000 OA
ATOM      4  H   UNL     1       6.667   7.008  17.415  0.00  0.00    +0.000 HD
ENDROOT
BRANCH   2   5
ATOM      5  C   UNL     1       6.202   4.910  18.673  0.00  0.00    +0.000 C 
ATOM      6  O   UNL     1       6.418   3.875  18.052  0.00  0.00    +0.000 OA
ATOM      7  N   UNL     1       4.997   5.384  19.161  0.00  0.00    +0.000 N 
ATOM      8  H   UNL     1       5.030   6.326  19.551  0.00  0.00    +0.000 HD
BRANCH   7   9
ATOM      9  C   UNL     1       3.752   4.729  19.057  0.00  0.00    +0.000 A 
ATOM     10  C   UNL     1       2.964   4.807  17.906  0.00  0.00    +0.000 A 
ATOM     11  C   UNL     1       1.735   4.158  17.830  0.00  0.00    +0.000 A 
ATOM     12  C   UNL     1       1.273   3.436  18.923  0.00  0.00    +0.000 A 
ATOM     13  F   UNL     1       0.079   2.830  18.836  0.00  0.00    +0.000 F 
ATOM     14  C   UNL     1       2.045   3.339  20.077  0.00  0.00    +0.000 A 
ATOM     15 CL   UNL     1       1.461   2.460  21.439  0.00  0.00    +0.000 Cl
ATOM     16  C   UNL     1       3.295   3.970  20.142  0.00  0.00    +0.000 A 
ENDBRANCH   7   9
ENDBRANCH   2   5
BRANCH   1  17
ATOM     17  C   UNL     1       8.444   7.965  18.195  0.00  0.00    +0.000 C 
BRANCH  17  18
ATOM     18  C   UNL     1       7.955   9.358  17.796  0.00  0.00    +0.000 C 
BRANCH  18  22
ATOM     19  C   UNL     1      10.254  12.510  19.676  0.00  0.00    +0.000 A 
ATOM     20  C   UNL     1      10.056  11.293  20.327  0.00  0.00    +0.000 A 
ATOM     21  C   UNL     1       9.324  10.270  19.716  0.00  0.00    +0.000 A 
ATOM     22  C   UNL     1       8.764  10.458  18.446  0.00  0.00    +0.000 A 
ATOM     23  C   UNL     1       8.951  11.693  17.805  0.00  0.00    +0.000 A 
ATOM     24  C   UNL     1       9.690  12.711  18.417  0.00  0.00    +0.000 A 
BRANCH  19  26
ATOM     25  C   UNL     1      11.846  14.259  19.605  0.00  0.00    +0.000 C 
ATOM     26  O   UNL     1      10.974  13.440  20.379  0.00  0.00    +0.000 OA
ENDBRANCH  19  26
ENDBRANCH  18  22
ENDBRANCH  17  18
ENDBRANCH   1  17
TORSDOF 6
ENDMDL
MODEL 5
REMARK VINA RESULT:      -7.6      0.909      1.366
REMARK  Name = 
REMARK  7 active torsions:
REMARK  status: ('A' for Active; 'I' for Inactive)
REMARK    1  A    between atoms: C_1  and  O_2
REMARK    2  A    between atoms: O_2  and  C_3
REMARK    3  A    between atoms: C_6  and  C_7
REMARK    4  A    between atoms: C_7  and  C_8
REMARK    5  A    between atoms: C_8  and  N_9
REMARK    6  A    between atoms: C_10  and  C_12
REMARK    7  A    between atoms: N_14  and  C_15
REMARK                            x       y       z     vdW  Elec       q    Type
REMARK                         _______ _______ _______ _____ _____    ______ ____
ROOT
ATOM      1  N   UNL     1       6.976   7.347  17.945  0.00  0.00    +0.000 N 
ATOM      2  C   UNL     1       6.886   6.407  16.935  0.00  0.00    +0.000 C 
ATOM      3  O   UNL     1       7.767   6.119  16.132  0.00  0.00    +0.000 OA
ATOM      4  H   UNL     1       6.130   7.485  18.497  0.00  0.00    +0.000 HD
ENDROOT
BRANCH   2   5
ATOM      5  C   UNL     1       5.534   5.681  16.887  0.00  0.00    +0.000 C 
ATOM      6  O   UNL     1       4.799   5.912  15.932  0.00  0.00    +0.000 OA
ATOM      7  N   UNL     1       5.296   4.860  17.976  0.00  0.00    +0.000 N 
ATOM      8  H   UNL     1       6.001   4.903  18.710  0.00  0.00    +0.000 HD
BRANCH   7   9
ATOM      9  C   UNL     1       4.136   4.086  18.184  0.00  0.00    +0.000 A 
ATOM     10  C   UNL     1       3.874   2.926  17.451  0.00  0.00    +0.000 A 
ATOM     11  C   UNL     1       2.717   2.182  17.669  0.00  0.00    +0.000 A 
ATOM     12  C   UNL     1       1.798   2.608  18.618  0.00  0.00    +0.000 A 
ATOM     13  F   UNL     1       0.683   1.886  18.804  0.00  0.00    +0.000 F 
ATOM     14  C   UNL     1       2.043   3.756  19.366  0.00  0.00    +0.000 A 
ATOM     15 CL   UNL     1       0.891   4.295  20.530  0.00  0.00    +0.000 Cl
ATOM     16  C   UNL     1       3.221   4.489  19.165  0.00  0.00    +0.000 A 
ENDBRANCH   7   9
ENDBRANCH   2   5
BRANCH   1  17
ATOM     17  C   UNL     1       8.163   8.143  18.158  0.00  0.00    +0.000 C 
BRANCH  17  18
ATOM     18  C   UNL     1       8.040   9.556  17.583  0.00  0.00    +0.000 C 
BRANCH  18  22
ATOM     19  C   UNL     1      10.538  12.403  19.682  0.00  0.00    +0.000 A 
ATOM     20  C   UNL     1      10.191  11.191  20.278  0.00  0.00    +0.000 A 
ATOM     21  C   UNL     1       9.395  10.266  19.597  0.00  0.00    +0.000 A 
ATOM     22  C   UNL     1       8.919  10.549  18.309  0.00  0.00    +0.000 A 
ATOM     23  C   UNL     1       9.256  11.779  17.725  0.00  0.00    +0.000 A 
ATOM     24  C   UNL     1      10.059  12.699  18.407  0.00  0.00    +0.000 A 
BRANCH  19  26
ATOM     25  C   UNL     1      11.829  14.383  19.788  0.00  0.00    +0.000 C 
ATOM     26  O   UNL     1      11.309  13.235  20.451  0.00  0.00    +0.000 OA
ENDBRANCH  19  26
ENDBRANCH  18  22
ENDBRANCH  17  18
ENDBRANCH   1  17
TORSDOF 6
ENDMDL
MODEL 6
REMARK VINA RESULT:      -7.6      1.125      1.285
REMARK  Name = 
REMARK  7 active torsions:
REMARK  status: ('A' for Active; 'I' for Inactive)
REMARK    1  A    between atoms: C_1  and  O_2
REMARK    2  A    between atoms: O_2  and  C_3
REMARK    3  A    between atoms: C_6  and  C_7
REMARK    4  A    between atoms: C_7  and  C_8
REMARK    5  A    between atoms: C_8  and  N_9
REMARK    6  A    between atoms: C_10  and  C_12
REMARK    7  A    between atoms: N_14  and  C_15
REMARK                            x       y       z     vdW  Elec       q    Type
REMARK                         _______ _______ _______ _____ _____    ______ ____
ROOT
ATOM      1  N   UNL     1       7.387   7.129  17.947  0.00  0.00    +0.000 N 
ATOM      2  C   UNL     1       7.197   5.942  18.632  0.00  0.00    +0.000 C 
ATOM      3  O   UNL     1       7.890   5.515  19.548  0.00  0.00    +0.000 OA
ATOM      4  H   UNL     1       6.734   7.308  17.184  0.00  0.00    +0.000 HD
ENDROOT
BRANCH   2   5
ATOM      5  C   UNL     1       5.970   5.148  18.160  0.00  0.00    +0.000 C 
ATOM      6  O   UNL     1       5.890   4.887  16.964  0.00  0.00    +0.000 OA
ATOM      7  N   UNL     1       5.071   4.848  19.168  0.00  0.00    +0.000 N 
ATOM      8  H   UNL     1       5.286   5.260  20.075  0.00  0.00    +0.000 HD
BRANCH   7   9
ATOM      9  C   UNL     1       3.865   4.135  19.009  0.00  0.00    +0.000 A 
ATOM     10  C   UNL     1       3.350   3.815  17.750  0.00  0.00    +0.000 A 
ATOM     11  C   UNL     1       2.152   3.117  17.618  0.00  0.00    +0.000 A 
ATOM     12  C   UNL     1       1.446   2.748  18.755  0.00  0.00    +0.000 A 
ATOM     13  F   UNL     1       0.287   2.089  18.608  0.00  0.00    +0.000 F 
ATOM     14  C   UNL     1       1.944   3.049  20.019  0.00  0.00    +0.000 A 
ATOM     15 CL   UNL     1       1.056   2.609  21.429  0.00  0.00    +0.000 Cl
ATOM     16  C   UNL     1       3.164   3.728  20.152  0.00  0.00    +0.000 A 
ENDBRANCH   7   9
ENDBRANCH   2   5
BRANCH   1  17
ATOM     17  C   UNL     1       8.486   8.020  18.234  0.00  0.00    +0.000 C 
BRANCH  17  18
ATOM     18  C   UNL     1       8.203   9.465  17.819  0.00  0.00    +0.000 C 
BRANCH  18  22
ATOM     19  C   UNL     1      10.991  12.253  19.611  0.00  0.00    +0.000 A 
ATOM     20  C   UNL     1      10.827  12.206  18.227  0.00  0.00    +0.000 A 
ATOM     21  C   UNL     1       9.919  11.315  17.648  0.00  0.00    +0.000 A 
ATOM     22  C   UNL     1       9.169  10.443  18.449  0.00  0.00    +0.000 A 
ATOM     23  C   UNL     1       9.354  10.482  19.839  0.00  0.00    +0.000 A 
ATOM     24  C   UNL     1      10.259  11.381  20.415  0.00  0.00    +0.000 A 
BRANCH  19  26
ATOM     25  C   UNL     1      12.332  14.139  19.118  0.00  0.00    +0.000 C 
ATOM     26  O   UNL     1      11.919  13.155  20.062  0.00  0.00    +0.000 OA
ENDBRANCH  19  26
ENDBRANCH  18  22
ENDBRANCH  17  18
ENDBRANCH   1  17
TORSDOF 6
ENDMDL
MODEL 7
REMARK VINA RESULT:      -7.6      1.535      1.796
REMARK  Name = 
REMARK  7 active torsions:
REMARK  status: ('A' for Active; 'I' for Inactive)
REMARK    1  A    between atoms: C_1  and  O_2
REMARK    2  A    between atoms: O_2  and  C_3
REMARK    3  A    between atoms: C_6  and  C_7
REMARK    4  A    between atoms: C_7  and  C_8
REMARK    5  A    between atoms: C_8  and  N_9
REMARK    6  A    between atoms: C_10  and  C_12
REMARK    7  A    between atoms: N_14  and  C_15
REMARK                            x       y       z     vdW  Elec       q    Type
REMARK                         _______ _______ _______ _____ _____    ______ ____
ROOT
ATOM      1  N   UNL     1       7.453   7.998  18.078  0.00  0.00    +0.000 N 
ATOM      2  C   UNL     1       7.241   6.859  17.323  0.00  0.00    +0.000 C 
ATOM      3  O   UNL     1       7.752   6.603  16.238  0.00  0.00    +0.000 OA
ATOM      4  H   UNL     1       6.912   8.064  18.940  0.00  0.00    +0.000 HD
ENDROOT
BRANCH   2   5
ATOM      5  C   UNL     1       6.279   5.856  17.977  0.00  0.00    +0.000 C 
ATOM      6  O   UNL     1       6.664   5.280  18.989  0.00  0.00    +0.000 OA
ATOM      7  N   UNL     1       5.081   5.703  17.302  0.00  0.00    +0.000 N 
ATOM      8  H   UNL     1       5.018   6.203  16.416  0.00  0.00    +0.000 HD
BRANCH   7   9
ATOM      9  C   UNL     1       4.027   4.846  17.682  0.00  0.00    +0.000 A 
ATOM     10  C   UNL     1       2.726   5.312  17.883  0.00  0.00    +0.000 A 
ATOM     11  C   UNL     1       1.703   4.448  18.266  0.00  0.00    +0.000 A 
ATOM     12  C   UNL     1       1.983   3.103  18.471  0.00  0.00    +0.000 A 
ATOM     13  F   UNL     1       0.988   2.289  18.854  0.00  0.00    +0.000 F 
ATOM     14  C   UNL     1       3.271   2.616  18.268  0.00  0.00    +0.000 A 
ATOM     15 CL   UNL     1       3.622   0.951  18.542  0.00  0.00    +0.000 Cl
ATOM     16  C   UNL     1       4.294   3.482  17.856  0.00  0.00    +0.000 A 
ENDBRANCH   7   9
ENDBRANCH   2   5
BRANCH   1  17
ATOM     17  C   UNL     1       8.319   9.068  17.638  0.00  0.00    +0.000 C 
BRANCH  17  18
ATOM     18  C   UNL     1       8.962   9.827  18.801  0.00  0.00    +0.000 C 
BRANCH  18  22
ATOM     19  C   UNL     1      10.851  13.497  17.491  0.00  0.00    +0.000 A 
ATOM     20  C   UNL     1       9.461  13.397  17.549  0.00  0.00    +0.000 A 
ATOM     21  C   UNL     1       8.850  12.217  17.984  0.00  0.00    +0.000 A 
ATOM     22  C   UNL     1       9.625  11.109  18.352  0.00  0.00    +0.000 A 
ATOM     23  C   UNL     1      11.022  11.210  18.271  0.00  0.00    +0.000 A 
ATOM     24  C   UNL     1      11.629  12.396  17.843  0.00  0.00    +0.000 A 
BRANCH  19  26
ATOM     25  C   UNL     1      11.632  15.662  18.041  0.00  0.00    +0.000 C 
ATOM     26  O   UNL     1      11.334  14.696  17.037  0.00  0.00    +0.000 OA
ENDBRANCH  19  26
ENDBRANCH  18  22
ENDBRANCH  17  18
ENDBRANCH   1  17
TORSDOF 6
ENDMDL
MODEL 8
REMARK VINA RESULT:      -7.5      4.932      9.747
REMARK  Name = 
REMARK  7 active torsions:
REMARK  status: ('A' for Active; 'I' for Inactive)
REMARK    1  A    between atoms: C_1  and  O_2
REMARK    2  A    between atoms: O_2  and  C_3
REMARK    3  A    between atoms: C_6  and  C_7
REMARK    4  A    between atoms: C_7  and  C_8
REMARK    5  A    between atoms: C_8  and  N_9
REMARK    6  A    between atoms: C_10  and  C_12
REMARK    7  A    between atoms: N_14  and  C_15
REMARK                            x       y       z     vdW  Elec       q    Type
REMARK                         _______ _______ _______ _____ _____    ______ ____
ROOT
ATOM      1  N   UNL     1       6.981   7.551  16.922  0.00  0.00    +0.000 N 
ATOM      2  C   UNL     1       7.849   7.747  17.981  0.00  0.00    +0.000 C 
ATOM      3  O   UNL     1       8.289   6.879  18.727  0.00  0.00    +0.000 OA
ATOM      4  H   UNL     1       6.687   8.395  16.431  0.00  0.00    +0.000 HD
ENDROOT
BRANCH   2   5
ATOM      5  C   UNL     1       8.275   9.211  18.167  0.00  0.00    +0.000 C 
ATOM      6  O   UNL     1       7.835  10.034  17.372  0.00  0.00    +0.000 OA
ATOM      7  N   UNL     1       9.153   9.413  19.217  0.00  0.00    +0.000 N 
ATOM      8  H   UNL     1       9.474   8.564  19.680  0.00  0.00    +0.000 HD
BRANCH   7   9
ATOM      9  C   UNL     1       9.702  10.653  19.603  0.00  0.00    +0.000 A 
ATOM     10  C   UNL     1       9.397  11.253  20.827  0.00  0.00    +0.000 A 
ATOM     11  C   UNL     1       9.945  12.483  21.183  0.00  0.00    +0.000 A 
ATOM     12  C   UNL     1      10.795  13.135  20.299  0.00  0.00    +0.000 A 
ATOM     13  F   UNL     1      11.301  14.325  20.653  0.00  0.00    +0.000 F 
ATOM     14  C   UNL     1      11.118  12.552  19.078  0.00  0.00    +0.000 A 
ATOM     15 CL   UNL     1      12.157  13.372  17.973  0.00  0.00    +0.000 Cl
ATOM     16  C   UNL     1      10.588  11.301  18.732  0.00  0.00    +0.000 A 
ENDBRANCH   7   9
ENDBRANCH   2   5
BRANCH   1  17
ATOM     17  C   UNL     1       6.457   6.249  16.581  0.00  0.00    +0.000 C 
BRANCH  17  18
ATOM     18  C   UNL     1       4.942   6.256  16.370  0.00  0.00    +0.000 C 
BRANCH  18  22
ATOM     19  C   UNL     1       2.765   5.336  19.999  0.00  0.00    +0.000 A 
ATOM     20  C   UNL     1       3.845   4.548  19.602  0.00  0.00    +0.000 A 
ATOM     21  C   UNL     1       4.556   4.852  18.437  0.00  0.00    +0.000 A 
ATOM     22  C   UNL     1       4.185   5.943  17.641  0.00  0.00    +0.000 A 
ATOM     23  C   UNL     1       3.084   6.718  18.036  0.00  0.00    +0.000 A 
ATOM     24  C   UNL     1       2.380   6.416  19.207  0.00  0.00    +0.000 A 
BRANCH  19  26
ATOM     25  C   UNL     1       2.074   3.526  21.358  0.00  0.00    +0.000 C 
ATOM     26  O   UNL     1       2.137   4.934  21.149  0.00  0.00    +0.000 OA
ENDBRANCH  19  26
ENDBRANCH  18  22
ENDBRANCH  17  18
ENDBRANCH   1  17
TORSDOF 6
ENDMDL
MODEL 9
REMARK VINA RESULT:      -7.5      0.573      1.128
REMARK  Name = 
REMARK  7 active torsions:
REMARK  status: ('A' for Active; 'I' for Inactive)
REMARK    1  A    between atoms: C_1  and  O_2
REMARK    2  A    between atoms: O_2  and  C_3
REMARK    3  A    between atoms: C_6  and  C_7
REMARK    4  A    between atoms: C_7  and  C_8
REMARK    5  A    between atoms: C_8  and  N_9
REMARK    6  A    between atoms: C_10  and  C_12
REMARK    7  A    between atoms: N_14  and  C_15
REMARK                            x       y       z     vdW  Elec       q    Type
REMARK                         _______ _______ _______ _____ _____    ______ ____
ROOT
ATOM      1  N   UNL     1       7.852   7.132  18.641  0.00  0.00    +0.000 N 
ATOM      2  C   UNL     1       7.325   6.442  17.565  0.00  0.00    +0.000 C 
ATOM      3  O   UNL     1       7.569   6.648  16.382  0.00  0.00    +0.000 OA
ATOM      4  H   UNL     1       7.507   6.850  19.559  0.00  0.00    +0.000 HD
ENDROOT
BRANCH   2   5
ATOM      5  C   UNL     1       6.366   5.311  17.968  0.00  0.00    +0.000 C 
ATOM      6  O   UNL     1       6.861   4.234  18.283  0.00  0.00    +0.000 OA
ATOM      7  N   UNL     1       5.028   5.653  17.889  0.00  0.00    +0.000 N 
ATOM      8  H   UNL     1       4.840   6.575  17.495  0.00  0.00    +0.000 HD
BRANCH   7   9
ATOM      9  C   UNL     1       3.943   4.806  18.196  0.00  0.00    +0.000 A 
ATOM     10  C   UNL     1       3.277   4.065  17.217  0.00  0.00    +0.000 A 
ATOM     11  C   UNL     1       2.203   3.241  17.543  0.00  0.00    +0.000 A 
ATOM     12  C   UNL     1       1.772   3.168  18.861  0.00  0.00    +0.000 A 
ATOM     13  F   UNL     1       0.727   2.380  19.154  0.00  0.00    +0.000 F 
ATOM     14  C   UNL     1       2.426   3.891  19.854  0.00  0.00    +0.000 A 
ATOM     15 CL   UNL     1       1.877   3.816  21.486  0.00  0.00    +0.000 Cl
ATOM     16  C   UNL     1       3.524   4.699  19.529  0.00  0.00    +0.000 A 
ENDBRANCH   7   9
ENDBRANCH   2   5
BRANCH   1  17
ATOM     17  C   UNL     1       8.770   8.235  18.479  0.00  0.00    +0.000 C 
BRANCH  17  18
ATOM     18  C   UNL     1       8.079   9.519  18.016  0.00  0.00    +0.000 C 
BRANCH  18  22
ATOM     19  C   UNL     1      10.366  13.062  19.005  0.00  0.00    +0.000 A 
ATOM     20  C   UNL     1      10.588  11.863  19.681  0.00  0.00    +0.000 A 
ATOM     21  C   UNL     1       9.860  10.715  19.355  0.00  0.00    +0.000 A 
ATOM     22  C   UNL     1       8.881  10.756  18.353  0.00  0.00    +0.000 A 
ATOM     23  C   UNL     1       8.649  11.971  17.690  0.00  0.00    +0.000 A 
ATOM     24  C   UNL     1       9.385  13.115  18.015  0.00  0.00    +0.000 A 
BRANCH  19  26
ATOM     25  C   UNL     1      12.161  14.527  18.527  0.00  0.00    +0.000 C 
ATOM     26  O   UNL     1      11.129  14.120  19.421  0.00  0.00    +0.000 OA
ENDBRANCH  19  26
ENDBRANCH  18  22
ENDBRANCH  17  18
ENDBRANCH   1  17
TORSDOF 6
ENDMDL
