MODEL 1
REMARK VINA RESULT:      -7.6      0.000      0.000
REMARK  Name = 
REMARK  8 active torsions:
REMARK  status: ('A' for Active; 'I' for Inactive)
REMARK    1  A    between atoms: C_1  and  C_2
REMARK    2  A    between atoms: C_2  and  C_4
REMARK    3  A    between atoms: C_5  and  C_6
REMARK    4  A    between atoms: C_8  and  C_9
REMARK    5  A    between atoms: N_11  and  N_12
REMARK    6  A    between atoms: C_13  and  C_15
REMARK    7  A    between atoms: C_18  and  C_19
REMARK    8  A    between atoms: C_22  and  C_23
REMARK                            x       y       z     vdW  Elec       q    Type
REMARK                         _______ _______ _______ _____ _____    ______ ____
ROOT
ATOM      1  C   UNL     1       2.247   7.517  19.328  0.00  0.00    +0.000 C 
ATOM      2  O   UNL     1       1.940   8.327  18.452  0.00  0.00    +0.000 OA
ATOM      3  N   UNL     1       1.949   7.751  20.657  0.00  0.00    +0.000 N 
ATOM      4  H   UNL     1       1.962   7.016  21.362  0.00  0.00    +0.000 HD
ENDROOT
BRANCH   1   9
ATOM      5  C   UNL     1       3.763   4.122  18.878  0.00  0.00    +0.000 A 
ATOM      6  C   UNL     1       4.256   4.878  17.815  0.00  0.00    +0.000 A 
ATOM      7  C   UNL     1       5.160   4.594  16.664  0.00  0.00    +0.000 C 
ATOM      8  N   UNL     1       3.764   6.157  17.957  0.00  0.00    +0.000 N 
ATOM      9  C   UNL     1       2.898   6.255  19.022  0.00  0.00    +0.000 A 
ATOM     10  C   UNL     1       2.910   5.014  19.650  0.00  0.00    +0.000 A 
ATOM     11  C   UNL     1       2.222   4.628  20.922  0.00  0.00    +0.000 C 
ATOM     12  H   UNL     1       3.984   6.938  17.350  0.00  0.00    +0.000 HD
BRANCH   5  14
ATOM     13  C   UNL     1       3.312   1.589  18.507  0.00  0.00    +0.000 C 
ATOM     14  C   UNL     1       4.025   2.706  19.218  0.00  0.00    +0.000 C 
ATOM     15  O   UNL     1       4.834   2.405  20.103  0.00  0.00    +0.000 OA
ENDBRANCH   5  14
ENDBRANCH   1   9
BRANCH   3  16
ATOM     16  N   UNL     1       1.330   8.960  21.013  0.00  0.00    +0.000 N 
ATOM     17  C   UNL     1       0.030   8.939  21.479  0.00  0.00    +0.000 C 
ATOM     18  O   UNL     1      -0.607   7.904  21.647  0.00  0.00    +0.000 OA
ATOM     19  H   UNL     1       1.767   9.802  20.643  0.00  0.00    +0.000 HD
BRANCH  17  20
ATOM     20  C   UNL     1      -0.581  10.274  21.752  0.00  0.00    +0.000 A 
ATOM     21  C   UNL     1      -0.718  11.186  20.698  0.00  0.00    +0.000 A 
ATOM     22  C   UNL     1      -1.262  12.455  20.929  0.00  0.00    +0.000 A 
ATOM     23  C   UNL     1      -1.690  12.822  22.210  0.00  0.00    +0.000 A 
ATOM     24  C   UNL     1      -2.259  14.186  22.480  0.00  0.00    +0.000 C 
ATOM     25  C   UNL     1      -1.588  11.893  23.253  0.00  0.00    +0.000 A 
ATOM     26  C   UNL     1      -1.036  10.627  23.028  0.00  0.00    +0.000 A 
ENDBRANCH  17  20
ENDBRANCH   3  16
TORSDOF 4
ENDMDL
MODEL 2
REMARK VINA RESULT:      -7.5      1.520      2.268
REMARK  Name = 
REMARK  8 active torsions:
REMARK  status: ('A' for Active; 'I' for Inactive)
REMARK    1  A    between atoms: C_1  and  C_2
REMARK    2  A    between atoms: C_2  and  C_4
REMARK    3  A    between atoms: C_5  and  C_6
REMARK    4  A    between atoms: C_8  and  C_9
REMARK    5  A    between atoms: N_11  and  N_12
REMARK    6  A    between atoms: C_13  and  C_15
REMARK    7  A    between atoms: C_18  and  C_19
REMARK    8  A    between atoms: C_22  and  C_23
REMARK                            x       y       z     vdW  Elec       q    Type
REMARK                         _______ _______ _______ _____ _____    ______ ____
ROOT
ATOM      1  C   UNL     1       1.526   8.087  20.053  0.00  0.00    +0.000 C 
ATOM      2  O   UNL     1       1.613   8.898  19.129  0.00  0.00    +0.000 OA
ATOM      3  N   UNL     1       0.782   8.368  21.184  0.00  0.00    +0.000 N 
ATOM      4  H   UNL     1       0.488   7.649  21.841  0.00  0.00    +0.000 HD
ENDROOT
BRANCH   1   9
ATOM      5  C   UNL     1       3.333   4.843  19.578  0.00  0.00    +0.000 A 
ATOM      6  C   UNL     1       2.518   4.639  20.690  0.00  0.00    +0.000 A 
ATOM      7  C   UNL     1       2.286   3.495  21.618  0.00  0.00    +0.000 C 
ATOM      8  N   UNL     1       1.791   5.793  20.885  0.00  0.00    +0.000 N 
ATOM      9  C   UNL     1       2.155   6.780  19.998  0.00  0.00    +0.000 A 
ATOM     10  C   UNL     1       3.083   6.207  19.135  0.00  0.00    +0.000 A 
ATOM     11  C   UNL     1       3.707   6.825  17.923  0.00  0.00    +0.000 C 
ATOM     12  H   UNL     1       1.086   5.926  21.601  0.00  0.00    +0.000 HD
BRANCH   5  14
ATOM     13  C   UNL     1       3.804   2.962  17.846  0.00  0.00    +0.000 C 
ATOM     14  C   UNL     1       4.271   3.904  18.922  0.00  0.00    +0.000 C 
ATOM     15  O   UNL     1       5.462   3.865  19.248  0.00  0.00    +0.000 OA
ENDBRANCH   5  14
ENDBRANCH   1   9
BRANCH   3  16
ATOM     16  N   UNL     1       0.162   9.622  21.296  0.00  0.00    +0.000 N 
ATOM     17  C   UNL     1      -0.035  10.165  22.551  0.00  0.00    +0.000 C 
ATOM     18  O   UNL     1       0.349   9.626  23.584  0.00  0.00    +0.000 OA
ATOM     19  H   UNL     1      -0.360   9.930  20.478  0.00  0.00    +0.000 HD
BRANCH  17  20
ATOM     20  C   UNL     1      -0.779  11.459  22.587  0.00  0.00    +0.000 A 
ATOM     21  C   UNL     1      -0.248  12.566  21.914  0.00  0.00    +0.000 A 
ATOM     22  C   UNL     1      -0.910  13.799  21.952  0.00  0.00    +0.000 A 
ATOM     23  C   UNL     1      -2.116  13.938  22.648  0.00  0.00    +0.000 A 
ATOM     24  C   UNL     1      -2.830  15.257  22.715  0.00  0.00    +0.000 C 
ATOM     25  C   UNL     1      -2.664  12.818  23.286  0.00  0.00    +0.000 A 
ATOM     26  C   UNL     1      -2.002  11.586  23.258  0.00  0.00    +0.000 A 
ENDBRANCH  17  20
ENDBRANCH   3  16
TORSDOF 4
ENDMDL
MODEL 3
REMARK VINA RESULT:      -7.5      1.310      2.113
REMARK  Name = 
REMARK  8 active torsions:
REMARK  status: ('A' for Active; 'I' for Inactive)
REMARK    1  A    between atoms: C_1  and  C_2
REMARK    2  A    between atoms: C_2  and  C_4
REMARK    3  A    between atoms: C_5  and  C_6
REMARK    4  A    between atoms: C_8  and  C_9
REMARK    5  A    between atoms: N_11  and  N_12
REMARK    6  A    between atoms: C_13  and  C_15
REMARK    7  A    between atoms: C_18  and  C_19
REMARK    8  A    between atoms: C_22  and  C_23
REMARK                            x       y       z     vdW  Elec       q    Type
REMARK                         _______ _______ _______ _____ _____    ______ ____
ROOT
ATOM      1  C   UNL     1       1.973   7.420  20.151  0.00  0.00    +0.000 C 
ATOM      2  O   UNL     1       1.994   8.128  19.142  0.00  0.00    +0.000 OA
ATOM      3  N   UNL     1       1.587   7.931  21.376  0.00  0.00    +0.000 N 
ATOM      4  H   UNL     1       1.324   7.339  22.161  0.00  0.00    +0.000 HD
ENDROOT
BRANCH   1   9
ATOM      5  C   UNL     1       3.116   3.873  19.782  0.00  0.00    +0.000 A 
ATOM      6  C   UNL     1       2.040   3.813  20.667  0.00  0.00    +0.000 A 
ATOM      7  C   UNL     1       1.363   2.713  21.412  0.00  0.00    +0.000 C 
ATOM      8  N   UNL     1       1.549   5.093  20.805  0.00  0.00    +0.000 N 
ATOM      9  C   UNL     1       2.308   6.008  20.114  0.00  0.00    +0.000 A 
ATOM     10  C   UNL     1       3.269   5.276  19.423  0.00  0.00    +0.000 A 
ATOM     11  C   UNL     1       4.273   5.788  18.439  0.00  0.00    +0.000 C 
ATOM     12  H   UNL     1       0.741   5.351  21.360  0.00  0.00    +0.000 HD
BRANCH   5  14
ATOM     13  C   UNL     1       3.502   1.917  18.115  0.00  0.00    +0.000 C 
ATOM     14  C   UNL     1       3.960   2.776  19.261  0.00  0.00    +0.000 C 
ATOM     15  O   UNL     1       5.064   2.531  19.762  0.00  0.00    +0.000 OA
ENDBRANCH   5  14
ENDBRANCH   1   9
BRANCH   3  16
ATOM     16  N   UNL     1       1.264   9.294  21.474  0.00  0.00    +0.000 N 
ATOM     17  C   UNL     1       0.064   9.661  22.050  0.00  0.00    +0.000 C 
ATOM     18  O   UNL     1      -0.726   8.854  22.530  0.00  0.00    +0.000 OA
ATOM     19  H   UNL     1       1.794   9.916  20.866  0.00  0.00    +0.000 HD
BRANCH  17  20
ATOM     20  C   UNL     1      -0.240  11.123  22.036  0.00  0.00    +0.000 A 
ATOM     21  C   UNL     1       0.399  11.940  21.096  0.00  0.00    +0.000 A 
ATOM     22  C   UNL     1       0.155  13.318  21.076  0.00  0.00    +0.000 A 
ATOM     23  C   UNL     1      -0.743  13.894  21.983  0.00  0.00    +0.000 A 
ATOM     24  C   UNL     1      -1.003  15.373  21.989  0.00  0.00    +0.000 C 
ATOM     25  C   UNL     1      -1.410  13.067  22.895  0.00  0.00    +0.000 A 
ATOM     26  C   UNL     1      -1.162  11.691  22.924  0.00  0.00    +0.000 A 
ENDBRANCH  17  20
ENDBRANCH   3  16
TORSDOF 4
ENDMDL
MODEL 4
REMARK VINA RESULT:      -7.4      0.881      1.334
REMARK  Name = 
REMARK  8 active torsions:
REMARK  status: ('A' for Active; 'I' for Inactive)
REMARK    1  A    between atoms: C_1  and  C_2
REMARK    2  A    between atoms: C_2  and  C_4
REMARK    3  A    between atoms: C_5  and  C_6
REMARK    4  A    between atoms: C_8  and  C_9
REMARK    5  A    between atoms: N_11  and  N_12
REMARK    6  A    between atoms: C_13  and  C_15
REMARK    7  A    between atoms: C_18  and  C_19
REMARK    8  A    between atoms: C_22  and  C_23
REMARK                            x       y       z     vdW  Elec       q    Type
REMARK                         _______ _______ _______ _____ _____    ______ ____
ROOT
ATOM      1  C   UNL     1       2.354   7.233  19.113  0.00  0.00    +0.000 C 
ATOM      2  O   UNL     1       2.064   7.864  18.095  0.00  0.00    +0.000 OA
ATOM      3  N   UNL     1       1.895   7.626  20.355  0.00  0.00    +0.000 N 
ATOM      4  H   UNL     1       1.905   7.011  21.166  0.00  0.00    +0.000 HD
ENDROOT
BRANCH   1   9
ATOM      5  C   UNL     1       4.112   3.927  19.190  0.00  0.00    +0.000 A 
ATOM      6  C   UNL     1       5.034   4.810  18.629  0.00  0.00    +0.000 A 
ATOM      7  C   UNL     1       6.423   4.673  18.105  0.00  0.00    +0.000 C 
ATOM      8  N   UNL     1       4.453   6.059  18.618  0.00  0.00    +0.000 N 
ATOM      9  C   UNL     1       3.154   6.022  19.071  0.00  0.00    +0.000 A 
ATOM     10  C   UNL     1       2.922   4.714  19.482  0.00  0.00    +0.000 A 
ATOM     11  C   UNL     1       1.700   4.171  20.154  0.00  0.00    +0.000 C 
ATOM     12  H   UNL     1       4.903   6.910  18.300  0.00  0.00    +0.000 HD
BRANCH   5  14
ATOM     13  C   UNL     1       3.597   1.448  18.600  0.00  0.00    +0.000 C 
ATOM     14  C   UNL     1       4.255   2.482  19.473  0.00  0.00    +0.000 C 
ATOM     15  O   UNL     1       4.914   2.086  20.441  0.00  0.00    +0.000 OA
ENDBRANCH   5  14
ENDBRANCH   1   9
BRANCH   3  16
ATOM     16  N   UNL     1       1.127   8.797  20.458  0.00  0.00    +0.000 N 
ATOM     17  C   UNL     1       0.889   9.338  21.706  0.00  0.00    +0.000 C 
ATOM     18  O   UNL     1       1.356   8.873  22.741  0.00  0.00    +0.000 OA
ATOM     19  H   UNL     1       0.556   9.021  19.645  0.00  0.00    +0.000 HD
BRANCH  17  20
ATOM     20  C   UNL     1      -0.008  10.532  21.733  0.00  0.00    +0.000 A 
ATOM     21  C   UNL     1      -0.745  10.802  22.893  0.00  0.00    +0.000 A 
ATOM     22  C   UNL     1      -1.614  11.899  22.937  0.00  0.00    +0.000 A 
ATOM     23  C   UNL     1      -1.746  12.747  21.831  0.00  0.00    +0.000 A 
ATOM     24  C   UNL     1      -2.687  13.917  21.855  0.00  0.00    +0.000 C 
ATOM     25  C   UNL     1      -0.977  12.496  20.688  0.00  0.00    +0.000 A 
ATOM     26  C   UNL     1      -0.114  11.396  20.636  0.00  0.00    +0.000 A 
ENDBRANCH  17  20
ENDBRANCH   3  16
TORSDOF 4
ENDMDL
MODEL 5
REMARK VINA RESULT:      -7.4      1.404      2.312
REMARK  Name = 
REMARK  8 active torsions:
REMARK  status: ('A' for Active; 'I' for Inactive)
REMARK    1  A    between atoms: C_1  and  C_2
REMARK    2  A    between atoms: C_2  and  C_4
REMARK    3  A    between atoms: C_5  and  C_6
REMARK    4  A    between atoms: C_8  and  C_9
REMARK    5  A    between atoms: N_11  and  N_12
REMARK    6  A    between atoms: C_13  and  C_15
REMARK    7  A    between atoms: C_18  and  C_19
REMARK    8  A    between atoms: C_22  and  C_23
REMARK                            x       y       z     vdW  Elec       q    Type
REMARK                         _______ _______ _______ _____ _____    ______ ____
ROOT
ATOM      1  C   UNL     1       1.762   8.012  20.165  0.00  0.00    +0.000 C 
ATOM      2  O   UNL     1       1.515   8.707  19.177  0.00  0.00    +0.000 OA
ATOM      3  N   UNL     1       1.503   8.467  21.444  0.00  0.00    +0.000 N 
ATOM      4  H   UNL     1       1.461   7.848  22.251  0.00  0.00    +0.000 HD
ENDROOT
BRANCH   1   9
ATOM      5  C   UNL     1       3.325   4.667  19.537  0.00  0.00    +0.000 A 
ATOM      6  C   UNL     1       2.521   4.482  20.662  0.00  0.00    +0.000 A 
ATOM      7  C   UNL     1       2.228   3.325  21.555  0.00  0.00    +0.000 C 
ATOM      8  N   UNL     1       1.882   5.677  20.912  0.00  0.00    +0.000 N 
ATOM      9  C   UNL     1       2.296   6.666  20.051  0.00  0.00    +0.000 A 
ATOM     10  C   UNL     1       3.162   6.060  19.147  0.00  0.00    +0.000 A 
ATOM     11  C   UNL     1       3.802   6.676  17.942  0.00  0.00    +0.000 C 
ATOM     12  H   UNL     1       1.204   5.833  21.649  0.00  0.00    +0.000 HD
BRANCH   5  14
ATOM     13  C   UNL     1       3.646   2.882  17.675  0.00  0.00    +0.000 C 
ATOM     14  C   UNL     1       4.178   3.689  18.828  0.00  0.00    +0.000 C 
ATOM     15  O   UNL     1       5.351   3.504  19.170  0.00  0.00    +0.000 OA
ENDBRANCH   5  14
ENDBRANCH   1   9
BRANCH   3  16
ATOM     16  N   UNL     1       0.999   9.766  21.614  0.00  0.00    +0.000 N 
ATOM     17  C   UNL     1      -0.160   9.947  22.346  0.00  0.00    +0.000 C 
ATOM     18  O   UNL     1      -0.754   9.028  22.901  0.00  0.00    +0.000 OA
ATOM     19  H   UNL     1       1.349  10.464  20.960  0.00  0.00    +0.000 HD
BRANCH  17  20
ATOM     20  C   UNL     1      -0.675  11.347  22.405  0.00  0.00    +0.000 A 
ATOM     21  C   UNL     1      -1.838  11.612  23.138  0.00  0.00    +0.000 A 
ATOM     22  C   UNL     1      -2.359  12.911  23.190  0.00  0.00    +0.000 A 
ATOM     23  C   UNL     1      -1.717  13.961  22.523  0.00  0.00    +0.000 A 
ATOM     24  C   UNL     1      -2.272  15.356  22.551  0.00  0.00    +0.000 C 
ATOM     25  C   UNL     1      -0.533  13.699  21.823  0.00  0.00    +0.000 A 
ATOM     26  C   UNL     1      -0.014  12.401  21.762  0.00  0.00    +0.000 A 
ENDBRANCH  17  20
ENDBRANCH   3  16
TORSDOF 4
ENDMDL
MODEL 6
REMARK VINA RESULT:      -7.4      2.050      9.029
REMARK  Name = 
REMARK  8 active torsions:
REMARK  status: ('A' for Active; 'I' for Inactive)
REMARK    1  A    between atoms: C_1  and  C_2
REMARK    2  A    between atoms: C_2  and  C_4
REMARK    3  A    between atoms: C_5  and  C_6
REMARK    4  A    between atoms: C_8  and  C_9
REMARK    5  A    between atoms: N_11  and  N_12
REMARK    6  A    between atoms: C_13  and  C_15
REMARK    7  A    between atoms: C_18  and  C_19
REMARK    8  A    between atoms: C_22  and  C_23
REMARK                            x       y       z     vdW  Elec       q    Type
REMARK                         _______ _______ _______ _____ _____    ______ ____
ROOT
ATOM      1  C   UNL     1       1.433   9.187  18.831  0.00  0.00    +0.000 C 
ATOM      2  O   UNL     1       1.397   9.625  17.680  0.00  0.00    +0.000 OA
ATOM      3  N   UNL     1       2.141   8.039  19.139  0.00  0.00    +0.000 N 
ATOM      4  H   UNL     1       2.395   7.788  20.092  0.00  0.00    +0.000 HD
ENDROOT
BRANCH   1   9
ATOM      5  C   UNL     1      -0.289  11.245  21.442  0.00  0.00    +0.000 A 
ATOM      6  C   UNL     1       0.024  10.045  22.081  0.00  0.00    +0.000 A 
ATOM      7  C   UNL     1      -0.199   9.505  23.452  0.00  0.00    +0.000 C 
ATOM      8  N   UNL     1       0.704   9.262  21.174  0.00  0.00    +0.000 N 
ATOM      9  C   UNL     1       0.779   9.861  19.938  0.00  0.00    +0.000 A 
ATOM     10  C   UNL     1       0.211  11.123  20.081  0.00  0.00    +0.000 A 
ATOM     11  C   UNL     1       0.142  12.215  19.059  0.00  0.00    +0.000 C 
ATOM     12  H   UNL     1       1.090   8.345  21.368  0.00  0.00    +0.000 HD
BRANCH   5  14
ATOM     13  C   UNL     1      -2.469  12.497  22.102  0.00  0.00    +0.000 C 
ATOM     14  C   UNL     1      -0.971  12.441  21.984  0.00  0.00    +0.000 C 
ATOM     15  O   UNL     1      -0.325  13.431  22.347  0.00  0.00    +0.000 OA
ENDBRANCH   5  14
ENDBRANCH   1   9
BRANCH   3  16
ATOM     16  N   UNL     1       2.783   7.339  18.106  0.00  0.00    +0.000 N 
ATOM     17  C   UNL     1       3.574   6.250  18.422  0.00  0.00    +0.000 C 
ATOM     18  O   UNL     1       3.710   5.828  19.566  0.00  0.00    +0.000 OA
ATOM     19  H   UNL     1       2.862   7.835  17.220  0.00  0.00    +0.000 HD
BRANCH  17  20
ATOM     20  C   UNL     1       4.289   5.616  17.275  0.00  0.00    +0.000 A 
ATOM     21  C   UNL     1       4.891   6.437  16.313  0.00  0.00    +0.000 A 
ATOM     22  C   UNL     1       5.546   5.871  15.213  0.00  0.00    +0.000 A 
ATOM     23  C   UNL     1       5.620   4.481  15.067  0.00  0.00    +0.000 A 
ATOM     24  C   UNL     1       6.302   3.856  13.884  0.00  0.00    +0.000 C 
ATOM     25  C   UNL     1       5.051   3.664  16.052  0.00  0.00    +0.000 A 
ATOM     26  C   UNL     1       4.388   4.225  17.148  0.00  0.00    +0.000 A 
ENDBRANCH  17  20
ENDBRANCH   3  16
TORSDOF 4
ENDMDL
MODEL 7
REMARK VINA RESULT:      -7.3      0.984      1.366
REMARK  Name = 
REMARK  8 active torsions:
REMARK  status: ('A' for Active; 'I' for Inactive)
REMARK    1  A    between atoms: C_1  and  C_2
REMARK    2  A    between atoms: C_2  and  C_4
REMARK    3  A    between atoms: C_5  and  C_6
REMARK    4  A    between atoms: C_8  and  C_9
REMARK    5  A    between atoms: N_11  and  N_12
REMARK    6  A    between atoms: C_13  and  C_15
REMARK    7  A    between atoms: C_18  and  C_19
REMARK    8  A    between atoms: C_22  and  C_23
REMARK                            x       y       z     vdW  Elec       q    Type
REMARK                         _______ _______ _______ _____ _____    ______ ____
ROOT
ATOM      1  C   UNL     1       2.127   7.602  19.203  0.00  0.00    +0.000 C 
ATOM      2  O   UNL     1       1.887   8.529  18.427  0.00  0.00    +0.000 OA
ATOM      3  N   UNL     1       1.898   7.726  20.560  0.00  0.00    +0.000 N 
ATOM      4  H   UNL     1       1.849   6.925  21.186  0.00  0.00    +0.000 HD
ENDROOT
BRANCH   1   9
ATOM      5  C   UNL     1       3.162   4.119  18.297  0.00  0.00    +0.000 A 
ATOM      6  C   UNL     1       3.936   4.946  17.483  0.00  0.00    +0.000 A 
ATOM      7  C   UNL     1       4.966   4.707  16.432  0.00  0.00    +0.000 C 
ATOM      8  N   UNL     1       3.627   6.249  17.809  0.00  0.00    +0.000 N 
ATOM      9  C   UNL     1       2.621   6.316  18.744  0.00  0.00    +0.000 A 
ATOM     10  C   UNL     1       2.338   5.004  19.108  0.00  0.00    +0.000 A 
ATOM     11  C   UNL     1       1.395   4.534  20.172  0.00  0.00    +0.000 C 
ATOM     12  H   UNL     1       4.062   7.070  17.404  0.00  0.00    +0.000 HD
BRANCH   5  14
ATOM     13  C   UNL     1       3.997   1.909  19.381  0.00  0.00    +0.000 C 
ATOM     14  C   UNL     1       3.146   2.642  18.381  0.00  0.00    +0.000 C 
ATOM     15  O   UNL     1       2.435   1.971  17.625  0.00  0.00    +0.000 OA
ENDBRANCH   5  14
ENDBRANCH   1   9
BRANCH   3  16
ATOM     16  N   UNL     1       1.433   8.952  21.062  0.00  0.00    +0.000 N 
ATOM     17  C   UNL     1       0.147   9.029  21.562  0.00  0.00    +0.000 C 
ATOM     18  O   UNL     1      -0.605   8.063  21.635  0.00  0.00    +0.000 OA
ATOM     19  H   UNL     1       1.959   9.774  20.773  0.00  0.00    +0.000 HD
BRANCH  17  20
ATOM     20  C   UNL     1      -0.298  10.388  21.995  0.00  0.00    +0.000 A 
ATOM     21  C   UNL     1      -1.210  10.499  23.051  0.00  0.00    +0.000 A 
ATOM     22  C   UNL     1      -1.665  11.758  23.461  0.00  0.00    +0.000 A 
ATOM     23  C   UNL     1      -1.203  12.920  22.832  0.00  0.00    +0.000 A 
ATOM     24  C   UNL     1      -1.695  14.278  23.245  0.00  0.00    +0.000 C 
ATOM     25  C   UNL     1      -0.261  12.806  21.802  0.00  0.00    +0.000 A 
ATOM     26  C   UNL     1       0.189  11.550  21.384  0.00  0.00    +0.000 A 
ENDBRANCH  17  20
ENDBRANCH   3  16
TORSDOF 4
ENDMDL
MODEL 8
REMARK VINA RESULT:      -7.3      1.623      2.550
REMARK  Name = 
REMARK  8 active torsions:
REMARK  status: ('A' for Active; 'I' for Inactive)
REMARK    1  A    between atoms: C_1  and  C_2
REMARK    2  A    between atoms: C_2  and  C_4
REMARK    3  A    between atoms: C_5  and  C_6
REMARK    4  A    between atoms: C_8  and  C_9
REMARK    5  A    between atoms: N_11  and  N_12
REMARK    6  A    between atoms: C_13  and  C_15
REMARK    7  A    between atoms: C_18  and  C_19
REMARK    8  A    between atoms: C_22  and  C_23
REMARK                            x       y       z     vdW  Elec       q    Type
REMARK                         _______ _______ _______ _____ _____    ______ ____
ROOT
ATOM      1  C   UNL     1       2.189   5.835  19.867  0.00  0.00    +0.000 C 
ATOM      2  O   UNL     1       1.279   5.310  20.511  0.00  0.00    +0.000 OA
ATOM      3  N   UNL     1       2.420   7.196  19.933  0.00  0.00    +0.000 N 
ATOM      4  H   UNL     1       3.290   7.623  19.621  0.00  0.00    +0.000 HD
ENDROOT
BRANCH   1   9
ATOM      5  C   UNL     1       4.671   4.195  17.593  0.00  0.00    +0.000 A 
ATOM      6  C   UNL     1       3.971   3.140  18.179  0.00  0.00    +0.000 A 
ATOM      7  C   UNL     1       4.045   1.655  18.077  0.00  0.00    +0.000 C 
ATOM      8  N   UNL     1       3.008   3.691  18.996  0.00  0.00    +0.000 N 
ATOM      9  C   UNL     1       3.099   5.063  19.040  0.00  0.00    +0.000 A 
ATOM     10  C   UNL     1       4.097   5.416  18.138  0.00  0.00    +0.000 A 
ATOM     11  C   UNL     1       4.513   6.795  17.730  0.00  0.00    +0.000 C 
ATOM     12  H   UNL     1       2.321   3.165  19.525  0.00  0.00    +0.000 HD
BRANCH   5  14
ATOM     13  C   UNL     1       5.490   4.010  15.133  0.00  0.00    +0.000 C 
ATOM     14  C   UNL     1       5.771   4.150  16.604  0.00  0.00    +0.000 C 
ATOM     15  O   UNL     1       6.951   4.220  16.963  0.00  0.00    +0.000 OA
ENDBRANCH   5  14
ENDBRANCH   1   9
BRANCH   3  16
ATOM     16  N   UNL     1       1.564   7.995  20.707  0.00  0.00    +0.000 N 
ATOM     17  C   UNL     1       0.942   9.080  20.121  0.00  0.00    +0.000 C 
ATOM     18  O   UNL     1       1.061   9.362  18.933  0.00  0.00    +0.000 OA
ATOM     19  H   UNL     1       1.669   7.902  21.716  0.00  0.00    +0.000 HD
BRANCH  17  20
ATOM     20  C   UNL     1       0.118   9.926  21.036  0.00  0.00    +0.000 A 
ATOM     21  C   UNL     1      -0.419  11.125  20.552  0.00  0.00    +0.000 A 
ATOM     22  C   UNL     1      -1.172  11.951  21.395  0.00  0.00    +0.000 A 
ATOM     23  C   UNL     1      -1.411  11.583  22.724  0.00  0.00    +0.000 A 
ATOM     24  C   UNL     1      -2.201  12.465  23.647  0.00  0.00    +0.000 C 
ATOM     25  C   UNL     1      -0.906  10.363  23.192  0.00  0.00    +0.000 A 
ATOM     26  C   UNL     1      -0.145   9.539  22.356  0.00  0.00    +0.000 A 
ENDBRANCH  17  20
ENDBRANCH   3  16
TORSDOF 4
ENDMDL
MODEL 9
REMARK VINA RESULT:      -7.3      1.324      2.342
REMARK  Name = 
REMARK  8 active torsions:
REMARK  status: ('A' for Active; 'I' for Inactive)
REMARK    1  A    between atoms: C_1  and  C_2
REMARK    2  A    between atoms: C_2  and  C_4
REMARK    3  A    between atoms: C_5  and  C_6
REMARK    4  A    between atoms: C_8  and  C_9
REMARK    5  A    between atoms: N_11  and  N_12
REMARK    6  A    between atoms: C_13  and  C_15
REMARK    7  A    between atoms: C_18  and  C_19
REMARK    8  A    between atoms: C_22  and  C_23
REMARK                            x       y       z     vdW  Elec       q    Type
REMARK                         _______ _______ _______ _____ _____    ______ ____
ROOT
ATOM      1  C   UNL     1       2.037   7.271  20.018  0.00  0.00    +0.000 C 
ATOM      2  O   UNL     1       2.276   7.951  19.019  0.00  0.00    +0.000 OA
ATOM      3  N   UNL     1       1.401   7.814  21.119  0.00  0.00    +0.000 N 
ATOM      4  H   UNL     1       0.974   7.243  21.845  0.00  0.00    +0.000 HD
ENDROOT
BRANCH   1   9
ATOM      5  C   UNL     1       3.161   3.700  19.924  0.00  0.00    +0.000 A 
ATOM      6  C   UNL     1       2.084   3.713  20.810  0.00  0.00    +0.000 A 
ATOM      7  C   UNL     1       1.400   2.677  21.636  0.00  0.00    +0.000 C 
ATOM      8  N   UNL     1       1.599   5.002  20.848  0.00  0.00    +0.000 N 
ATOM      9  C   UNL     1       2.364   5.858  20.090  0.00  0.00    +0.000 A 
ATOM     10  C   UNL     1       3.322   5.070  19.459  0.00  0.00    +0.000 A 
ATOM     11  C   UNL     1       4.330   5.500  18.440  0.00  0.00    +0.000 C 
ATOM     12  H   UNL     1       0.792   5.307  21.380  0.00  0.00    +0.000 HD
BRANCH   5  14
ATOM     13  C   UNL     1       3.627   1.729  18.295  0.00  0.00    +0.000 C 
ATOM     14  C   UNL     1       4.000   2.561  19.491  0.00  0.00    +0.000 C 
ATOM     15  O   UNL     1       5.029   2.260  20.107  0.00  0.00    +0.000 OA
ENDBRANCH   5  14
ENDBRANCH   1   9
BRANCH   3  16
ATOM     16  N   UNL     1       1.073   9.179  21.110  0.00  0.00    +0.000 N 
ATOM     17  C   UNL     1       0.278   9.686  22.120  0.00  0.00    +0.000 C 
ATOM     18  O   UNL     1      -0.124   9.010  23.062  0.00  0.00    +0.000 OA
ATOM     19  H   UNL     1       1.198   9.656  20.219  0.00  0.00    +0.000 HD
BRANCH  17  20
ATOM     20  C   UNL     1      -0.096  11.126  21.988  0.00  0.00    +0.000 A 
ATOM     21  C   UNL     1      -1.054  11.661  22.856  0.00  0.00    +0.000 A 
ATOM     22  C   UNL     1      -1.443  13.001  22.738  0.00  0.00    +0.000 A 
ATOM     23  C   UNL     1      -0.869  13.825  21.763  0.00  0.00    +0.000 A 
ATOM     24  C   UNL     1      -1.288  15.259  21.610  0.00  0.00    +0.000 C 
ATOM     25  C   UNL     1       0.118  13.295  20.923  0.00  0.00    +0.000 A 
ATOM     26  C   UNL     1       0.503  11.955  21.031  0.00  0.00    +0.000 A 
ENDBRANCH  17  20
ENDBRANCH   3  16
TORSDOF 4
ENDMDL
