MODEL 1
REMARK VINA RESULT:      -7.6      0.000      0.000
REMARK  Name = 
REMARK  10 active torsions:
REMARK  status: ('A' for Active; 'I' for Inactive)
REMARK    1  A    between atoms: C_1  and  O_2
REMARK    2  A    between atoms: O_2  and  C_3
REMARK    3  A    between atoms: C_3  and  C_5
REMARK    4  A    between atoms: C_8  and  C_9
REMARK    5  A    between atoms: C_9  and  O_11
REMARK    6  A    between atoms: O_11  and  C_12
REMARK    7  A    between atoms: C_13  and  N_14
REMARK    8  A    between atoms: N_14  and  C_15
REMARK    9  A    between atoms: C_15  and  N_17
REMARK   10  A    between atoms: C_21  and  C_23
REMARK                            x       y       z     vdW  Elec       q    Type
REMARK                         _______ _______ _______ _____ _____    ______ ____
ROOT
ATOM      1  N   UNL     1       2.569   6.599  18.501  0.00  0.00    +0.000 N 
ATOM      2  H   UNL     1       2.064   7.198  17.850  0.00  0.00    +0.000 HD
ENDROOT
BRANCH   1   7
ATOM      3  C   UNL     1       5.830   5.525  17.011  0.00  0.00    +0.000 A 
ATOM      4  C   UNL     1       5.521   4.254  16.548  0.00  0.00    +0.000 A 
ATOM      5  C   UNL     1       4.255   3.731  16.766  0.00  0.00    +0.000 A 
ATOM      6  C   UNL     1       3.255   4.476  17.442  0.00  0.00    +0.000 A 
ATOM      7  C   UNL     1       3.565   5.777  17.912  0.00  0.00    +0.000 A 
ATOM      8  C   UNL     1       4.853   6.278  17.677  0.00  0.00    +0.000 A 
BRANCH   3   9
ATOM      9  C   UNL     1       7.157   6.154  16.785  0.00  0.00    +0.000 C 
ATOM     10  O   UNL     1       7.749   6.119  15.721  0.00  0.00    +0.000 OA
BRANCH   9  12
ATOM     11  C   UNL     1       7.920   8.144  17.718  0.00  0.00    +0.000 C 
ATOM     12  O   UNL     1       7.575   6.775  17.918  0.00  0.00    +0.000 OA
ENDBRANCH   9  12
ENDBRANCH   3   9
BRANCH   6  13
ATOM     13  C   UNL     1       1.950   3.756  17.572  0.00  0.00    +0.000 C 
ATOM     14  O   UNL     1       0.886   4.274  17.263  0.00  0.00    +0.000 OA
BRANCH  13  15
ATOM     15  O   UNL     1       2.074   2.491  18.054  0.00  0.00    +0.000 OA
ATOM     16  C   UNL     1       1.023   2.150  18.962  0.00  0.00    +0.000 C 
ENDBRANCH  13  15
ENDBRANCH   6  13
ENDBRANCH   1   7
BRANCH   1  17
ATOM     17  C   UNL     1       2.041   6.652  19.791  0.00  0.00    +0.000 C 
ATOM     18  S   UNL     1       2.013   5.401  20.909  0.00  0.00    +0.000 S 
BRANCH  17  19
ATOM     19  N   UNL     1       1.425   7.898  20.020  0.00  0.00    +0.000 N 
ATOM     20  C   UNL     1       1.585   8.971  19.019  0.00  0.00    +0.000 C 
ATOM     21  C   UNL     1       0.389   9.931  19.024  0.00  0.00    +0.000 C 
ATOM     22  N   UNL     1       0.095  10.410  20.380  0.00  0.00    +0.000 N 
ATOM     23  C   UNL     1      -0.032  11.772  20.612  0.00  0.00    +0.000 C 
ATOM     24  O   UNL     1       0.051  12.583  19.684  0.00  0.00    +0.000 OA
ATOM     25  C   UNL     1      -0.049   9.348  21.384  0.00  0.00    +0.000 C 
ATOM     26  C   UNL     1       1.171   8.415  21.380  0.00  0.00    +0.000 C 
BRANCH  23  27
ATOM     27  C   UNL     1      -0.333  12.243  22.055  0.00  0.00    +0.000 C 
ATOM     28  C   UNL     1      -1.828  12.390  22.317  0.00  0.00    +0.000 C 
ATOM     29  C   UNL     1      -1.907  13.511  23.319  0.00  0.00    +0.000 C 
ATOM     30  C   UNL     1      -0.706  14.360  22.979  0.00  0.00    +0.000 C 
ATOM     31  O   UNL     1       0.266  13.508  22.368  0.00  0.00    +0.000 OA
ENDBRANCH  23  27
ENDBRANCH  17  19
ENDBRANCH   1  17
TORSDOF 8
ENDMDL
MODEL 2
REMARK VINA RESULT:      -7.4      2.132      2.713
REMARK  Name = 
REMARK  10 active torsions:
REMARK  status: ('A' for Active; 'I' for Inactive)
REMARK    1  A    between atoms: C_1  and  O_2
REMARK    2  A    between atoms: O_2  and  C_3
REMARK    3  A    between atoms: C_3  and  C_5
REMARK    4  A    between atoms: C_8  and  C_9
REMARK    5  A    between atoms: C_9  and  O_11
REMARK    6  A    between atoms: O_11  and  C_12
REMARK    7  A    between atoms: C_13  and  N_14
REMARK    8  A    between atoms: N_14  and  C_15
REMARK    9  A    between atoms: C_15  and  N_17
REMARK   10  A    between atoms: C_21  and  C_23
REMARK                            x       y       z     vdW  Elec       q    Type
REMARK                         _______ _______ _______ _____ _____    ______ ____
ROOT
ATOM      1  N   UNL     1       2.644   6.488  20.068  0.00  0.00    +0.000 N 
ATOM      2  H   UNL     1       2.343   6.580  21.036  0.00  0.00    +0.000 HD
ENDROOT
BRANCH   1   7
ATOM      3  C   UNL     1       5.457   4.435  18.695  0.00  0.00    +0.000 A 
ATOM      4  C   UNL     1       5.076   3.155  19.067  0.00  0.00    +0.000 A 
ATOM      5  C   UNL     1       3.919   2.969  19.809  0.00  0.00    +0.000 A 
ATOM      6  C   UNL     1       3.100   4.065  20.186  0.00  0.00    +0.000 A 
ATOM      7  C   UNL     1       3.483   5.374  19.803  0.00  0.00    +0.000 A 
ATOM      8  C   UNL     1       4.658   5.530  19.054  0.00  0.00    +0.000 A 
BRANCH   3   9
ATOM      9  C   UNL     1       6.669   4.700  17.876  0.00  0.00    +0.000 C 
ATOM     10  O   UNL     1       7.801   4.445  18.244  0.00  0.00    +0.000 OA
BRANCH   9  12
ATOM     11  C   UNL     1       6.454   4.319  15.591  0.00  0.00    +0.000 C 
ATOM     12  O   UNL     1       6.312   5.230  16.679  0.00  0.00    +0.000 OA
ENDBRANCH   9  12
ENDBRANCH   3   9
BRANCH   6  13
ATOM     13  C   UNL     1       1.888   3.670  20.971  0.00  0.00    +0.000 C 
ATOM     14  O   UNL     1       1.966   3.201  22.097  0.00  0.00    +0.000 OA
BRANCH  13  15
ATOM     15  O   UNL     1       0.720   3.891  20.312  0.00  0.00    +0.000 OA
ATOM     16  C   UNL     1       0.506   2.950  19.256  0.00  0.00    +0.000 C 
ENDBRANCH  13  15
ENDBRANCH   6  13
ENDBRANCH   1   7
BRANCH   1  17
ATOM     17  C   UNL     1       2.256   7.575  19.285  0.00  0.00    +0.000 C 
ATOM     18  S   UNL     1       2.608   7.810  17.660  0.00  0.00    +0.000 S 
BRANCH  17  19
ATOM     19  N   UNL     1       1.589   8.535  20.070  0.00  0.00    +0.000 N 
ATOM     20  C   UNL     1       0.998   8.122  21.358  0.00  0.00    +0.000 C 
ATOM     21  C   UNL     1       0.950   9.285  22.356  0.00  0.00    +0.000 C 
ATOM     22  N   UNL     1       0.328  10.474  21.762  0.00  0.00    +0.000 N 
ATOM     23  C   UNL     1      -0.705  11.113  22.430  0.00  0.00    +0.000 C 
ATOM     24  O   UNL     1      -1.077  10.723  23.542  0.00  0.00    +0.000 OA
ATOM     25  C   UNL     1       0.902  10.881  20.473  0.00  0.00    +0.000 C 
ATOM     26  C   UNL     1       0.915   9.710  19.479  0.00  0.00    +0.000 C 
BRANCH  23  27
ATOM     27  C   UNL     1      -1.344  12.358  21.770  0.00  0.00    +0.000 C 
ATOM     28  C   UNL     1      -0.848  13.661  22.387  0.00  0.00    +0.000 C 
ATOM     29  C   UNL     1      -2.023  14.591  22.254  0.00  0.00    +0.000 C 
ATOM     30  C   UNL     1      -3.208  13.659  22.327  0.00  0.00    +0.000 C 
ATOM     31  O   UNL     1      -2.775  12.375  21.872  0.00  0.00    +0.000 OA
ENDBRANCH  23  27
ENDBRANCH  17  19
ENDBRANCH   1  17
TORSDOF 8
ENDMDL
MODEL 3
REMARK VINA RESULT:      -7.4      1.113      1.318
REMARK  Name = 
REMARK  10 active torsions:
REMARK  status: ('A' for Active; 'I' for Inactive)
REMARK    1  A    between atoms: C_1  and  O_2
REMARK    2  A    between atoms: O_2  and  C_3
REMARK    3  A    between atoms: C_3  and  C_5
REMARK    4  A    between atoms: C_8  and  C_9
REMARK    5  A    between atoms: C_9  and  O_11
REMARK    6  A    between atoms: O_11  and  C_12
REMARK    7  A    between atoms: C_13  and  N_14
REMARK    8  A    between atoms: N_14  and  C_15
REMARK    9  A    between atoms: C_15  and  N_17
REMARK   10  A    between atoms: C_21  and  C_23
REMARK                            x       y       z     vdW  Elec       q    Type
REMARK                         _______ _______ _______ _____ _____    ______ ____
ROOT
ATOM      1  N   UNL     1       2.454   5.767  18.277  0.00  0.00    +0.000 N 
ATOM      2  H   UNL     1       1.653   5.858  17.655  0.00  0.00    +0.000 HD
ENDROOT
BRANCH   1   7
ATOM      3  C   UNL     1       5.773   5.322  16.603  0.00  0.00    +0.000 A 
ATOM      4  C   UNL     1       5.783   3.956  16.361  0.00  0.00    +0.000 A 
ATOM      5  C   UNL     1       4.721   3.173  16.790  0.00  0.00    +0.000 A 
ATOM      6  C   UNL     1       3.608   3.742  17.460  0.00  0.00    +0.000 A 
ATOM      7  C   UNL     1       3.591   5.138  17.703  0.00  0.00    +0.000 A 
ATOM      8  C   UNL     1       4.678   5.903  17.259  0.00  0.00    +0.000 A 
BRANCH   3   9
ATOM      9  C   UNL     1       6.864   6.220  16.145  0.00  0.00    +0.000 C 
ATOM     10  O   UNL     1       7.724   5.887  15.350  0.00  0.00    +0.000 OA
BRANCH   9  12
ATOM     11  C   UNL     1       7.774   7.748  17.644  0.00  0.00    +0.000 C 
ATOM     12  O   UNL     1       6.731   7.442  16.721  0.00  0.00    +0.000 OA
ENDBRANCH   9  12
ENDBRANCH   3   9
BRANCH   6  13
ATOM     13  C   UNL     1       2.555   2.746  17.834  0.00  0.00    +0.000 C 
ATOM     14  O   UNL     1       2.826   1.589  18.122  0.00  0.00    +0.000 OA
BRANCH  13  15
ATOM     15  O   UNL     1       1.296   3.258  17.823  0.00  0.00    +0.000 OA
ATOM     16  C   UNL     1       0.462   2.671  18.826  0.00  0.00    +0.000 C 
ENDBRANCH  13  15
ENDBRANCH   6  13
ENDBRANCH   1   7
BRANCH   1  17
ATOM     17  C   UNL     1       2.163   6.168  19.580  0.00  0.00    +0.000 C 
ATOM     18  S   UNL     1       2.157   5.191  20.945  0.00  0.00    +0.000 S 
BRANCH  17  19
ATOM     19  N   UNL     1       1.768   7.519  19.604  0.00  0.00    +0.000 N 
ATOM     20  C   UNL     1       2.184   8.407  18.500  0.00  0.00    +0.000 C 
ATOM     21  C   UNL     1       1.183   9.547  18.285  0.00  0.00    +0.000 C 
ATOM     22  N   UNL     1       0.890  10.246  19.541  0.00  0.00    +0.000 N 
ATOM     23  C   UNL     1       0.994  11.628  19.598  0.00  0.00    +0.000 C 
ATOM     24  O   UNL     1       1.283  12.282  18.590  0.00  0.00    +0.000 OA
ATOM     25  C   UNL     1       0.490   9.366  20.648  0.00  0.00    +0.000 C 
ATOM     26  C   UNL     1       1.520   8.248  20.864  0.00  0.00    +0.000 C 
BRANCH  23  27
ATOM     27  C   UNL     1       0.687  12.331  20.942  0.00  0.00    +0.000 C 
ATOM     28  C   UNL     1      -0.598  13.150  20.887  0.00  0.00    +0.000 C 
ATOM     29  C   UNL     1      -0.338  14.287  21.838  0.00  0.00    +0.000 C 
ATOM     30  C   UNL     1       1.156  14.478  21.743  0.00  0.00    +0.000 C 
ATOM     31  O   UNL     1       1.728  13.226  21.357  0.00  0.00    +0.000 OA
ENDBRANCH  23  27
ENDBRANCH  17  19
ENDBRANCH   1  17
TORSDOF 8
ENDMDL
MODEL 4
REMARK VINA RESULT:      -7.1      1.932      2.297
REMARK  Name = 
REMARK  10 active torsions:
REMARK  status: ('A' for Active; 'I' for Inactive)
REMARK    1  A    between atoms: C_1  and  O_2
REMARK    2  A    between atoms: O_2  and  C_3
REMARK    3  A    between atoms: C_3  and  C_5
REMARK    4  A    between atoms: C_8  and  C_9
REMARK    5  A    between atoms: C_9  and  O_11
REMARK    6  A    between atoms: O_11  and  C_12
REMARK    7  A    between atoms: C_13  and  N_14
REMARK    8  A    between atoms: N_14  and  C_15
REMARK    9  A    between atoms: C_15  and  N_17
REMARK   10  A    between atoms: C_21  and  C_23
REMARK                            x       y       z     vdW  Elec       q    Type
REMARK                         _______ _______ _______ _____ _____    ______ ____
ROOT
ATOM      1  N   UNL     1       2.727   6.611  19.934  0.00  0.00    +0.000 N 
ATOM      2  H   UNL     1       2.458   6.664  20.915  0.00  0.00    +0.000 HD
ENDROOT
BRANCH   1   7
ATOM      3  C   UNL     1       5.737   4.755  18.707  0.00  0.00    +0.000 A 
ATOM      4  C   UNL     1       5.290   3.442  18.743  0.00  0.00    +0.000 A 
ATOM      5  C   UNL     1       4.016   3.162  19.214  0.00  0.00    +0.000 A 
ATOM      6  C   UNL     1       3.146   4.194  19.649  0.00  0.00    +0.000 A 
ATOM      7  C   UNL     1       3.596   5.537  19.608  0.00  0.00    +0.000 A 
ATOM      8  C   UNL     1       4.888   5.790  19.127  0.00  0.00    +0.000 A 
BRANCH   3   9
ATOM      9  C   UNL     1       7.078   5.126  18.186  0.00  0.00    +0.000 C 
ATOM     10  O   UNL     1       7.617   4.566  17.249  0.00  0.00    +0.000 OA
BRANCH   9  12
ATOM     11  C   UNL     1       7.904   7.298  18.077  0.00  0.00    +0.000 C 
ATOM     12  O   UNL     1       7.575   6.174  18.891  0.00  0.00    +0.000 OA
ENDBRANCH   9  12
ENDBRANCH   3   9
BRANCH   6  13
ATOM     13  C   UNL     1       1.809   3.703  20.110  0.00  0.00    +0.000 C 
ATOM     14  O   UNL     1       1.011   4.429  20.684  0.00  0.00    +0.000 OA
BRANCH  13  15
ATOM     15  O   UNL     1       1.584   2.394  19.822  0.00  0.00    +0.000 OA
ATOM     16  C   UNL     1       0.660   2.226  18.743  0.00  0.00    +0.000 C 
ENDBRANCH  13  15
ENDBRANCH   6  13
ENDBRANCH   1   7
BRANCH   1  17
ATOM     17  C   UNL     1       2.269   7.703  19.197  0.00  0.00    +0.000 C 
ATOM     18  S   UNL     1       2.553   7.996  17.569  0.00  0.00    +0.000 S 
BRANCH  17  19
ATOM     19  N   UNL     1       1.595   8.614  20.033  0.00  0.00    +0.000 N 
ATOM     20  C   UNL     1       1.003   8.126  21.295  0.00  0.00    +0.000 C 
ATOM     21  C   UNL     1       0.946   9.231  22.356  0.00  0.00    +0.000 C 
ATOM     22  N   UNL     1       0.319  10.448  21.827  0.00  0.00    +0.000 N 
ATOM     23  C   UNL     1      -0.720  11.043  22.527  0.00  0.00    +0.000 C 
ATOM     24  O   UNL     1      -1.093  10.590  23.614  0.00  0.00    +0.000 OA
ATOM     25  C   UNL     1       0.894  10.930  20.564  0.00  0.00    +0.000 C 
ATOM     26  C   UNL     1       0.916   9.816  19.507  0.00  0.00    +0.000 C 
BRANCH  23  27
ATOM     27  C   UNL     1      -1.364  12.320  21.935  0.00  0.00    +0.000 C 
ATOM     28  C   UNL     1      -0.903  13.586  22.649  0.00  0.00    +0.000 C 
ATOM     29  C   UNL     1      -2.090  14.506  22.550  0.00  0.00    +0.000 C 
ATOM     30  C   UNL     1      -3.262  13.553  22.532  0.00  0.00    +0.000 C 
ATOM     31  O   UNL     1      -2.797  12.308  22.004  0.00  0.00    +0.000 OA
ENDBRANCH  23  27
ENDBRANCH  17  19
ENDBRANCH   1  17
TORSDOF 8
ENDMDL
MODEL 5
REMARK VINA RESULT:      -7.1      3.003      5.229
REMARK  Name = 
REMARK  10 active torsions:
REMARK  status: ('A' for Active; 'I' for Inactive)
REMARK    1  A    between atoms: C_1  and  O_2
REMARK    2  A    between atoms: O_2  and  C_3
REMARK    3  A    between atoms: C_3  and  C_5
REMARK    4  A    between atoms: C_8  and  C_9
REMARK    5  A    between atoms: C_9  and  O_11
REMARK    6  A    between atoms: O_11  and  C_12
REMARK    7  A    between atoms: C_13  and  N_14
REMARK    8  A    between atoms: N_14  and  C_15
REMARK    9  A    between atoms: C_15  and  N_17
REMARK   10  A    between atoms: C_21  and  C_23
REMARK                            x       y       z     vdW  Elec       q    Type
REMARK                         _______ _______ _______ _____ _____    ______ ____
ROOT
ATOM      1  N   UNL     1       5.115   3.644  17.359  0.00  0.00    +0.000 N 
ATOM      2  H   UNL     1       5.758   3.455  18.126  0.00  0.00    +0.000 HD
ENDROOT
BRANCH   1   7
ATOM      3  C   UNL     1       6.013   3.958  13.739  0.00  0.00    +0.000 A 
ATOM      4  C   UNL     1       7.054   4.874  13.788  0.00  0.00    +0.000 A 
ATOM      5  C   UNL     1       7.430   5.424  15.005  0.00  0.00    +0.000 A 
ATOM      6  C   UNL     1       6.782   5.058  16.212  0.00  0.00    +0.000 A 
ATOM      7  C   UNL     1       5.723   4.118  16.167  0.00  0.00    +0.000 A 
ATOM      8  C   UNL     1       5.364   3.579  14.924  0.00  0.00    +0.000 A 
BRANCH   3   9
ATOM      9  C   UNL     1       5.581   3.310  12.474  0.00  0.00    +0.000 C 
ATOM     10  O   UNL     1       4.458   3.410  12.013  0.00  0.00    +0.000 OA
BRANCH   9  12
ATOM     11  C   UNL     1       6.221   1.447  11.237  0.00  0.00    +0.000 C 
ATOM     12  O   UNL     1       6.619   2.632  11.922  0.00  0.00    +0.000 OA
ENDBRANCH   9  12
ENDBRANCH   3   9
BRANCH   6  13
ATOM     13  C   UNL     1       7.332   5.744  17.424  0.00  0.00    +0.000 C 
ATOM     14  O   UNL     1       7.520   6.951  17.460  0.00  0.00    +0.000 OA
BRANCH  13  15
ATOM     15  O   UNL     1       7.587   4.898  18.456  0.00  0.00    +0.000 OA
ATOM     16  C   UNL     1       7.356   5.509  19.729  0.00  0.00    +0.000 C 
ENDBRANCH  13  15
ENDBRANCH   6  13
ENDBRANCH   1   7
BRANCH   1  17
ATOM     17  C   UNL     1       3.780   3.512  17.742  0.00  0.00    +0.000 C 
ATOM     18  S   UNL     1       2.788   2.188  17.457  0.00  0.00    +0.000 S 
BRANCH  17  19
ATOM     19  N   UNL     1       3.316   4.703  18.333  0.00  0.00    +0.000 N 
ATOM     20  C   UNL     1       2.455   4.621  19.529  0.00  0.00    +0.000 C 
ATOM     21  C   UNL     1       2.605   5.860  20.418  0.00  0.00    +0.000 C 
ATOM     22  N   UNL     1       2.444   7.096  19.644  0.00  0.00    +0.000 N 
ATOM     23  C   UNL     1       1.556   8.068  20.081  0.00  0.00    +0.000 C 
ATOM     24  O   UNL     1       0.934   7.928  21.140  0.00  0.00    +0.000 OA
ATOM     25  C   UNL     1       3.287   7.177  18.444  0.00  0.00    +0.000 C 
ATOM     26  C   UNL     1       3.101   5.940  17.554  0.00  0.00    +0.000 C 
BRANCH  23  27
ATOM     27  C   UNL     1       1.405   9.355  19.235  0.00  0.00    +0.000 C 
ATOM     28  C   UNL     1       0.859  10.523  20.049  0.00  0.00    +0.000 C 
ATOM     29  C   UNL     1       0.073  11.322  19.044  0.00  0.00    +0.000 C 
ATOM     30  C   UNL     1      -0.403  10.274  18.068  0.00  0.00    +0.000 C 
ATOM     31  O   UNL     1       0.526   9.189  18.113  0.00  0.00    +0.000 OA
ENDBRANCH  23  27
ENDBRANCH  17  19
ENDBRANCH   1  17
TORSDOF 8
ENDMDL
MODEL 6
REMARK VINA RESULT:      -7.1      2.701      9.137
REMARK  Name = 
REMARK  10 active torsions:
REMARK  status: ('A' for Active; 'I' for Inactive)
REMARK    1  A    between atoms: C_1  and  O_2
REMARK    2  A    between atoms: O_2  and  C_3
REMARK    3  A    between atoms: C_3  and  C_5
REMARK    4  A    between atoms: C_8  and  C_9
REMARK    5  A    between atoms: C_9  and  O_11
REMARK    6  A    between atoms: O_11  and  C_12
REMARK    7  A    between atoms: C_13  and  N_14
REMARK    8  A    between atoms: N_14  and  C_15
REMARK    9  A    between atoms: C_15  and  N_17
REMARK   10  A    between atoms: C_21  and  C_23
REMARK                            x       y       z     vdW  Elec       q    Type
REMARK                         _______ _______ _______ _____ _____    ______ ____
ROOT
ATOM      1  N   UNL     1       0.913   9.641  19.236  0.00  0.00    +0.000 N 
ATOM      2  H   UNL     1       1.674   9.954  18.636  0.00  0.00    +0.000 HD
ENDROOT
BRANCH   1   7
ATOM      3  C   UNL     1      -2.319  10.992  17.917  0.00  0.00    +0.000 A 
ATOM      4  C   UNL     1      -2.560  12.042  18.792  0.00  0.00    +0.000 A 
ATOM      5  C   UNL     1      -1.686  12.277  19.842  0.00  0.00    +0.000 A 
ATOM      6  C   UNL     1      -0.533  11.474  20.037  0.00  0.00    +0.000 A 
ATOM      7  C   UNL     1      -0.280  10.405  19.143  0.00  0.00    +0.000 A 
ATOM      8  C   UNL     1      -1.181  10.191  18.091  0.00  0.00    +0.000 A 
BRANCH   3   9
ATOM      9  C   UNL     1      -3.199  10.705  16.755  0.00  0.00    +0.000 C 
ATOM     10  O   UNL     1      -4.315  11.173  16.621  0.00  0.00    +0.000 OA
BRANCH   9  12
ATOM     11  C   UNL     1      -3.019  10.019  14.540  0.00  0.00    +0.000 C 
ATOM     12  O   UNL     1      -2.562   9.882  15.884  0.00  0.00    +0.000 OA
ENDBRANCH   9  12
ENDBRANCH   3   9
BRANCH   6  13
ATOM     13  C   UNL     1       0.297  11.886  21.213  0.00  0.00    +0.000 C 
ATOM     14  O   UNL     1      -0.170  11.980  22.339  0.00  0.00    +0.000 OA
BRANCH  13  15
ATOM     15  O   UNL     1       1.596  12.132  20.900  0.00  0.00    +0.000 OA
ATOM     16  C   UNL     1       1.862  13.528  20.743  0.00  0.00    +0.000 C 
ENDBRANCH  13  15
ENDBRANCH   6  13
ENDBRANCH   1   7
BRANCH   1  17
ATOM     17  C   UNL     1       1.304   8.615  20.096  0.00  0.00    +0.000 C 
ATOM     18  S   UNL     1       0.924   8.481  21.726  0.00  0.00    +0.000 S 
BRANCH  17  19
ATOM     19  N   UNL     1       2.167   7.719  19.435  0.00  0.00    +0.000 N 
ATOM     20  C   UNL     1       2.503   7.962  18.018  0.00  0.00    +0.000 C 
ATOM     21  C   UNL     1       3.883   7.398  17.661  0.00  0.00    +0.000 C 
ATOM     22  N   UNL     1       4.012   5.997  18.079  0.00  0.00    +0.000 N 
ATOM     23  C   UNL     1       4.445   5.047  17.166  0.00  0.00    +0.000 C 
ATOM     24  O   UNL     1       4.769   5.372  16.019  0.00  0.00    +0.000 OA
ATOM     25  C   UNL     1       3.664   5.746  19.484  0.00  0.00    +0.000 C 
ATOM     26  C   UNL     1       2.268   6.295  19.813  0.00  0.00    +0.000 C 
BRANCH  23  27
ATOM     27  C   UNL     1       4.560   3.577  17.639  0.00  0.00    +0.000 C 
ATOM     28  C   UNL     1       3.205   2.882  17.704  0.00  0.00    +0.000 C 
ATOM     29  C   UNL     1       3.362   1.897  18.831  0.00  0.00    +0.000 C 
ATOM     30  C   UNL     1       4.355   2.576  19.744  0.00  0.00    +0.000 C 
ATOM     31  O   UNL     1       5.149   3.452  18.941  0.00  0.00    +0.000 OA
ENDBRANCH  23  27
ENDBRANCH  17  19
ENDBRANCH   1  17
TORSDOF 8
ENDMDL
MODEL 7
REMARK VINA RESULT:      -7.1      1.842      2.343
REMARK  Name = 
REMARK  10 active torsions:
REMARK  status: ('A' for Active; 'I' for Inactive)
REMARK    1  A    between atoms: C_1  and  O_2
REMARK    2  A    between atoms: O_2  and  C_3
REMARK    3  A    between atoms: C_3  and  C_5
REMARK    4  A    between atoms: C_8  and  C_9
REMARK    5  A    between atoms: C_9  and  O_11
REMARK    6  A    between atoms: O_11  and  C_12
REMARK    7  A    between atoms: C_13  and  N_14
REMARK    8  A    between atoms: N_14  and  C_15
REMARK    9  A    between atoms: C_15  and  N_17
REMARK   10  A    between atoms: C_21  and  C_23
REMARK                            x       y       z     vdW  Elec       q    Type
REMARK                         _______ _______ _______ _____ _____    ______ ____
ROOT
ATOM      1  N   UNL     1       2.287   6.576  19.292  0.00  0.00    +0.000 N 
ATOM      2  H   UNL     1       1.552   6.341  19.956  0.00  0.00    +0.000 HD
ENDROOT
BRANCH   1   7
ATOM      3  C   UNL     1       5.681   5.013  19.062  0.00  0.00    +0.000 A 
ATOM      4  C   UNL     1       5.368   3.724  18.656  0.00  0.00    +0.000 A 
ATOM      5  C   UNL     1       4.040   3.354  18.503  0.00  0.00    +0.000 A 
ATOM      6  C   UNL     1       2.986   4.273  18.737  0.00  0.00    +0.000 A 
ATOM      7  C   UNL     1       3.301   5.593  19.146  0.00  0.00    +0.000 A 
ATOM      8  C   UNL     1       4.652   5.938  19.292  0.00  0.00    +0.000 A 
BRANCH   3   9
ATOM      9  C   UNL     1       7.082   5.482  19.216  0.00  0.00    +0.000 C 
ATOM     10  O   UNL     1       7.694   5.450  20.268  0.00  0.00    +0.000 OA
BRANCH   9  12
ATOM     11  C   UNL     1       7.879   7.303  18.007  0.00  0.00    +0.000 C 
ATOM     12  O   UNL     1       7.561   5.913  18.021  0.00  0.00    +0.000 OA
ENDBRANCH   9  12
ENDBRANCH   3   9
BRANCH   6  13
ATOM     13  C   UNL     1       1.623   3.699  18.509  0.00  0.00    +0.000 C 
ATOM     14  O   UNL     1       0.910   4.062  17.583  0.00  0.00    +0.000 OA
BRANCH  13  15
ATOM     15  O   UNL     1       1.275   2.750  19.417  0.00  0.00    +0.000 OA
ATOM     16  C   UNL     1       1.083   3.294  20.725  0.00  0.00    +0.000 C 
ENDBRANCH  13  15
ENDBRANCH   6  13
ENDBRANCH   1   7
BRANCH   1  17
ATOM     17  C   UNL     1       2.166   7.876  18.803  0.00  0.00    +0.000 C 
ATOM     18  S   UNL     1       2.754   8.450  17.339  0.00  0.00    +0.000 S 
BRANCH  17  19
ATOM     19  N   UNL     1       1.552   8.707  19.759  0.00  0.00    +0.000 N 
ATOM     20  C   UNL     1       1.065   8.111  21.019  0.00  0.00    +0.000 C 
ATOM     21  C   UNL     1       1.081   9.127  22.167  0.00  0.00    +0.000 C 
ATOM     22  N   UNL     1       0.404  10.372  21.789  0.00  0.00    +0.000 N 
ATOM     23  C   UNL     1      -0.583  10.894  22.613  0.00  0.00    +0.000 C 
ATOM     24  O   UNL     1      -0.864  10.349  23.686  0.00  0.00    +0.000 OA
ATOM     25  C   UNL     1       0.872  10.962  20.528  0.00  0.00    +0.000 C 
ATOM     26  C   UNL     1       0.822   9.937  19.386  0.00  0.00    +0.000 C 
BRANCH  23  27
ATOM     27  C   UNL     1      -1.283  12.203  22.178  0.00  0.00    +0.000 C 
ATOM     28  C   UNL     1      -1.872  12.965  23.360  0.00  0.00    +0.000 C 
ATOM     29  C   UNL     1      -3.078  13.652  22.779  0.00  0.00    +0.000 C 
ATOM     30  C   UNL     1      -3.513  12.710  21.682  0.00  0.00    +0.000 C 
ATOM     31  O   UNL     1      -2.359  11.983  21.255  0.00  0.00    +0.000 OA
ENDBRANCH  23  27
ENDBRANCH  17  19
ENDBRANCH   1  17
TORSDOF 8
ENDMDL
MODEL 8
REMARK VINA RESULT:      -7.1      1.947      2.488
REMARK  Name = 
REMARK  10 active torsions:
REMARK  status: ('A' for Active; 'I' for Inactive)
REMARK    1  A    between atoms: C_1  and  O_2
REMARK    2  A    between atoms: O_2  and  C_3
REMARK    3  A    between atoms: C_3  and  C_5
REMARK    4  A    between atoms: C_8  and  C_9
REMARK    5  A    between atoms: C_9  and  O_11
REMARK    6  A    between atoms: O_11  and  C_12
REMARK    7  A    between atoms: C_13  and  N_14
REMARK    8  A    between atoms: N_14  and  C_15
REMARK    9  A    between atoms: C_15  and  N_17
REMARK   10  A    between atoms: C_21  and  C_23
REMARK                            x       y       z     vdW  Elec       q    Type
REMARK                         _______ _______ _______ _____ _____    ______ ____
ROOT
ATOM      1  N   UNL     1       2.239   6.223  19.036  0.00  0.00    +0.000 N 
ATOM      2  H   UNL     1       1.677   6.083  19.874  0.00  0.00    +0.000 HD
ENDROOT
BRANCH   1   7
ATOM      3  C   UNL     1       4.611   4.026  17.150  0.00  0.00    +0.000 A 
ATOM      4  C   UNL     1       4.042   2.775  17.338  0.00  0.00    +0.000 A 
ATOM      5  C   UNL     1       2.906   2.646  18.123  0.00  0.00    +0.000 A 
ATOM      6  C   UNL     1       2.297   3.774  18.730  0.00  0.00    +0.000 A 
ATOM      7  C   UNL     1       2.871   5.054  18.536  0.00  0.00    +0.000 A 
ATOM      8  C   UNL     1       4.019   5.153  17.738  0.00  0.00    +0.000 A 
BRANCH   3   9
ATOM      9  C   UNL     1       5.809   4.236  16.297  0.00  0.00    +0.000 C 
ATOM     10  O   UNL     1       6.003   3.651  15.247  0.00  0.00    +0.000 OA
BRANCH   9  12
ATOM     11  C   UNL     1       7.627   4.631  17.696  0.00  0.00    +0.000 C 
ATOM     12  O   UNL     1       6.614   5.177  16.853  0.00  0.00    +0.000 OA
ENDBRANCH   9  12
ENDBRANCH   3   9
BRANCH   6  13
ATOM     13  C   UNL     1       1.074   3.442  19.528  0.00  0.00    +0.000 C 
ATOM     14  O   UNL     1       0.181   2.733  19.087  0.00  0.00    +0.000 OA
BRANCH  13  15
ATOM     15  O   UNL     1       1.069   3.998  20.768  0.00  0.00    +0.000 OA
ATOM     16  C   UNL     1       1.877   3.267  21.694  0.00  0.00    +0.000 C 
ENDBRANCH  13  15
ENDBRANCH   6  13
ENDBRANCH   1   7
BRANCH   1  17
ATOM     17  C   UNL     1       2.345   7.569  18.686  0.00  0.00    +0.000 C 
ATOM     18  S   UNL     1       3.174   8.192  17.366  0.00  0.00    +0.000 S 
BRANCH  17  19
ATOM     19  N   UNL     1       1.733   8.381  19.659  0.00  0.00    +0.000 N 
ATOM     20  C   UNL     1       1.431   7.807  20.986  0.00  0.00    +0.000 C 
ATOM     21  C   UNL     1       1.439   8.881  22.080  0.00  0.00    +0.000 C 
ATOM     22  N   UNL     1       0.597  10.024  21.713  0.00  0.00    +0.000 N 
ATOM     23  C   UNL     1      -0.362  10.483  22.605  0.00  0.00    +0.000 C 
ATOM     24  O   UNL     1      -0.483   9.971  23.723  0.00  0.00    +0.000 OA
ATOM     25  C   UNL     1       0.881  10.590  20.388  0.00  0.00    +0.000 C 
ATOM     26  C   UNL     1       0.841   9.504  19.303  0.00  0.00    +0.000 C 
BRANCH  23  27
ATOM     27  C   UNL     1      -1.239  11.685  22.181  0.00  0.00    +0.000 C 
ATOM     28  C   UNL     1      -0.547  13.022  22.424  0.00  0.00    +0.000 C 
ATOM     29  C   UNL     1      -1.682  13.963  22.729  0.00  0.00    +0.000 C 
ATOM     30  C   UNL     1      -2.710  13.063  23.372  0.00  0.00    +0.000 C 
ATOM     31  O   UNL     1      -2.492  11.739  22.880  0.00  0.00    +0.000 OA
ENDBRANCH  23  27
ENDBRANCH  17  19
ENDBRANCH   1  17
TORSDOF 8
ENDMDL
MODEL 9
REMARK VINA RESULT:      -7.1      1.904      2.272
REMARK  Name = 
REMARK  10 active torsions:
REMARK  status: ('A' for Active; 'I' for Inactive)
REMARK    1  A    between atoms: C_1  and  O_2
REMARK    2  A    between atoms: O_2  and  C_3
REMARK    3  A    between atoms: C_3  and  C_5
REMARK    4  A    between atoms: C_8  and  C_9
REMARK    5  A    between atoms: C_9  and  O_11
REMARK    6  A    between atoms: O_11  and  C_12
REMARK    7  A    between atoms: C_13  and  N_14
REMARK    8  A    between atoms: N_14  and  C_15
REMARK    9  A    between atoms: C_15  and  N_17
REMARK   10  A    between atoms: C_21  and  C_23
REMARK                            x       y       z     vdW  Elec       q    Type
REMARK                         _______ _______ _______ _____ _____    ______ ____
ROOT
ATOM      1  N   UNL     1       2.512   6.602  19.433  0.00  0.00    +0.000 N 
ATOM      2  H   UNL     1       2.172   6.513  20.389  0.00  0.00    +0.000 HD
ENDROOT
BRANCH   1   7
ATOM      3  C   UNL     1       5.445   4.699  18.097  0.00  0.00    +0.000 A 
ATOM      4  C   UNL     1       4.886   3.451  17.865  0.00  0.00    +0.000 A 
ATOM      5  C   UNL     1       3.558   3.220  18.191  0.00  0.00    +0.000 A 
ATOM      6  C   UNL     1       2.746   4.242  18.745  0.00  0.00    +0.000 A 
ATOM      7  C   UNL     1       3.311   5.520  18.978  0.00  0.00    +0.000 A 
ATOM      8  C   UNL     1       4.656   5.724  18.639  0.00  0.00    +0.000 A 
BRANCH   3   9
ATOM      9  C   UNL     1       6.852   5.020  17.744  0.00  0.00    +0.000 C 
ATOM     10  O   UNL     1       7.181   5.570  16.709  0.00  0.00    +0.000 OA
BRANCH   9  12
ATOM     11  C   UNL     1       8.152   5.719  19.543  0.00  0.00    +0.000 C 
ATOM     12  O   UNL     1       7.682   4.634  18.747  0.00  0.00    +0.000 OA
ENDBRANCH   9  12
ENDBRANCH   3   9
BRANCH   6  13
ATOM     13  C   UNL     1       1.338   3.812  19.018  0.00  0.00    +0.000 C 
ATOM     14  O   UNL     1       0.642   3.281  18.165  0.00  0.00    +0.000 OA
BRANCH  13  15
ATOM     15  O   UNL     1       0.932   4.065  20.290  0.00  0.00    +0.000 OA
ATOM     16  C   UNL     1       1.392   3.075  21.214  0.00  0.00    +0.000 C 
ENDBRANCH  13  15
ENDBRANCH   6  13
ENDBRANCH   1   7
BRANCH   1  17
ATOM     17  C   UNL     1       2.207   7.842  18.873  0.00  0.00    +0.000 C 
ATOM     18  S   UNL     1       2.621   8.370  17.335  0.00  0.00    +0.000 S 
BRANCH  17  19
ATOM     19  N   UNL     1       1.570   8.667  19.820  0.00  0.00    +0.000 N 
ATOM     20  C   UNL     1       1.119   8.077  21.096  0.00  0.00    +0.000 C 
ATOM     21  C   UNL     1       1.106   9.115  22.224  0.00  0.00    +0.000 C 
ATOM     22  N   UNL     1       0.377  10.326  21.829  0.00  0.00    +0.000 N 
ATOM     23  C   UNL     1      -0.621  10.825  22.653  0.00  0.00    +0.000 C 
ATOM     24  O   UNL     1      -0.871  10.290  23.739  0.00  0.00    +0.000 OA
ATOM     25  C   UNL     1       0.812  10.909  20.553  0.00  0.00    +0.000 C 
ATOM     26  C   UNL     1       0.790   9.860  19.431  0.00  0.00    +0.000 C 
BRANCH  23  27
ATOM     27  C   UNL     1      -1.375  12.098  22.201  0.00  0.00    +0.000 C 
ATOM     28  C   UNL     1      -0.812  13.363  22.840  0.00  0.00    +0.000 C 
ATOM     29  C   UNL     1      -2.010  14.265  22.963  0.00  0.00    +0.000 C 
ATOM     30  C   UNL     1      -3.154  13.295  23.138  0.00  0.00    +0.000 C 
ATOM     31  O   UNL     1      -2.773  12.064  22.520  0.00  0.00    +0.000 OA
ENDBRANCH  23  27
ENDBRANCH  17  19
ENDBRANCH   1  17
TORSDOF 8
ENDMDL
