MODEL 1
REMARK VINA RESULT:      -7.8      0.000      0.000
REMARK  Name = 
REMARK  7 active torsions:
REMARK  status: ('A' for Active; 'I' for Inactive)
REMARK    1  A    between atoms: C_1  and  C_2
REMARK    2  A    between atoms: C_2  and  C_3
REMARK    3  A    between atoms: C_8  and  N_9
REMARK    4  A    between atoms: C_10  and  C_12
REMARK    5  A    between atoms: C_19  and  C_20
REMARK    6  A    between atoms: C_22  and  C_23
REMARK    7  A    between atoms: N_24  and  C_25
REMARK                            x       y       z     vdW  Elec       q    Type
REMARK                         _______ _______ _______ _____ _____    ______ ____
ROOT
ATOM      1  C   UNL     1       1.454  10.937  19.496  0.00  0.00    +0.000 C 
ATOM      2  C   UNL     1       2.159  10.056  18.448  0.00  0.00    +0.000 C 
ATOM      3  C   UNL     1       1.465   8.702  18.271  0.00  0.00    +0.000 C 
ATOM      4  N   UNL     1       1.369   8.082  19.577  0.00  0.00    +0.000 N 
ATOM      5  C   UNL     1       1.790   6.792  19.841  0.00  0.00    +0.000 A 
ATOM      6  N   UNL     1       1.243   6.092  20.891  0.00  0.00    +0.000 NA
ATOM      7  N   UNL     1       1.638   4.767  21.334  0.00  0.00    +0.000 NA
ATOM      8  C   UNL     1       2.626   4.036  20.751  0.00  0.00    +0.000 A 
ATOM      9  C   UNL     1       2.954   2.723  21.367  0.00  0.00    +0.000 C 
ATOM     10  C   UNL     1       3.197   4.704  19.653  0.00  0.00    +0.000 A 
ATOM     11  C   UNL     1       4.229   4.259  18.853  0.00  0.00    +0.000 A 
ATOM     12  C   UNL     1       5.099   3.051  18.947  0.00  0.00    +0.000 C 
ATOM     13  N   UNL     1       4.389   5.250  17.888  0.00  0.00    +0.000 N 
ATOM     14  N   UNL     1       3.662   6.364  18.171  0.00  0.00    +0.000 NA
ATOM     15  C   UNL     1       2.833   6.033  19.190  0.00  0.00    +0.000 A 
ATOM     16  C   UNL     1       0.519   8.770  20.538  0.00  0.00    +0.000 C 
ATOM     17  C   UNL     1       1.126  10.157  20.791  0.00  0.00    +0.000 C 
ENDROOT
BRANCH  13  18
ATOM     18  C   UNL     1       5.185   5.233  16.695  0.00  0.00    +0.000 A 
ATOM     19  C   UNL     1       6.392   5.941  16.601  0.00  0.00    +0.000 A 
ATOM     20  C   UNL     1       7.172   5.881  15.440  0.00  0.00    +0.000 A 
ATOM     21  C   UNL     1       6.756   5.104  14.366  0.00  0.00    +0.000 A 
ATOM     22 CL   UNL     1       7.740   5.006  12.958  0.00  0.00    +0.000 Cl
ATOM     23  C   UNL     1       5.563   4.388  14.439  0.00  0.00    +0.000 A 
ATOM     24  C   UNL     1       4.784   4.444  15.602  0.00  0.00    +0.000 A 
ENDBRANCH  13  18
BRANCH   1  26
ATOM     25  N   UNL     1      -0.987  10.981  19.315  0.00  0.00    +0.000 N 
ATOM     26  C   UNL     1       0.198  11.599  18.921  0.00  0.00    +0.000 C 
ATOM     27  O   UNL     1       0.292  12.577  18.189  0.00  0.00    +0.000 OA
ATOM     28  H   UNL     1      -0.900  10.194  19.942  0.00  0.00    +0.000 HD
BRANCH  25  34
ATOM     29  C   UNL     1      -2.885  10.843  17.745  0.00  0.00    +0.000 A 
ATOM     30  C   UNL     1      -4.209  11.204  17.409  0.00  0.00    +0.000 A 
ATOM     31  C   UNL     1      -4.948  12.069  18.208  0.00  0.00    +0.000 A 
ATOM     32  C   UNL     1      -4.372  12.593  19.354  0.00  0.00    +0.000 A 
ATOM     33  C   UNL     1      -3.073  12.226  19.716  0.00  0.00    +0.000 A 
ATOM     34  C   UNL     1      -2.310  11.347  18.939  0.00  0.00    +0.000 A 
BRANCH  29  36
ATOM     35  C   UNL     1      -2.811  10.098  15.367  0.00  0.00    +0.000 C 
ATOM     36  C   UNL     1      -2.143   9.998  16.732  0.00  0.00    +0.000 C 
ENDBRANCH  29  36
ENDBRANCH  25  34
ENDBRANCH   1  26
TORSDOF 4
ENDMDL
MODEL 2
REMARK VINA RESULT:      -7.6      5.430     11.390
REMARK  Name = 
REMARK  7 active torsions:
REMARK  status: ('A' for Active; 'I' for Inactive)
REMARK    1  A    between atoms: C_1  and  C_2
REMARK    2  A    between atoms: C_2  and  C_3
REMARK    3  A    between atoms: C_8  and  N_9
REMARK    4  A    between atoms: C_10  and  C_12
REMARK    5  A    between atoms: C_19  and  C_20
REMARK    6  A    between atoms: C_22  and  C_23
REMARK    7  A    between atoms: N_24  and  C_25
REMARK                            x       y       z     vdW  Elec       q    Type
REMARK                         _______ _______ _______ _____ _____    ______ ____
ROOT
ATOM      1  C   UNL     1      -1.023  11.914  18.254  0.00  0.00    +0.000 C 
ATOM      2  C   UNL     1      -0.744  12.531  19.637  0.00  0.00    +0.000 C 
ATOM      3  C   UNL     1      -1.754  12.067  20.691  0.00  0.00    +0.000 C 
ATOM      4  N   UNL     1      -3.082  12.355  20.187  0.00  0.00    +0.000 N 
ATOM      5  C   UNL     1      -4.038  13.042  20.909  0.00  0.00    +0.000 A 
ATOM      6  N   UNL     1      -5.373  12.858  20.633  0.00  0.00    +0.000 NA
ATOM      7  N   UNL     1      -6.482  13.564  21.250  0.00  0.00    +0.000 NA
ATOM      8  C   UNL     1      -6.332  14.522  22.203  0.00  0.00    +0.000 A 
ATOM      9  C   UNL     1      -7.565  15.198  22.687  0.00  0.00    +0.000 C 
ATOM     10  C   UNL     1      -4.980  14.727  22.537  0.00  0.00    +0.000 A 
ATOM     11  C   UNL     1      -4.476  15.633  23.446  0.00  0.00    +0.000 A 
ATOM     12  C   UNL     1      -5.141  16.703  24.245  0.00  0.00    +0.000 C 
ATOM     13  N   UNL     1      -3.101  15.412  23.450  0.00  0.00    +0.000 N 
ATOM     14  N   UNL     1      -2.715  14.574  22.451  0.00  0.00    +0.000 NA
ATOM     15  C   UNL     1      -3.848  14.046  21.932  0.00  0.00    +0.000 A 
ATOM     16  C   UNL     1      -3.475  11.614  18.997  0.00  0.00    +0.000 C 
ATOM     17  C   UNL     1      -2.517  12.004  17.864  0.00  0.00    +0.000 C 
ENDROOT
BRANCH  13  18
ATOM     18  C   UNL     1      -2.102  15.934  24.336  0.00  0.00    +0.000 A 
ATOM     19  C   UNL     1      -1.868  15.372  25.600  0.00  0.00    +0.000 A 
ATOM     20  C   UNL     1      -0.863  15.874  26.434  0.00  0.00    +0.000 A 
ATOM     21  C   UNL     1      -0.076  16.938  26.009  0.00  0.00    +0.000 A 
ATOM     22 CL   UNL     1       1.182  17.523  27.026  0.00  0.00    +0.000 Cl
ATOM     23  C   UNL     1      -0.287  17.507  24.755  0.00  0.00    +0.000 A 
ATOM     24  C   UNL     1      -1.290  17.004  23.917  0.00  0.00    +0.000 A 
ENDBRANCH  13  18
BRANCH   1  26
ATOM     25  N   UNL     1       0.674  10.256  18.856  0.00  0.00    +0.000 N 
ATOM     26  C   UNL     1      -0.521  10.470  18.172  0.00  0.00    +0.000 C 
ATOM     27  O   UNL     1      -1.155   9.627  17.548  0.00  0.00    +0.000 OA
ATOM     28  H   UNL     1       1.064  11.050  19.343  0.00  0.00    +0.000 HD
BRANCH  25  34
ATOM     29  C   UNL     1       1.495   8.352  20.192  0.00  0.00    +0.000 A 
ATOM     30  C   UNL     1       2.199   7.129  20.254  0.00  0.00    +0.000 A 
ATOM     31  C   UNL     1       2.828   6.599  19.134  0.00  0.00    +0.000 A 
ATOM     32  C   UNL     1       2.768   7.286  17.932  0.00  0.00    +0.000 A 
ATOM     33  C   UNL     1       2.052   8.483  17.846  0.00  0.00    +0.000 A 
ATOM     34  C   UNL     1       1.398   9.035  18.954  0.00  0.00    +0.000 A 
BRANCH  29  36
ATOM     35  C   UNL     1      -0.510   8.538  21.663  0.00  0.00    +0.000 C 
ATOM     36  C   UNL     1       0.964   8.887  21.505  0.00  0.00    +0.000 C 
ENDBRANCH  29  36
ENDBRANCH  25  34
ENDBRANCH   1  26
TORSDOF 4
ENDMDL
MODEL 3
REMARK VINA RESULT:      -7.6      6.816     11.437
REMARK  Name = 
REMARK  7 active torsions:
REMARK  status: ('A' for Active; 'I' for Inactive)
REMARK    1  A    between atoms: C_1  and  C_2
REMARK    2  A    between atoms: C_2  and  C_3
REMARK    3  A    between atoms: C_8  and  N_9
REMARK    4  A    between atoms: C_10  and  C_12
REMARK    5  A    between atoms: C_19  and  C_20
REMARK    6  A    between atoms: C_22  and  C_23
REMARK    7  A    between atoms: N_24  and  C_25
REMARK                            x       y       z     vdW  Elec       q    Type
REMARK                         _______ _______ _______ _____ _____    ______ ____
ROOT
ATOM      1  C   UNL     1       7.436  15.598  21.609  0.00  0.00    +0.000 C 
ATOM      2  C   UNL     1       6.356  14.513  21.441  0.00  0.00    +0.000 C 
ATOM      3  C   UNL     1       5.747  14.517  20.035  0.00  0.00    +0.000 C 
ATOM      4  N   UNL     1       5.266  15.859  19.767  0.00  0.00    +0.000 N 
ATOM      5  C   UNL     1       3.988  16.134  19.320  0.00  0.00    +0.000 A 
ATOM      6  N   UNL     1       3.740  17.291  18.618  0.00  0.00    +0.000 NA
ATOM      7  N   UNL     1       2.442  17.750  18.156  0.00  0.00    +0.000 NA
ATOM      8  C   UNL     1       1.280  17.075  18.367  0.00  0.00    +0.000 A 
ATOM      9  C   UNL     1       0.026  17.713  17.887  0.00  0.00    +0.000 C 
ATOM     10  C   UNL     1       1.491  15.869  19.060  0.00  0.00    +0.000 A 
ATOM     11  C   UNL     1       0.533  14.957  19.453  0.00  0.00    +0.000 A 
ATOM     12  C   UNL     1      -0.956  14.996  19.374  0.00  0.00    +0.000 C 
ATOM     13  N   UNL     1       1.246  13.922  20.053  0.00  0.00    +0.000 N 
ATOM     14  N   UNL     1       2.555  14.241  20.236  0.00  0.00    +0.000 NA
ATOM     15  C   UNL     1       2.773  15.386  19.546  0.00  0.00    +0.000 A 
ATOM     16  C   UNL     1       6.292  16.889  19.690  0.00  0.00    +0.000 C 
ATOM     17  C   UNL     1       6.978  16.970  21.061  0.00  0.00    +0.000 C 
ENDROOT
BRANCH  13  18
ATOM     18  C   UNL     1       0.786  12.630  20.474  0.00  0.00    +0.000 A 
ATOM     19  C   UNL     1       1.046  11.473  19.724  0.00  0.00    +0.000 A 
ATOM     20  C   UNL     1       0.619  10.218  20.172  0.00  0.00    +0.000 A 
ATOM     21  C   UNL     1      -0.062  10.106  21.378  0.00  0.00    +0.000 A 
ATOM     22 CL   UNL     1      -0.549   8.554  21.939  0.00  0.00    +0.000 Cl
ATOM     23  C   UNL     1      -0.325  11.242  22.141  0.00  0.00    +0.000 A 
ATOM     24  C   UNL     1       0.104  12.499  21.696  0.00  0.00    +0.000 A 
ENDBRANCH  13  18
BRANCH   1  26
ATOM     25  N   UNL     1       8.750  13.872  20.476  0.00  0.00    +0.000 N 
ATOM     26  C   UNL     1       8.764  15.171  20.977  0.00  0.00    +0.000 C 
ATOM     27  O   UNL     1       9.713  15.946  20.946  0.00  0.00    +0.000 OA
ATOM     28  H   UNL     1       7.880  13.365  20.558  0.00  0.00    +0.000 HD
BRANCH  25  34
ATOM     29  C   UNL     1       9.893  13.086  18.437  0.00  0.00    +0.000 A 
ATOM     30  C   UNL     1      10.987  12.419  17.840  0.00  0.00    +0.000 A 
ATOM     31  C   UNL     1      11.981  11.827  18.611  0.00  0.00    +0.000 A 
ATOM     32  C   UNL     1      11.895  11.887  19.993  0.00  0.00    +0.000 A 
ATOM     33  C   UNL     1      10.835  12.567  20.599  0.00  0.00    +0.000 A 
ATOM     34  C   UNL     1       9.827  13.184  19.849  0.00  0.00    +0.000 A 
BRANCH  29  36
ATOM     35  C   UNL     1       7.770  12.491  17.272  0.00  0.00    +0.000 C 
ATOM     36  C   UNL     1       8.814  13.577  17.495  0.00  0.00    +0.000 C 
ENDBRANCH  29  36
ENDBRANCH  25  34
ENDBRANCH   1  26
TORSDOF 4
ENDMDL
MODEL 4
REMARK VINA RESULT:      -7.6      0.501      1.787
REMARK  Name = 
REMARK  7 active torsions:
REMARK  status: ('A' for Active; 'I' for Inactive)
REMARK    1  A    between atoms: C_1  and  C_2
REMARK    2  A    between atoms: C_2  and  C_3
REMARK    3  A    between atoms: C_8  and  N_9
REMARK    4  A    between atoms: C_10  and  C_12
REMARK    5  A    between atoms: C_19  and  C_20
REMARK    6  A    between atoms: C_22  and  C_23
REMARK    7  A    between atoms: N_24  and  C_25
REMARK                            x       y       z     vdW  Elec       q    Type
REMARK                         _______ _______ _______ _____ _____    ______ ____
ROOT
ATOM      1  C   UNL     1       1.464  10.998  19.181  0.00  0.00    +0.000 C 
ATOM      2  C   UNL     1       2.181  10.065  18.187  0.00  0.00    +0.000 C 
ATOM      3  C   UNL     1       1.482   8.708  18.061  0.00  0.00    +0.000 C 
ATOM      4  N   UNL     1       1.360   8.150  19.393  0.00  0.00    +0.000 N 
ATOM      5  C   UNL     1       1.768   6.872  19.723  0.00  0.00    +0.000 A 
ATOM      6  N   UNL     1       1.200   6.223  20.795  0.00  0.00    +0.000 NA
ATOM      7  N   UNL     1       1.578   4.918  21.306  0.00  0.00    +0.000 NA
ATOM      8  C   UNL     1       2.571   4.156  20.774  0.00  0.00    +0.000 A 
ATOM      9  C   UNL     1       2.881   2.871  21.456  0.00  0.00    +0.000 C 
ATOM     10  C   UNL     1       3.166   4.770  19.656  0.00  0.00    +0.000 A 
ATOM     11  C   UNL     1       4.209   4.282  18.896  0.00  0.00    +0.000 A 
ATOM     12  C   UNL     1       5.069   3.075  19.061  0.00  0.00    +0.000 C 
ATOM     13  N   UNL     1       4.391   5.227  17.889  0.00  0.00    +0.000 N 
ATOM     14  N   UNL     1       3.666   6.356  18.108  0.00  0.00    +0.000 NA
ATOM     15  C   UNL     1       2.818   6.078  19.126  0.00  0.00    +0.000 A 
ATOM     16  C   UNL     1       0.498   8.886  20.305  0.00  0.00    +0.000 C 
ATOM     17  C   UNL     1       1.109  10.281  20.504  0.00  0.00    +0.000 C 
ENDROOT
BRANCH  13  18
ATOM     18  C   UNL     1       5.207   5.149  16.712  0.00  0.00    +0.000 A 
ATOM     19  C   UNL     1       4.816   4.406  15.589  0.00  0.00    +0.000 A 
ATOM     20  C   UNL     1       5.611   4.374  14.437  0.00  0.00    +0.000 A 
ATOM     21  C   UNL     1       6.800   5.092  14.394  0.00  0.00    +0.000 A 
ATOM     22 CL   UNL     1       7.751   5.078  12.961  0.00  0.00    +0.000 Cl
ATOM     23  C   UNL     1       7.204   5.842  15.497  0.00  0.00    +0.000 A 
ATOM     24  C   UNL     1       6.409   5.879  16.649  0.00  0.00    +0.000 A 
ENDBRANCH  13  18
BRANCH   1  26
ATOM     25  N   UNL     1      -0.850  10.759  18.419  0.00  0.00    +0.000 N 
ATOM     26  C   UNL     1       0.222  11.639  18.554  0.00  0.00    +0.000 C 
ATOM     27  O   UNL     1       0.233  12.818  18.223  0.00  0.00    +0.000 OA
ATOM     28  H   UNL     1      -0.710   9.819  18.761  0.00  0.00    +0.000 HD
BRANCH  25  34
ATOM     29  C   UNL     1      -3.102  11.747  18.618  0.00  0.00    +0.000 A 
ATOM     30  C   UNL     1      -4.353  12.041  18.031  0.00  0.00    +0.000 A 
ATOM     31  C   UNL     1      -4.662  11.627  16.740  0.00  0.00    +0.000 A 
ATOM     32  C   UNL     1      -3.725  10.907  16.016  0.00  0.00    +0.000 A 
ATOM     33  C   UNL     1      -2.472  10.632  16.571  0.00  0.00    +0.000 A 
ATOM     34  C   UNL     1      -2.128  11.047  17.862  0.00  0.00    +0.000 A 
BRANCH  29  36
ATOM     35  C   UNL     1      -3.959  13.199  20.455  0.00  0.00    +0.000 C 
ATOM     36  C   UNL     1      -2.935  12.140  20.070  0.00  0.00    +0.000 C 
ENDBRANCH  29  36
ENDBRANCH  25  34
ENDBRANCH   1  26
TORSDOF 4
ENDMDL
MODEL 5
REMARK VINA RESULT:      -7.4      4.523     10.799
REMARK  Name = 
REMARK  7 active torsions:
REMARK  status: ('A' for Active; 'I' for Inactive)
REMARK    1  A    between atoms: C_1  and  C_2
REMARK    2  A    between atoms: C_2  and  C_3
REMARK    3  A    between atoms: C_8  and  N_9
REMARK    4  A    between atoms: C_10  and  C_12
REMARK    5  A    between atoms: C_19  and  C_20
REMARK    6  A    between atoms: C_22  and  C_23
REMARK    7  A    between atoms: N_24  and  C_25
REMARK                            x       y       z     vdW  Elec       q    Type
REMARK                         _______ _______ _______ _____ _____    ______ ____
ROOT
ATOM      1  C   UNL     1       1.461   9.889  18.716  0.00  0.00    +0.000 C 
ATOM      2  C   UNL     1       1.022  10.646  19.983  0.00  0.00    +0.000 C 
ATOM      3  C   UNL     1      -0.404  10.283  20.408  0.00  0.00    +0.000 C 
ATOM      4  N   UNL     1      -1.274  10.507  19.270  0.00  0.00    +0.000 N 
ATOM      5  C   UNL     1      -2.433  11.256  19.333  0.00  0.00    +0.000 A 
ATOM      6  N   UNL     1      -3.446  11.033  18.429  0.00  0.00    +0.000 NA
ATOM      7  N   UNL     1      -4.681  11.789  18.324  0.00  0.00    +0.000 NA
ATOM      8  C   UNL     1      -4.997  12.841  19.126  0.00  0.00    +0.000 A 
ATOM      9  C   UNL     1      -6.271  13.553  18.845  0.00  0.00    +0.000 C 
ATOM     10  C   UNL     1      -3.997  13.090  20.085  0.00  0.00    +0.000 A 
ATOM     11  C   UNL     1      -3.988  14.088  21.036  0.00  0.00    +0.000 A 
ATOM     12  C   UNL     1      -4.919  15.228  21.279  0.00  0.00    +0.000 C 
ATOM     13  N   UNL     1      -2.819  13.880  21.765  0.00  0.00    +0.000 N 
ATOM     14  N   UNL     1      -2.015  12.948  21.188  0.00  0.00    +0.000 NA
ATOM     15  C   UNL     1      -2.747  12.360  20.211  0.00  0.00    +0.000 A 
ATOM     16  C   UNL     1      -1.038   9.645  18.121  0.00  0.00    +0.000 C 
ATOM     17  C   UNL     1       0.382   9.926  17.608  0.00  0.00    +0.000 C 
ENDROOT
BRANCH  13  18
ATOM     18  C   UNL     1      -2.391  14.499  22.986  0.00  0.00    +0.000 A 
ATOM     19  C   UNL     1      -3.090  14.321  24.189  0.00  0.00    +0.000 A 
ATOM     20  C   UNL     1      -2.634  14.905  25.377  0.00  0.00    +0.000 A 
ATOM     21  C   UNL     1      -1.468  15.662  25.374  0.00  0.00    +0.000 A 
ATOM     22 CL   UNL     1      -0.894  16.343  26.846  0.00  0.00    +0.000 Cl
ATOM     23  C   UNL     1      -0.755  15.846  24.191  0.00  0.00    +0.000 A 
ATOM     24  C   UNL     1      -1.208  15.260  23.002  0.00  0.00    +0.000 A 
ENDBRANCH  13  18
BRANCH   1  26
ATOM     25  N   UNL     1       2.293   7.729  17.921  0.00  0.00    +0.000 N 
ATOM     26  C   UNL     1       1.869   8.448  19.036  0.00  0.00    +0.000 C 
ATOM     27  O   UNL     1       1.806   8.026  20.185  0.00  0.00    +0.000 OA
ATOM     28  H   UNL     1       2.310   8.226  17.042  0.00  0.00    +0.000 HD
BRANCH  25  34
ATOM     29  C   UNL     1       4.070   6.047  17.606  0.00  0.00    +0.000 A 
ATOM     30  C   UNL     1       4.470   4.692  17.605  0.00  0.00    +0.000 A 
ATOM     31  C   UNL     1       3.560   3.669  17.842  0.00  0.00    +0.000 A 
ATOM     32  C   UNL     1       2.231   3.983  18.078  0.00  0.00    +0.000 A 
ATOM     33  C   UNL     1       1.823   5.319  18.110  0.00  0.00    +0.000 A 
ATOM     34  C   UNL     1       2.719   6.371  17.888  0.00  0.00    +0.000 A 
BRANCH  29  36
ATOM     35  C   UNL     1       6.518   6.499  17.468  0.00  0.00    +0.000 C 
ATOM     36  C   UNL     1       5.125   7.057  17.210  0.00  0.00    +0.000 C 
ENDBRANCH  29  36
ENDBRANCH  25  34
ENDBRANCH   1  26
TORSDOF 4
ENDMDL
MODEL 6
REMARK VINA RESULT:      -7.4      6.867     11.411
REMARK  Name = 
REMARK  7 active torsions:
REMARK  status: ('A' for Active; 'I' for Inactive)
REMARK    1  A    between atoms: C_1  and  C_2
REMARK    2  A    between atoms: C_2  and  C_3
REMARK    3  A    between atoms: C_8  and  N_9
REMARK    4  A    between atoms: C_10  and  C_12
REMARK    5  A    between atoms: C_19  and  C_20
REMARK    6  A    between atoms: C_22  and  C_23
REMARK    7  A    between atoms: N_24  and  C_25
REMARK                            x       y       z     vdW  Elec       q    Type
REMARK                         _______ _______ _______ _____ _____    ______ ____
ROOT
ATOM      1  C   UNL     1       7.355  15.910  21.141  0.00  0.00    +0.000 C 
ATOM      2  C   UNL     1       6.337  14.759  21.037  0.00  0.00    +0.000 C 
ATOM      3  C   UNL     1       5.656  14.713  19.666  0.00  0.00    +0.000 C 
ATOM      4  N   UNL     1       5.080  16.020  19.415  0.00  0.00    +0.000 N 
ATOM      5  C   UNL     1       3.766  16.212  19.034  0.00  0.00    +0.000 A 
ATOM      6  N   UNL     1       3.410  17.345  18.339  0.00  0.00    +0.000 NA
ATOM      7  N   UNL     1       2.065  17.720  17.943  0.00  0.00    +0.000 NA
ATOM      8  C   UNL     1       0.959  16.977  18.219  0.00  0.00    +0.000 A 
ATOM      9  C   UNL     1      -0.355  17.532  17.802  0.00  0.00    +0.000 C 
ATOM     10  C   UNL     1       1.280  15.792  18.908  0.00  0.00    +0.000 A 
ATOM     11  C   UNL     1       0.401  14.827  19.355  0.00  0.00    +0.000 A 
ATOM     12  C   UNL     1      -1.089  14.774  19.355  0.00  0.00    +0.000 C 
ATOM     13  N   UNL     1       1.207  13.843  19.923  0.00  0.00    +0.000 N 
ATOM     14  N   UNL     1       2.502  14.244  20.036  0.00  0.00    +0.000 NA
ATOM     15  C   UNL     1       2.612  15.393  19.328  0.00  0.00    +0.000 A 
ATOM     16  C   UNL     1       6.035  17.110  19.278  0.00  0.00    +0.000 C 
ATOM     17  C   UNL     1       6.785  17.246  20.610  0.00  0.00    +0.000 C 
ENDROOT
BRANCH  13  18
ATOM     18  C   UNL     1       0.851  12.530  20.376  0.00  0.00    +0.000 A 
ATOM     19  C   UNL     1       0.167  12.325  21.583  0.00  0.00    +0.000 A 
ATOM     20  C   UNL     1      -0.203  11.038  21.989  0.00  0.00    +0.000 A 
ATOM     21  C   UNL     1       0.098   9.944  21.186  0.00  0.00    +0.000 A 
ATOM     22 CL   UNL     1      -0.395   8.370  21.673  0.00  0.00    +0.000 Cl
ATOM     23  C   UNL     1       0.772  10.126  19.980  0.00  0.00    +0.000 A 
ATOM     24  C   UNL     1       1.140  11.414  19.571  0.00  0.00    +0.000 A 
ENDBRANCH  13  18
BRANCH   1  26
ATOM     25  N   UNL     1       8.501  14.851  19.256  0.00  0.00    +0.000 N 
ATOM     26  C   UNL     1       8.672  15.559  20.444  0.00  0.00    +0.000 C 
ATOM     27  O   UNL     1       9.743  15.898  20.934  0.00  0.00    +0.000 OA
ATOM     28  H   UNL     1       7.550  14.666  18.973  0.00  0.00    +0.000 HD
BRANCH  25  34
ATOM     29  C   UNL     1       9.722  12.978  18.214  0.00  0.00    +0.000 A 
ATOM     30  C   UNL     1      10.729  12.528  17.330  0.00  0.00    +0.000 A 
ATOM     31  C   UNL     1      11.552  13.423  16.657  0.00  0.00    +0.000 A 
ATOM     32  C   UNL     1      11.386  14.784  16.861  0.00  0.00    +0.000 A 
ATOM     33  C   UNL     1      10.377  15.246  17.710  0.00  0.00    +0.000 A 
ATOM     34  C   UNL     1       9.525  14.370  18.392  0.00  0.00    +0.000 A 
BRANCH  29  36
ATOM     35  C   UNL     1       9.955  10.882  19.546  0.00  0.00    +0.000 C 
ATOM     36  C   UNL     1       8.978  11.906  18.983  0.00  0.00    +0.000 C 
ENDBRANCH  29  36
ENDBRANCH  25  34
ENDBRANCH   1  26
TORSDOF 4
ENDMDL
MODEL 7
REMARK VINA RESULT:      -7.3      7.085     12.019
REMARK  Name = 
REMARK  7 active torsions:
REMARK  status: ('A' for Active; 'I' for Inactive)
REMARK    1  A    between atoms: C_1  and  C_2
REMARK    2  A    between atoms: C_2  and  C_3
REMARK    3  A    between atoms: C_8  and  N_9
REMARK    4  A    between atoms: C_10  and  C_12
REMARK    5  A    between atoms: C_19  and  C_20
REMARK    6  A    between atoms: C_22  and  C_23
REMARK    7  A    between atoms: N_24  and  C_25
REMARK                            x       y       z     vdW  Elec       q    Type
REMARK                         _______ _______ _______ _____ _____    ______ ____
ROOT
ATOM      1  C   UNL     1       7.002  15.881  20.376  0.00  0.00    +0.000 C 
ATOM      2  C   UNL     1       5.863  14.860  20.555  0.00  0.00    +0.000 C 
ATOM      3  C   UNL     1       4.976  14.762  19.310  0.00  0.00    +0.000 C 
ATOM      4  N   UNL     1       4.512  16.098  18.992  0.00  0.00    +0.000 N 
ATOM      5  C   UNL     1       3.182  16.413  18.784  0.00  0.00    +0.000 A 
ATOM      6  N   UNL     1       2.846  17.506  18.020  0.00  0.00    +0.000 NA
ATOM      7  N   UNL     1       1.503  18.003  17.779  0.00  0.00    +0.000 NA
ATOM      8  C   UNL     1       0.381  17.434  18.296  0.00  0.00    +0.000 A 
ATOM      9  C   UNL     1      -0.915  18.104  18.010  0.00  0.00    +0.000 C 
ATOM     10  C   UNL     1       0.676  16.294  19.066  0.00  0.00    +0.000 A 
ATOM     11  C   UNL     1      -0.220  15.494  19.745  0.00  0.00    +0.000 A 
ATOM     12  C   UNL     1      -1.689  15.626  19.965  0.00  0.00    +0.000 C 
ATOM     13  N   UNL     1       0.554  14.480  20.303  0.00  0.00    +0.000 N 
ATOM     14  N   UNL     1       1.886  14.726  20.181  0.00  0.00    +0.000 NA
ATOM     15  C   UNL     1       2.008  15.776  19.335  0.00  0.00    +0.000 A 
ATOM     16  C   UNL     1       5.544  17.043  18.593  0.00  0.00    +0.000 C 
ATOM     17  C   UNL     1       6.503  17.217  19.779  0.00  0.00    +0.000 C 
ENDROOT
BRANCH  13  18
ATOM     18  C   UNL     1       0.134  13.273  20.953  0.00  0.00    +0.000 A 
ATOM     19  C   UNL     1       0.357  12.011  20.383  0.00  0.00    +0.000 A 
ATOM     20  C   UNL     1      -0.029  10.843  21.051  0.00  0.00    +0.000 A 
ATOM     21  C   UNL     1      -0.633  10.926  22.300  0.00  0.00    +0.000 A 
ATOM     22 CL   UNL     1      -1.069   9.484  23.132  0.00  0.00    +0.000 Cl
ATOM     23  C   UNL     1      -0.859  12.170  22.887  0.00  0.00    +0.000 A 
ATOM     24  C   UNL     1      -0.470  13.339  22.222  0.00  0.00    +0.000 A 
ENDBRANCH  13  18
BRANCH   1  26
ATOM     25  N   UNL     1       8.586  14.056  19.986  0.00  0.00    +0.000 N 
ATOM     26  C   UNL     1       8.149  15.302  19.542  0.00  0.00    +0.000 C 
ATOM     27  O   UNL     1       8.597  15.925  18.587  0.00  0.00    +0.000 OA
ATOM     28  H   UNL     1       8.099  13.661  20.778  0.00  0.00    +0.000 HD
BRANCH  25  34
ATOM     29  C   UNL     1      10.991  13.568  19.738  0.00  0.00    +0.000 A 
ATOM     30  C   UNL     1      12.014  12.757  19.197  0.00  0.00    +0.000 A 
ATOM     31  C   UNL     1      11.723  11.695  18.349  0.00  0.00    +0.000 A 
ATOM     32  C   UNL     1      10.403  11.429  18.022  0.00  0.00    +0.000 A 
ATOM     33  C   UNL     1       9.377  12.204  18.569  0.00  0.00    +0.000 A 
ATOM     34  C   UNL     1       9.638  13.271  19.436  0.00  0.00    +0.000 A 
BRANCH  29  36
ATOM     35  C   UNL     1      12.002  15.845  19.622  0.00  0.00    +0.000 C 
ATOM     36  C   UNL     1      11.443  14.768  20.543  0.00  0.00    +0.000 C 
ENDBRANCH  29  36
ENDBRANCH  25  34
ENDBRANCH   1  26
TORSDOF 4
ENDMDL
MODEL 8
REMARK VINA RESULT:      -7.2      5.600     11.314
REMARK  Name = 
REMARK  7 active torsions:
REMARK  status: ('A' for Active; 'I' for Inactive)
REMARK    1  A    between atoms: C_1  and  C_2
REMARK    2  A    between atoms: C_2  and  C_3
REMARK    3  A    between atoms: C_8  and  N_9
REMARK    4  A    between atoms: C_10  and  C_12
REMARK    5  A    between atoms: C_19  and  C_20
REMARK    6  A    between atoms: C_22  and  C_23
REMARK    7  A    between atoms: N_24  and  C_25
REMARK                            x       y       z     vdW  Elec       q    Type
REMARK                         _______ _______ _______ _____ _____    ______ ____
ROOT
ATOM      1  C   UNL     1       0.494  12.830  18.620  0.00  0.00    +0.000 C 
ATOM      2  C   UNL     1       0.523  13.466  20.022  0.00  0.00    +0.000 C 
ATOM      3  C   UNL     1      -0.353  12.702  21.021  0.00  0.00    +0.000 C 
ATOM      4  N   UNL     1      -1.684  12.606  20.456  0.00  0.00    +0.000 N 
ATOM      5  C   UNL     1      -2.829  12.969  21.140  0.00  0.00    +0.000 A 
ATOM      6  N   UNL     1      -4.040  12.412  20.797  0.00  0.00    +0.000 NA
ATOM      7  N   UNL     1      -5.331  12.751  21.369  0.00  0.00    +0.000 NA
ATOM      8  C   UNL     1      -5.507  13.688  22.339  0.00  0.00    +0.000 A 
ATOM      9  C   UNL     1      -6.902  13.965  22.771  0.00  0.00    +0.000 C 
ATOM     10  C   UNL     1      -4.288  14.266  22.740  0.00  0.00    +0.000 A 
ATOM     11  C   UNL     1      -4.109  15.256  23.684  0.00  0.00    +0.000 A 
ATOM     12  C   UNL     1      -5.089  16.067  24.462  0.00  0.00    +0.000 C 
ATOM     13  N   UNL     1      -2.730  15.443  23.751  0.00  0.00    +0.000 N 
ATOM     14  N   UNL     1      -2.075  14.778  22.762  0.00  0.00    +0.000 NA
ATOM     15  C   UNL     1      -2.982  13.958  22.182  0.00  0.00    +0.000 A 
ATOM     16  C   UNL     1      -1.794  11.814  19.240  0.00  0.00    +0.000 C 
ATOM     17  C   UNL     1      -0.943  12.494  18.159  0.00  0.00    +0.000 C 
ENDROOT
BRANCH  13  18
ATOM     18  C   UNL     1      -1.964  16.209  24.690  0.00  0.00    +0.000 A 
ATOM     19  C   UNL     1      -1.553  15.674  25.920  0.00  0.00    +0.000 A 
ATOM     20  C   UNL     1      -0.775  16.427  26.807  0.00  0.00    +0.000 A 
ATOM     21  C   UNL     1      -0.393  17.720  26.468  0.00  0.00    +0.000 A 
ATOM     22 CL   UNL     1       0.595  18.625  27.547  0.00  0.00    +0.000 Cl
ATOM     23  C   UNL     1      -0.787  18.270  25.250  0.00  0.00    +0.000 A 
ATOM     24  C   UNL     1      -1.562  17.516  24.359  0.00  0.00    +0.000 A 
ENDBRANCH  13  18
BRANCH   1  26
ATOM     25  N   UNL     1       0.808  10.443  19.059  0.00  0.00    +0.000 N 
ATOM     26  C   UNL     1       1.397  11.596  18.545  0.00  0.00    +0.000 C 
ATOM     27  O   UNL     1       2.522  11.679  18.066  0.00  0.00    +0.000 OA
ATOM     28  H   UNL     1      -0.139  10.532  19.398  0.00  0.00    +0.000 HD
BRANCH  25  34
ATOM     29  C   UNL     1       1.454   8.467  20.387  0.00  0.00    +0.000 A 
ATOM     30  C   UNL     1       2.018   7.172  20.438  0.00  0.00    +0.000 A 
ATOM     31  C   UNL     1       2.543   6.566  19.304  0.00  0.00    +0.000 A 
ATOM     32  C   UNL     1       2.519   7.248  18.097  0.00  0.00    +0.000 A 
ATOM     33  C   UNL     1       1.941   8.517  18.022  0.00  0.00    +0.000 A 
ATOM     34  C   UNL     1       1.393   9.148  19.145  0.00  0.00    +0.000 A 
BRANCH  29  36
ATOM     35  C   UNL     1      -0.461   8.876  21.930  0.00  0.00    +0.000 C 
ATOM     36  C   UNL     1       1.034   9.068  21.711  0.00  0.00    +0.000 C 
ENDBRANCH  29  36
ENDBRANCH  25  34
ENDBRANCH   1  26
TORSDOF 4
ENDMDL
MODEL 9
REMARK VINA RESULT:      -7.1      6.636      9.060
REMARK  Name = 
REMARK  7 active torsions:
REMARK  status: ('A' for Active; 'I' for Inactive)
REMARK    1  A    between atoms: C_1  and  C_2
REMARK    2  A    between atoms: C_2  and  C_3
REMARK    3  A    between atoms: C_8  and  N_9
REMARK    4  A    between atoms: C_10  and  C_12
REMARK    5  A    between atoms: C_19  and  C_20
REMARK    6  A    between atoms: C_22  and  C_23
REMARK    7  A    between atoms: N_24  and  C_25
REMARK                            x       y       z     vdW  Elec       q    Type
REMARK                         _______ _______ _______ _____ _____    ______ ____
ROOT
ATOM      1  C   UNL     1       1.404  12.336  18.793  0.00  0.00    +0.000 C 
ATOM      2  C   UNL     1       1.881  12.287  20.257  0.00  0.00    +0.000 C 
ATOM      3  C   UNL     1       2.167  13.683  20.818  0.00  0.00    +0.000 C 
ATOM      4  N   UNL     1       3.105  14.334  19.926  0.00  0.00    +0.000 N 
ATOM      5  C   UNL     1       4.276  14.930  20.355  0.00  0.00    +0.000 A 
ATOM      6  N   UNL     1       4.851  15.931  19.607  0.00  0.00    +0.000 NA
ATOM      7  N   UNL     1       6.113  16.593  19.888  0.00  0.00    +0.000 NA
ATOM      8  C   UNL     1       6.904  16.295  20.954  0.00  0.00    +0.000 A 
ATOM      9  C   UNL     1       8.198  17.018  21.064  0.00  0.00    +0.000 C 
ATOM     10  C   UNL     1       6.340  15.291  21.763  0.00  0.00    +0.000 A 
ATOM     11  C   UNL     1       6.884  14.741  22.905  0.00  0.00    +0.000 A 
ATOM     12  C   UNL     1       8.210  14.935  23.558  0.00  0.00    +0.000 C 
ATOM     13  N   UNL     1       5.927  13.836  23.359  0.00  0.00    +0.000 N 
ATOM     14  N   UNL     1       4.929  13.649  22.454  0.00  0.00    +0.000 NA
ATOM     15  C   UNL     1       5.087  14.602  21.505  0.00  0.00    +0.000 A 
ATOM     16  C   UNL     1       2.609  14.608  18.585  0.00  0.00    +0.000 C 
ATOM     17  C   UNL     1       2.285  13.262  17.921  0.00  0.00    +0.000 C 
ENDROOT
BRANCH  13  18
ATOM     18  C   UNL     1       5.874  13.120  24.600  0.00  0.00    +0.000 A 
ATOM     19  C   UNL     1       6.214  11.762  24.685  0.00  0.00    +0.000 A 
ATOM     20  C   UNL     1       6.190  11.091  25.913  0.00  0.00    +0.000 A 
ATOM     21  C   UNL     1       5.836  11.775  27.070  0.00  0.00    +0.000 A 
ATOM     22 CL   UNL     1       5.846  10.953  28.581  0.00  0.00    +0.000 Cl
ATOM     23  C   UNL     1       5.500  13.126  27.009  0.00  0.00    +0.000 A 
ATOM     24  C   UNL     1       5.527  13.800  25.781  0.00  0.00    +0.000 A 
ENDBRANCH  13  18
BRANCH   1  26
ATOM     25  N   UNL     1      -0.948  11.691  18.995  0.00  0.00    +0.000 N 
ATOM     26  C   UNL     1      -0.072  12.732  18.697  0.00  0.00    +0.000 C 
ATOM     27  O   UNL     1      -0.388  13.873  18.382  0.00  0.00    +0.000 OA
ATOM     28  H   UNL     1      -0.530  10.810  19.260  0.00  0.00    +0.000 HD
BRANCH  25  34
ATOM     29  C   UNL     1      -3.104  11.005  18.013  0.00  0.00    +0.000 A 
ATOM     30  C   UNL     1      -4.516  11.049  18.036  0.00  0.00    +0.000 A 
ATOM     31  C   UNL     1      -5.200  11.824  18.965  0.00  0.00    +0.000 A 
ATOM     32  C   UNL     1      -4.482  12.572  19.885  0.00  0.00    +0.000 A 
ATOM     33  C   UNL     1      -3.086  12.518  19.894  0.00  0.00    +0.000 A 
ATOM     34  C   UNL     1      -2.370  11.738  18.979  0.00  0.00    +0.000 A 
BRANCH  29  36
ATOM     35  C   UNL     1      -2.843  10.857  15.537  0.00  0.00    +0.000 C 
ATOM     36  C   UNL     1      -2.477  10.228  16.874  0.00  0.00    +0.000 C 
ENDBRANCH  29  36
ENDBRANCH  25  34
ENDBRANCH   1  26
TORSDOF 4
ENDMDL
