MODEL 1
REMARK VINA RESULT:      -7.0      0.000      0.000
REMARK  Name = 
REMARK  12 active torsions:
REMARK  status: ('A' for Active; 'I' for Inactive)
REMARK    1  A    between atoms: C_1  and  N_2
REMARK    2  A    between atoms: C_3  and  O_5
REMARK    3  A    between atoms: O_5  and  C_6
REMARK    4  A    between atoms: C_6  and  C_7
REMARK    5  A    between atoms: C_7  and  C_8
REMARK    6  A    between atoms: C_8  and  C_9
REMARK    7  A    between atoms: C_8  and  N_18
REMARK    8  A    between atoms: C_9  and  C_10
REMARK    9  A    between atoms: C_10  and  C_11
REMARK   10  A    between atoms: C_11  and  C_12
REMARK   11  A    between atoms: N_18  and  C_19
REMARK   12  A    between atoms: N_18  and  C_20
REMARK                            x       y       z     vdW  Elec       q    Type
REMARK                         _______ _______ _______ _____ _____    ______ ____
ROOT
ATOM      1  C   UNL     1       6.073   6.064  16.200  0.00  0.00    +0.000 C 
ENDROOT
BRANCH   1   2
ATOM      2  N   UNL     1       7.361   6.068  16.961  0.00  0.00    +0.000 NA
ATOM      3  C   UNL     1       7.607   7.341  17.652  0.00  0.00    +0.000 C 
ATOM      4  C   UNL     1       7.441   4.991  17.956  0.00  0.00    +0.000 C 
ENDBRANCH   1   2
BRANCH   1   5
ATOM      5  C   UNL     1       5.623   4.609  15.863  0.00  0.00    +0.000 C 
BRANCH   5   6
ATOM      6  C   UNL     1       6.426   3.936  14.745  0.00  0.00    +0.000 C 
BRANCH   6   7
ATOM      7  O   UNL     1       5.679   3.896  13.511  0.00  0.00    +0.000 OA
BRANCH   7  10
ATOM      8  C   UNL     1       6.637   1.525  10.993  0.00  0.00    +0.000 C 
ATOM      9  N   UNL     1       6.050   2.199  12.118  0.00  0.00    +0.000 N 
ATOM     10  C   UNL     1       6.374   3.486  12.421  0.00  0.00    +0.000 C 
ATOM     11  O   UNL     1       7.167   4.172  11.791  0.00  0.00    +0.000 OA
ATOM     12  H   UNL     1       5.320   1.766  12.668  0.00  0.00    +0.000 HD
ENDBRANCH   7  10
ENDBRANCH   6   7
ENDBRANCH   5   6
ENDBRANCH   1   5
BRANCH   1  13
ATOM     13  C   UNL     1       4.948   6.844  16.953  0.00  0.00    +0.000 C 
BRANCH  13  14
ATOM     14  C   UNL     1       4.234   5.993  18.004  0.00  0.00    +0.000 C 
BRANCH  14  15
ATOM     15  C   UNL     1       2.707   6.086  17.950  0.00  0.00    +0.000 C 
BRANCH  15  16
ATOM     16  C   UNL     1       2.143   4.878  18.666  0.00  0.00    +0.000 A 
ATOM     17  C   UNL     1       1.691   3.769  17.939  0.00  0.00    +0.000 A 
ATOM     18  C   UNL     1       1.003   2.739  18.582  0.00  0.00    +0.000 A 
ATOM     19  C   UNL     1       0.764   2.809  19.954  0.00  0.00    +0.000 A 
ATOM     20  C   UNL     1       1.228   3.898  20.688  0.00  0.00    +0.000 A 
ATOM     21  C   UNL     1       1.920   4.926  20.048  0.00  0.00    +0.000 A 
ENDBRANCH  15  16
ENDBRANCH  14  15
ENDBRANCH  13  14
ENDBRANCH   1  13
TORSDOF 9
ENDMDL
MODEL 2
REMARK VINA RESULT:      -7.0      1.315      1.929
REMARK  Name = 
REMARK  12 active torsions:
REMARK  status: ('A' for Active; 'I' for Inactive)
REMARK    1  A    between atoms: C_1  and  N_2
REMARK    2  A    between atoms: C_3  and  O_5
REMARK    3  A    between atoms: O_5  and  C_6
REMARK    4  A    between atoms: C_6  and  C_7
REMARK    5  A    between atoms: C_7  and  C_8
REMARK    6  A    between atoms: C_8  and  C_9
REMARK    7  A    between atoms: C_8  and  N_18
REMARK    8  A    between atoms: C_9  and  C_10
REMARK    9  A    between atoms: C_10  and  C_11
REMARK   10  A    between atoms: C_11  and  C_12
REMARK   11  A    between atoms: N_18  and  C_19
REMARK   12  A    between atoms: N_18  and  C_20
REMARK                            x       y       z     vdW  Elec       q    Type
REMARK                         _______ _______ _______ _____ _____    ______ ____
ROOT
ATOM      1  C   UNL     1       6.197   6.327  17.211  0.00  0.00    +0.000 C 
ENDROOT
BRANCH   1   2
ATOM      2  N   UNL     1       7.047   7.053  18.206  0.00  0.00    +0.000 NA
ATOM      3  C   UNL     1       7.947   6.155  18.943  0.00  0.00    +0.000 C 
ATOM      4  C   UNL     1       7.864   8.110  17.596  0.00  0.00    +0.000 C 
ENDBRANCH   1   2
BRANCH   1   5
ATOM      5  C   UNL     1       6.476   4.792  17.246  0.00  0.00    +0.000 C 
BRANCH   5   6
ATOM      6  C   UNL     1       6.879   4.186  15.898  0.00  0.00    +0.000 C 
BRANCH   6   7
ATOM      7  O   UNL     1       7.440   5.184  15.019  0.00  0.00    +0.000 OA
BRANCH   7  10
ATOM      8  C   UNL     1       6.269   3.351  12.165  0.00  0.00    +0.000 C 
ATOM      9  N   UNL     1       6.535   3.845  13.488  0.00  0.00    +0.000 N 
ATOM     10  C   UNL     1       7.366   4.903  13.695  0.00  0.00    +0.000 C 
ATOM     11  O   UNL     1       7.946   5.518  12.810  0.00  0.00    +0.000 OA
ATOM     12  H   UNL     1       6.052   3.474  14.295  0.00  0.00    +0.000 HD
ENDBRANCH   7  10
ENDBRANCH   6   7
ENDBRANCH   5   6
ENDBRANCH   1   5
BRANCH   1  13
ATOM     13  C   UNL     1       4.678   6.630  17.410  0.00  0.00    +0.000 C 
BRANCH  13  14
ATOM     14  C   UNL     1       3.869   5.394  17.806  0.00  0.00    +0.000 C 
BRANCH  14  15
ATOM     15  C   UNL     1       2.390   5.676  18.077  0.00  0.00    +0.000 C 
BRANCH  15  16
ATOM     16  C   UNL     1       1.926   4.725  19.159  0.00  0.00    +0.000 A 
ATOM     17  C   UNL     1       2.363   4.886  20.480  0.00  0.00    +0.000 A 
ATOM     18  C   UNL     1       2.088   3.907  21.436  0.00  0.00    +0.000 A 
ATOM     19  C   UNL     1       1.374   2.764  21.079  0.00  0.00    +0.000 A 
ATOM     20  C   UNL     1       0.918   2.606  19.773  0.00  0.00    +0.000 A 
ATOM     21  C   UNL     1       1.187   3.585  18.817  0.00  0.00    +0.000 A 
ENDBRANCH  15  16
ENDBRANCH  14  15
ENDBRANCH  13  14
ENDBRANCH   1  13
TORSDOF 9
ENDMDL
MODEL 3
REMARK VINA RESULT:      -6.9      2.303      3.645
REMARK  Name = 
REMARK  12 active torsions:
REMARK  status: ('A' for Active; 'I' for Inactive)
REMARK    1  A    between atoms: C_1  and  N_2
REMARK    2  A    between atoms: C_3  and  O_5
REMARK    3  A    between atoms: O_5  and  C_6
REMARK    4  A    between atoms: C_6  and  C_7
REMARK    5  A    between atoms: C_7  and  C_8
REMARK    6  A    between atoms: C_8  and  C_9
REMARK    7  A    between atoms: C_8  and  N_18
REMARK    8  A    between atoms: C_9  and  C_10
REMARK    9  A    between atoms: C_10  and  C_11
REMARK   10  A    between atoms: C_11  and  C_12
REMARK   11  A    between atoms: N_18  and  C_19
REMARK   12  A    between atoms: N_18  and  C_20
REMARK                            x       y       z     vdW  Elec       q    Type
REMARK                         _______ _______ _______ _____ _____    ______ ____
ROOT
ATOM      1  C   UNL     1       4.100   5.645  17.350  0.00  0.00    +0.000 C 
ENDROOT
BRANCH   1   2
ATOM      2  N   UNL     1       2.973   6.009  18.265  0.00  0.00    +0.000 NA
ATOM      3  C   UNL     1       3.326   5.865  19.684  0.00  0.00    +0.000 C 
ATOM      4  C   UNL     1       2.486   7.379  18.056  0.00  0.00    +0.000 C 
ENDBRANCH   1   2
BRANCH   1   5
ATOM      5  C   UNL     1       5.473   6.089  17.945  0.00  0.00    +0.000 C 
BRANCH   5   6
ATOM      6  C   UNL     1       6.243   7.099  17.088  0.00  0.00    +0.000 C 
BRANCH   6   7
ATOM      7  O   UNL     1       7.484   6.542  16.606  0.00  0.00    +0.000 OA
BRANCH   7  10
ATOM      8  C   UNL     1       6.523   4.262  14.006  0.00  0.00    +0.000 C 
ATOM      9  N   UNL     1       6.744   5.417  14.833  0.00  0.00    +0.000 N 
ATOM     10  C   UNL     1       7.390   5.320  16.027  0.00  0.00    +0.000 C 
ATOM     11  O   UNL     1       7.831   4.280  16.498  0.00  0.00    +0.000 OA
ATOM     12  H   UNL     1       6.498   6.346  14.516  0.00  0.00    +0.000 HD
ENDBRANCH   7  10
ENDBRANCH   6   7
ENDBRANCH   5   6
ENDBRANCH   1   5
BRANCH   1  13
ATOM     13  C   UNL     1       4.101   4.123  17.000  0.00  0.00    +0.000 C 
BRANCH  13  14
ATOM     14  C   UNL     1       2.694   3.528  16.924  0.00  0.00    +0.000 C 
BRANCH  14  15
ATOM     15  C   UNL     1       2.565   2.148  17.573  0.00  0.00    +0.000 C 
BRANCH  15  16
ATOM     16  C   UNL     1       2.256   2.352  19.041  0.00  0.00    +0.000 A 
ATOM     17  C   UNL     1       1.020   2.878  19.439  0.00  0.00    +0.000 A 
ATOM     18  C   UNL     1       0.805   3.239  20.769  0.00  0.00    +0.000 A 
ATOM     19  C   UNL     1       1.821   3.077  21.710  0.00  0.00    +0.000 A 
ATOM     20  C   UNL     1       3.046   2.535  21.327  0.00  0.00    +0.000 A 
ATOM     21  C   UNL     1       3.262   2.168  19.999  0.00  0.00    +0.000 A 
ENDBRANCH  15  16
ENDBRANCH  14  15
ENDBRANCH  13  14
ENDBRANCH   1  13
TORSDOF 9
ENDMDL
MODEL 4
REMARK VINA RESULT:      -6.8      1.552      1.929
REMARK  Name = 
REMARK  12 active torsions:
REMARK  status: ('A' for Active; 'I' for Inactive)
REMARK    1  A    between atoms: C_1  and  N_2
REMARK    2  A    between atoms: C_3  and  O_5
REMARK    3  A    between atoms: O_5  and  C_6
REMARK    4  A    between atoms: C_6  and  C_7
REMARK    5  A    between atoms: C_7  and  C_8
REMARK    6  A    between atoms: C_8  and  C_9
REMARK    7  A    between atoms: C_8  and  N_18
REMARK    8  A    between atoms: C_9  and  C_10
REMARK    9  A    between atoms: C_10  and  C_11
REMARK   10  A    between atoms: C_11  and  C_12
REMARK   11  A    between atoms: N_18  and  C_19
REMARK   12  A    between atoms: N_18  and  C_20
REMARK                            x       y       z     vdW  Elec       q    Type
REMARK                         _______ _______ _______ _____ _____    ______ ____
ROOT
ATOM      1  C   UNL     1       5.513   6.526  17.421  0.00  0.00    +0.000 C 
ENDROOT
BRANCH   1   2
ATOM      2  N   UNL     1       6.782   6.052  18.057  0.00  0.00    +0.000 NA
ATOM      3  C   UNL     1       7.785   7.118  18.183  0.00  0.00    +0.000 C 
ATOM      4  C   UNL     1       6.572   5.469  19.389  0.00  0.00    +0.000 C 
ENDBRANCH   1   2
BRANCH   1   5
ATOM      5  C   UNL     1       5.422   6.064  15.934  0.00  0.00    +0.000 C 
BRANCH   5   6
ATOM      6  C   UNL     1       6.309   4.864  15.584  0.00  0.00    +0.000 C 
BRANCH   6   7
ATOM      7  O   UNL     1       7.457   5.266  14.806  0.00  0.00    +0.000 OA
BRANCH   7  10
ATOM      8  C   UNL     1       6.389   3.290  12.008  0.00  0.00    +0.000 C 
ATOM      9  N   UNL     1       6.612   3.847  13.314  0.00  0.00    +0.000 N 
ATOM     10  C   UNL     1       7.422   4.926  13.495  0.00  0.00    +0.000 C 
ATOM     11  O   UNL     1       8.018   5.508  12.599  0.00  0.00    +0.000 OA
ATOM     12  H   UNL     1       6.112   3.505  14.124  0.00  0.00    +0.000 HD
ENDBRANCH   7  10
ENDBRANCH   6   7
ENDBRANCH   5   6
ENDBRANCH   1   5
BRANCH   1  13
ATOM     13  C   UNL     1       4.253   6.080  18.230  0.00  0.00    +0.000 C 
BRANCH  13  14
ATOM     14  C   UNL     1       3.374   5.089  17.465  0.00  0.00    +0.000 C 
BRANCH  14  15
ATOM     15  C   UNL     1       3.549   3.633  17.902  0.00  0.00    +0.000 C 
BRANCH  15  16
ATOM     16  C   UNL     1       2.829   3.454  19.221  0.00  0.00    +0.000 A 
ATOM     17  C   UNL     1       3.484   2.867  20.312  0.00  0.00    +0.000 A 
ATOM     18  C   UNL     1       2.771   2.532  21.464  0.00  0.00    +0.000 A 
ATOM     19  C   UNL     1       1.401   2.783  21.534  0.00  0.00    +0.000 A 
ATOM     20  C   UNL     1       0.747   3.386  20.462  0.00  0.00    +0.000 A 
ATOM     21  C   UNL     1       1.459   3.726  19.312  0.00  0.00    +0.000 A 
ENDBRANCH  15  16
ENDBRANCH  14  15
ENDBRANCH  13  14
ENDBRANCH   1  13
TORSDOF 9
ENDMDL
MODEL 5
REMARK VINA RESULT:      -6.8      0.918      1.491
REMARK  Name = 
REMARK  12 active torsions:
REMARK  status: ('A' for Active; 'I' for Inactive)
REMARK    1  A    between atoms: C_1  and  N_2
REMARK    2  A    between atoms: C_3  and  O_5
REMARK    3  A    between atoms: O_5  and  C_6
REMARK    4  A    between atoms: C_6  and  C_7
REMARK    5  A    between atoms: C_7  and  C_8
REMARK    6  A    between atoms: C_8  and  C_9
REMARK    7  A    between atoms: C_8  and  N_18
REMARK    8  A    between atoms: C_9  and  C_10
REMARK    9  A    between atoms: C_10  and  C_11
REMARK   10  A    between atoms: C_11  and  C_12
REMARK   11  A    between atoms: N_18  and  C_19
REMARK   12  A    between atoms: N_18  and  C_20
REMARK                            x       y       z     vdW  Elec       q    Type
REMARK                         _______ _______ _______ _____ _____    ______ ____
ROOT
ATOM      1  C   UNL     1       6.481   6.139  16.715  0.00  0.00    +0.000 C 
ENDROOT
BRANCH   1   2
ATOM      2  N   UNL     1       7.692   6.597  17.466  0.00  0.00    +0.000 NA
ATOM      3  C   UNL     1       7.754   8.059  17.602  0.00  0.00    +0.000 C 
ATOM      4  C   UNL     1       7.785   6.014  18.810  0.00  0.00    +0.000 C 
ENDBRANCH   1   2
BRANCH   1   5
ATOM      5  C   UNL     1       6.820   4.936  15.781  0.00  0.00    +0.000 C 
BRANCH   5   6
ATOM      6  C   UNL     1       5.948   4.839  14.525  0.00  0.00    +0.000 C 
BRANCH   6   7
ATOM      7  O   UNL     1       6.656   4.201  13.441  0.00  0.00    +0.000 OA
BRANCH   7  10
ATOM      8  C   UNL     1       6.080   1.496  11.155  0.00  0.00    +0.000 C 
ATOM      9  N   UNL     1       6.649   2.452  12.063  0.00  0.00    +0.000 N 
ATOM     10  C   UNL     1       5.896   3.444  12.612  0.00  0.00    +0.000 C 
ATOM     11  O   UNL     1       4.704   3.614  12.396  0.00  0.00    +0.000 OA
ATOM     12  H   UNL     1       7.606   2.369  12.384  0.00  0.00    +0.000 HD
ENDBRANCH   7  10
ENDBRANCH   6   7
ENDBRANCH   5   6
ENDBRANCH   1   5
BRANCH   1  13
ATOM     13  C   UNL     1       5.295   5.796  17.672  0.00  0.00    +0.000 C 
BRANCH  13  14
ATOM     14  C   UNL     1       3.968   6.409  17.222  0.00  0.00    +0.000 C 
BRANCH  14  15
ATOM     15  C   UNL     1       3.066   6.858  18.373  0.00  0.00    +0.000 C 
BRANCH  15  16
ATOM     16  C   UNL     1       2.281   5.653  18.846  0.00  0.00    +0.000 A 
ATOM     17  C   UNL     1       2.115   5.408  20.216  0.00  0.00    +0.000 A 
ATOM     18  C   UNL     1       1.557   4.206  20.653  0.00  0.00    +0.000 A 
ATOM     19  C   UNL     1       1.159   3.244  19.726  0.00  0.00    +0.000 A 
ATOM     20  C   UNL     1       1.302   3.488  18.362  0.00  0.00    +0.000 A 
ATOM     21  C   UNL     1       1.855   4.691  17.923  0.00  0.00    +0.000 A 
ENDBRANCH  15  16
ENDBRANCH  14  15
ENDBRANCH  13  14
ENDBRANCH   1  13
TORSDOF 9
ENDMDL
MODEL 6
REMARK VINA RESULT:      -6.7      1.384      1.769
REMARK  Name = 
REMARK  12 active torsions:
REMARK  status: ('A' for Active; 'I' for Inactive)
REMARK    1  A    between atoms: C_1  and  N_2
REMARK    2  A    between atoms: C_3  and  O_5
REMARK    3  A    between atoms: O_5  and  C_6
REMARK    4  A    between atoms: C_6  and  C_7
REMARK    5  A    between atoms: C_7  and  C_8
REMARK    6  A    between atoms: C_8  and  C_9
REMARK    7  A    between atoms: C_8  and  N_18
REMARK    8  A    between atoms: C_9  and  C_10
REMARK    9  A    between atoms: C_10  and  C_11
REMARK   10  A    between atoms: C_11  and  C_12
REMARK   11  A    between atoms: N_18  and  C_19
REMARK   12  A    between atoms: N_18  and  C_20
REMARK                            x       y       z     vdW  Elec       q    Type
REMARK                         _______ _______ _______ _____ _____    ______ ____
ROOT
ATOM      1  C   UNL     1       5.808   5.368  16.081  0.00  0.00    +0.000 C 
ENDROOT
BRANCH   1   2
ATOM      2  N   UNL     1       7.199   5.575  16.592  0.00  0.00    +0.000 NA
ATOM      3  C   UNL     1       7.394   6.906  17.182  0.00  0.00    +0.000 C 
ATOM      4  C   UNL     1       7.596   4.575  17.592  0.00  0.00    +0.000 C 
ENDBRANCH   1   2
BRANCH   1   5
ATOM      5  C   UNL     1       5.714   4.076  15.211  0.00  0.00    +0.000 C 
BRANCH   5   6
ATOM      6  C   UNL     1       6.747   3.990  14.083  0.00  0.00    +0.000 C 
BRANCH   6   7
ATOM      7  O   UNL     1       6.163   4.326  12.807  0.00  0.00    +0.000 OA
BRANCH   7  10
ATOM      8  C   UNL     1       6.363   1.149  11.151  0.00  0.00    +0.000 C 
ATOM      9  N   UNL     1       6.635   2.363  11.869  0.00  0.00    +0.000 N 
ATOM     10  C   UNL     1       5.660   3.283  12.102  0.00  0.00    +0.000 C 
ATOM     11  O   UNL     1       4.497   3.172  11.740  0.00  0.00    +0.000 OA
ATOM     12  H   UNL     1       7.540   2.533  12.291  0.00  0.00    +0.000 HD
ENDBRANCH   7  10
ENDBRANCH   6   7
ENDBRANCH   5   6
ENDBRANCH   1   5
BRANCH   1  13
ATOM     13  C   UNL     1       4.758   5.349  17.237  0.00  0.00    +0.000 C 
BRANCH  13  14
ATOM     14  C   UNL     1       3.712   4.245  17.075  0.00  0.00    +0.000 C 
BRANCH  14  15
ATOM     15  C   UNL     1       3.953   3.021  17.961  0.00  0.00    +0.000 C 
BRANCH  15  16
ATOM     16  C   UNL     1       3.031   3.124  19.157  0.00  0.00    +0.000 A 
ATOM     17  C   UNL     1       3.469   2.729  20.427  0.00  0.00    +0.000 A 
ATOM     18  C   UNL     1       2.568   2.647  21.489  0.00  0.00    +0.000 A 
ATOM     19  C   UNL     1       1.224   2.961  21.289  0.00  0.00    +0.000 A 
ATOM     20  C   UNL     1       0.784   3.375  20.034  0.00  0.00    +0.000 A 
ATOM     21  C   UNL     1       1.684   3.462  18.973  0.00  0.00    +0.000 A 
ENDBRANCH  15  16
ENDBRANCH  14  15
ENDBRANCH  13  14
ENDBRANCH   1  13
TORSDOF 9
ENDMDL
MODEL 7
REMARK VINA RESULT:      -6.7      0.501      1.395
REMARK  Name = 
REMARK  12 active torsions:
REMARK  status: ('A' for Active; 'I' for Inactive)
REMARK    1  A    between atoms: C_1  and  N_2
REMARK    2  A    between atoms: C_3  and  O_5
REMARK    3  A    between atoms: O_5  and  C_6
REMARK    4  A    between atoms: C_6  and  C_7
REMARK    5  A    between atoms: C_7  and  C_8
REMARK    6  A    between atoms: C_8  and  C_9
REMARK    7  A    between atoms: C_8  and  N_18
REMARK    8  A    between atoms: C_9  and  C_10
REMARK    9  A    between atoms: C_10  and  C_11
REMARK   10  A    between atoms: C_11  and  C_12
REMARK   11  A    between atoms: N_18  and  C_19
REMARK   12  A    between atoms: N_18  and  C_20
REMARK                            x       y       z     vdW  Elec       q    Type
REMARK                         _______ _______ _______ _____ _____    ______ ____
ROOT
ATOM      1  C   UNL     1       6.026   6.074  16.520  0.00  0.00    +0.000 C 
ENDROOT
BRANCH   1   2
ATOM      2  N   UNL     1       6.822   5.945  17.781  0.00  0.00    +0.000 NA
ATOM      3  C   UNL     1       7.625   4.715  17.820  0.00  0.00    +0.000 C 
ATOM      4  C   UNL     1       7.725   7.082  18.006  0.00  0.00    +0.000 C 
ENDBRANCH   1   2
BRANCH   1   5
ATOM      5  C   UNL     1       6.068   4.753  15.690  0.00  0.00    +0.000 C 
BRANCH   5   6
ATOM      6  C   UNL     1       6.080   4.955  14.171  0.00  0.00    +0.000 C 
BRANCH   6   7
ATOM      7  O   UNL     1       5.634   3.769  13.479  0.00  0.00    +0.000 OA
BRANCH   7  10
ATOM      8  C   UNL     1       6.711   1.504  10.913  0.00  0.00    +0.000 C 
ATOM      9  N   UNL     1       6.072   2.131  12.037  0.00  0.00    +0.000 N 
ATOM     10  C   UNL     1       6.378   3.404  12.407  0.00  0.00    +0.000 C 
ATOM     11  O   UNL     1       7.196   4.117  11.841  0.00  0.00    +0.000 OA
ATOM     12  H   UNL     1       5.319   1.674  12.536  0.00  0.00    +0.000 HD
ENDBRANCH   7  10
ENDBRANCH   6   7
ENDBRANCH   5   6
ENDBRANCH   1   5
BRANCH   1  13
ATOM     13  C   UNL     1       4.555   6.518  16.801  0.00  0.00    +0.000 C 
BRANCH  13  14
ATOM     14  C   UNL     1       4.095   6.192  18.223  0.00  0.00    +0.000 C 
BRANCH  14  15
ATOM     15  C   UNL     1       2.630   6.540  18.500  0.00  0.00    +0.000 C 
BRANCH  15  16
ATOM     16  C   UNL     1       1.923   5.270  18.924  0.00  0.00    +0.000 A 
ATOM     17  C   UNL     1       1.688   5.008  20.280  0.00  0.00    +0.000 A 
ATOM     18  C   UNL     1       1.209   3.762  20.683  0.00  0.00    +0.000 A 
ATOM     19  C   UNL     1       0.959   2.770  19.735  0.00  0.00    +0.000 A 
ATOM     20  C   UNL     1       1.170   3.029  18.382  0.00  0.00    +0.000 A 
ATOM     21  C   UNL     1       1.645   4.276  17.977  0.00  0.00    +0.000 A 
ENDBRANCH  15  16
ENDBRANCH  14  15
ENDBRANCH  13  14
ENDBRANCH   1  13
TORSDOF 9
ENDMDL
MODEL 8
REMARK VINA RESULT:      -6.7      1.012      1.753
REMARK  Name = 
REMARK  12 active torsions:
REMARK  status: ('A' for Active; 'I' for Inactive)
REMARK    1  A    between atoms: C_1  and  N_2
REMARK    2  A    between atoms: C_3  and  O_5
REMARK    3  A    between atoms: O_5  and  C_6
REMARK    4  A    between atoms: C_6  and  C_7
REMARK    5  A    between atoms: C_7  and  C_8
REMARK    6  A    between atoms: C_8  and  C_9
REMARK    7  A    between atoms: C_8  and  N_18
REMARK    8  A    between atoms: C_9  and  C_10
REMARK    9  A    between atoms: C_10  and  C_11
REMARK   10  A    between atoms: C_11  and  C_12
REMARK   11  A    between atoms: N_18  and  C_19
REMARK   12  A    between atoms: N_18  and  C_20
REMARK                            x       y       z     vdW  Elec       q    Type
REMARK                         _______ _______ _______ _____ _____    ______ ____
ROOT
ATOM      1  C   UNL     1       5.912   5.582  15.955  0.00  0.00    +0.000 C 
ENDROOT
BRANCH   1   2
ATOM      2  N   UNL     1       6.666   5.740  17.238  0.00  0.00    +0.000 NA
ATOM      3  C   UNL     1       7.647   4.667  17.454  0.00  0.00    +0.000 C 
ATOM      4  C   UNL     1       7.372   7.024  17.333  0.00  0.00    +0.000 C 
ENDBRANCH   1   2
BRANCH   1   5
ATOM      5  C   UNL     1       6.808   4.938  14.852  0.00  0.00    +0.000 C 
BRANCH   5   6
ATOM      6  C   UNL     1       6.200   3.703  14.179  0.00  0.00    +0.000 C 
BRANCH   6   7
ATOM      7  O   UNL     1       5.348   4.071  13.073  0.00  0.00    +0.000 OA
BRANCH   7  10
ATOM      8  C   UNL     1       6.524   1.316  11.098  0.00  0.00    +0.000 C 
ATOM      9  N   UNL     1       6.372   2.378  12.054  0.00  0.00    +0.000 N 
ATOM     10  C   UNL     1       5.257   3.157  12.077  0.00  0.00    +0.000 C 
ATOM     11  O   UNL     1       4.307   3.036  11.315  0.00  0.00    +0.000 OA
ATOM     12  H   UNL     1       7.053   2.525  12.789  0.00  0.00    +0.000 HD
ENDBRANCH   7  10
ENDBRANCH   6   7
ENDBRANCH   5   6
ENDBRANCH   1   5
BRANCH   1  13
ATOM     13  C   UNL     1       4.588   4.777  16.150  0.00  0.00    +0.000 C 
BRANCH  13  14
ATOM     14  C   UNL     1       4.197   4.619  17.621  0.00  0.00    +0.000 C 
BRANCH  14  15
ATOM     15  C   UNL     1       2.957   5.419  18.025  0.00  0.00    +0.000 C 
BRANCH  15  16
ATOM     16  C   UNL     1       2.236   4.643  19.106  0.00  0.00    +0.000 A 
ATOM     17  C   UNL     1       2.599   4.795  20.451  0.00  0.00    +0.000 A 
ATOM     18  C   UNL     1       2.067   3.948  21.423  0.00  0.00    +0.000 A 
ATOM     19  C   UNL     1       1.167   2.946  21.060  0.00  0.00    +0.000 A 
ATOM     20  C   UNL     1       0.785   2.802  19.728  0.00  0.00    +0.000 A 
ATOM     21  C   UNL     1       1.312   3.651  18.755  0.00  0.00    +0.000 A 
ENDBRANCH  15  16
ENDBRANCH  14  15
ENDBRANCH  13  14
ENDBRANCH   1  13
TORSDOF 9
ENDMDL
MODEL 9
REMARK VINA RESULT:      -6.7      0.904      1.231
REMARK  Name = 
REMARK  12 active torsions:
REMARK  status: ('A' for Active; 'I' for Inactive)
REMARK    1  A    between atoms: C_1  and  N_2
REMARK    2  A    between atoms: C_3  and  O_5
REMARK    3  A    between atoms: O_5  and  C_6
REMARK    4  A    between atoms: C_6  and  C_7
REMARK    5  A    between atoms: C_7  and  C_8
REMARK    6  A    between atoms: C_8  and  C_9
REMARK    7  A    between atoms: C_8  and  N_18
REMARK    8  A    between atoms: C_9  and  C_10
REMARK    9  A    between atoms: C_10  and  C_11
REMARK   10  A    between atoms: C_11  and  C_12
REMARK   11  A    between atoms: N_18  and  C_19
REMARK   12  A    between atoms: N_18  and  C_20
REMARK                            x       y       z     vdW  Elec       q    Type
REMARK                         _______ _______ _______ _____ _____    ______ ____
ROOT
ATOM      1  C   UNL     1       5.982   5.786  16.488  0.00  0.00    +0.000 C 
ENDROOT
BRANCH   1   2
ATOM      2  N   UNL     1       6.708   6.264  17.705  0.00  0.00    +0.000 NA
ATOM      3  C   UNL     1       7.606   5.245  18.266  0.00  0.00    +0.000 C 
ATOM      4  C   UNL     1       7.499   7.477  17.459  0.00  0.00    +0.000 C 
ENDBRANCH   1   2
BRANCH   1   5
ATOM      5  C   UNL     1       6.817   4.715  15.719  0.00  0.00    +0.000 C 
BRANCH   5   6
ATOM      6  C   UNL     1       5.988   3.765  14.849  0.00  0.00    +0.000 C 
BRANCH   6   7
ATOM      7  O   UNL     1       5.651   4.369  13.582  0.00  0.00    +0.000 OA
BRANCH   7  10
ATOM      8  C   UNL     1       6.836   1.798  11.377  0.00  0.00    +0.000 C 
ATOM      9  N   UNL     1       6.692   2.792  12.404  0.00  0.00    +0.000 N 
ATOM     10  C   UNL     1       5.545   3.512  12.537  0.00  0.00    +0.000 C 
ATOM     11  O   UNL     1       4.558   3.389  11.823  0.00  0.00    +0.000 OA
ATOM     12  H   UNL     1       7.406   2.929  13.107  0.00  0.00    +0.000 HD
ENDBRANCH   7  10
ENDBRANCH   6   7
ENDBRANCH   5   6
ENDBRANCH   1   5
BRANCH   1  13
ATOM     13  C   UNL     1       4.555   5.249  16.832  0.00  0.00    +0.000 C 
BRANCH  13  14
ATOM     14  C   UNL     1       3.860   6.063  17.925  0.00  0.00    +0.000 C 
BRANCH  14  15
ATOM     15  C   UNL     1       2.344   5.861  17.984  0.00  0.00    +0.000 C 
BRANCH  15  16
ATOM     16  C   UNL     1       2.061   4.750  18.971  0.00  0.00    +0.000 A 
ATOM     17  C   UNL     1       1.349   3.611  18.573  0.00  0.00    +0.000 A 
ATOM     18  C   UNL     1       0.928   2.677  19.520  0.00  0.00    +0.000 A 
ATOM     19  C   UNL     1       1.216   2.874  20.870  0.00  0.00    +0.000 A 
ATOM     20  C   UNL     1       1.941   3.993  21.272  0.00  0.00    +0.000 A 
ATOM     21  C   UNL     1       2.368   4.924  20.327  0.00  0.00    +0.000 A 
ENDBRANCH  15  16
ENDBRANCH  14  15
ENDBRANCH  13  14
ENDBRANCH   1  13
TORSDOF 9
ENDMDL
