MODEL 1
REMARK VINA RESULT:      -7.4      0.000      0.000
REMARK  Name = 
REMARK  12 active torsions:
REMARK  status: ('A' for Active; 'I' for Inactive)
REMARK    1  A    between atoms: C_1  and  O_2
REMARK    2  A    between atoms: O_2  and  C_3
REMARK    3  A    between atoms: C_6  and  C_7
REMARK    4  A    between atoms: C_7  and  N_8
REMARK    5  A    between atoms: N_11  and  C_12
REMARK    6  A    between atoms: C_12  and  C_13
REMARK    7  A    between atoms: C_16  and  C_17
REMARK    8  A    between atoms: C_17  and  N_19
REMARK    9  A    between atoms: C_27  and  O_28
REMARK   10  A    between atoms: O_28  and  C_29
REMARK   11  A    between atoms: C_30  and  O_31
REMARK   12  A    between atoms: O_31  and  C_32
REMARK                            x       y       z     vdW  Elec       q    Type
REMARK                         _______ _______ _______ _____ _____    ______ ____
ROOT
ATOM      1  N   UNL     1      -0.572  11.582  19.140  0.00  0.00    +0.000 NA
ATOM      2  C   UNL     1      -0.897  10.160  18.930  0.00  0.00    +0.000 C 
ATOM      3  C   UNL     1       0.118   9.555  17.971  0.00  0.00    +0.000 C 
ATOM      4  N   UNL     1       1.503   9.705  18.472  0.00  0.00    +0.000 NA
ATOM      5  C   UNL     1       1.782  11.146  18.590  0.00  0.00    +0.000 C 
ATOM      6  C   UNL     1       0.810  11.836  19.604  0.00  0.00    +0.000 C 
ENDROOT
BRANCH   1   7
ATOM      7  C   UNL     1      -1.594  12.668  18.997  0.00  0.00    +0.000 C 
BRANCH   7  11
ATOM      8  C   UNL     1      -4.555  12.662  22.317  0.00  0.00    +0.000 A 
ATOM      9  C   UNL     1      -3.190  12.932  22.474  0.00  0.00    +0.000 A 
ATOM     10  C   UNL     1      -2.300  12.931  21.417  0.00  0.00    +0.000 A 
ATOM     11  C   UNL     1      -2.687  12.683  20.108  0.00  0.00    +0.000 A 
ATOM     12  C   UNL     1      -4.087  12.460  19.869  0.00  0.00    +0.000 A 
ATOM     13  C   UNL     1      -5.021  12.421  20.985  0.00  0.00    +0.000 A 
BRANCH   8  15
ATOM     14  C   UNL     1      -6.546  12.794  24.034  0.00  0.00    +0.000 C 
ATOM     15  O   UNL     1      -5.258  12.650  23.504  0.00  0.00    +0.000 OA
ENDBRANCH   8  15
BRANCH  12  16
ATOM     16  O   UNL     1      -4.474  12.264  18.571  0.00  0.00    +0.000 OA
ATOM     17  C   UNL     1      -4.669  11.084  17.866  0.00  0.00    +0.000 C 
ENDBRANCH  12  16
BRANCH  13  18
ATOM     18  O   UNL     1      -6.291  12.107  20.736  0.00  0.00    +0.000 OA
ATOM     19  C   UNL     1      -7.611  11.777  20.529  0.00  0.00    +0.000 C 
ENDBRANCH  13  18
ENDBRANCH   7  11
ENDBRANCH   1   7
BRANCH   4  20
ATOM     20  C   UNL     1       1.760   8.939  19.721  0.00  0.00    +0.000 C 
BRANCH  20  21
ATOM     21  C   UNL     1       1.939   7.457  19.463  0.00  0.00    +0.000 A 
ATOM     22  C   UNL     1       1.597   6.538  20.463  0.00  0.00    +0.000 A 
ATOM     23  C   UNL     1       1.762   5.175  20.253  0.00  0.00    +0.000 A 
ATOM     24  C   UNL     1       2.215   4.692  19.023  0.00  0.00    +0.000 A 
ATOM     25  C   UNL     1       2.548   5.603  18.004  0.00  0.00    +0.000 A 
ATOM     26  C   UNL     1       2.440   6.971  18.234  0.00  0.00    +0.000 A 
BRANCH  24  27
ATOM     27  C   UNL     1       2.339   3.247  18.771  0.00  0.00    +0.000 C 
ATOM     28  O   UNL     1       1.703   2.767  17.859  0.00  0.00    +0.000 OA
BRANCH  27  29
ATOM     29  N   UNL     1       3.224   2.457  19.582  0.00  0.00    +0.000 NA
ATOM     30  C   UNL     1       4.521   2.518  19.654  0.00  0.00    +0.000 C 
ATOM     31  N   UNL     1       5.309   3.397  18.853  0.00  0.00    +0.000 N 
ATOM     32  N   UNL     1       5.188   1.659  20.566  0.00  0.00    +0.000 N 
ATOM     33  H   UNL     1       4.935   4.057  18.164  0.00  0.00    +0.000 HD
ATOM     34  H   UNL     1       6.331   3.377  18.938  0.00  0.00    +0.000 HD
ATOM     35  H   UNL     1       4.652   1.016  21.165  0.00  0.00    +0.000 HD
ATOM     36  H   UNL     1       6.215   1.690  20.661  0.00  0.00    +0.000 HD
ENDBRANCH  27  29
ENDBRANCH  24  27
ENDBRANCH  20  21
ENDBRANCH   4  20
TORSDOF 9
ENDMDL
MODEL 2
REMARK VINA RESULT:      -7.3      1.519      2.045
REMARK  Name = 
REMARK  12 active torsions:
REMARK  status: ('A' for Active; 'I' for Inactive)
REMARK    1  A    between atoms: C_1  and  O_2
REMARK    2  A    between atoms: O_2  and  C_3
REMARK    3  A    between atoms: C_6  and  C_7
REMARK    4  A    between atoms: C_7  and  N_8
REMARK    5  A    between atoms: N_11  and  C_12
REMARK    6  A    between atoms: C_12  and  C_13
REMARK    7  A    between atoms: C_16  and  C_17
REMARK    8  A    between atoms: C_17  and  N_19
REMARK    9  A    between atoms: C_27  and  O_28
REMARK   10  A    between atoms: O_28  and  C_29
REMARK   11  A    between atoms: C_30  and  O_31
REMARK   12  A    between atoms: O_31  and  C_32
REMARK                            x       y       z     vdW  Elec       q    Type
REMARK                         _______ _______ _______ _____ _____    ______ ____
ROOT
ATOM      1  N   UNL     1      -1.261  12.545  20.297  0.00  0.00    +0.000 NA
ATOM      2  C   UNL     1      -0.567  12.051  21.499  0.00  0.00    +0.000 C 
ATOM      3  C   UNL     1      -0.786  10.550  21.618  0.00  0.00    +0.000 C 
ATOM      4  N   UNL     1      -0.316   9.831  20.411  0.00  0.00    +0.000 NA
ATOM      5  C   UNL     1      -1.099  10.322  19.265  0.00  0.00    +0.000 C 
ATOM      6  C   UNL     1      -0.886  11.856  19.043  0.00  0.00    +0.000 C 
ENDROOT
BRANCH   1   7
ATOM      7  C   UNL     1      -2.190  13.720  20.333  0.00  0.00    +0.000 C 
BRANCH   7  11
ATOM      8  C   UNL     1      -5.850  13.090  22.782  0.00  0.00    +0.000 A 
ATOM      9  C   UNL     1      -4.794  13.938  23.140  0.00  0.00    +0.000 A 
ATOM     10  C   UNL     1      -3.675  14.114  22.350  0.00  0.00    +0.000 A 
ATOM     11  C   UNL     1      -3.510  13.481  21.126  0.00  0.00    +0.000 A 
ATOM     12  C   UNL     1      -4.588  12.645  20.670  0.00  0.00    +0.000 A 
ATOM     13  C   UNL     1      -5.751  12.426  21.518  0.00  0.00    +0.000 A 
BRANCH   8  15
ATOM     14  C   UNL     1      -7.825  13.763  24.387  0.00  0.00    +0.000 C 
ATOM     15  O   UNL     1      -6.843  13.007  23.737  0.00  0.00    +0.000 OA
ENDBRANCH   8  15
BRANCH  12  16
ATOM     16  O   UNL     1      -4.445  12.061  19.441  0.00  0.00    +0.000 OA
ATOM     17  C   UNL     1      -5.170  12.252  18.272  0.00  0.00    +0.000 C 
ENDBRANCH  12  16
BRANCH  13  18
ATOM     18  O   UNL     1      -6.678  11.563  21.108  0.00  0.00    +0.000 OA
ATOM     19  C   UNL     1      -7.605  10.632  20.699  0.00  0.00    +0.000 C 
ENDBRANCH  13  18
ENDBRANCH   7  11
ENDBRANCH   1   7
BRANCH   4  20
ATOM     20  C   UNL     1       1.157   9.916  20.215  0.00  0.00    +0.000 C 
BRANCH  20  21
ATOM     21  C   UNL     1       1.723   8.679  19.548  0.00  0.00    +0.000 A 
ATOM     22  C   UNL     1       1.842   7.494  20.285  0.00  0.00    +0.000 A 
ATOM     23  C   UNL     1       2.368   6.351  19.698  0.00  0.00    +0.000 A 
ATOM     24  C   UNL     1       2.732   6.343  18.350  0.00  0.00    +0.000 A 
ATOM     25  C   UNL     1       2.604   7.522  17.594  0.00  0.00    +0.000 A 
ATOM     26  C   UNL     1       2.134   8.685  18.196  0.00  0.00    +0.000 A 
BRANCH  24  27
ATOM     27  C   UNL     1       3.238   5.120  17.704  0.00  0.00    +0.000 C 
ATOM     28  O   UNL     1       4.236   5.202  17.024  0.00  0.00    +0.000 OA
BRANCH  27  29
ATOM     29  N   UNL     1       2.562   3.871  17.919  0.00  0.00    +0.000 NA
ATOM     30  C   UNL     1       3.040   2.772  18.421  0.00  0.00    +0.000 C 
ATOM     31  N   UNL     1       4.403   2.618  18.811  0.00  0.00    +0.000 N 
ATOM     32  N   UNL     1       2.165   1.665  18.579  0.00  0.00    +0.000 N 
ATOM     33  H   UNL     1       5.119   3.346  18.742  0.00  0.00    +0.000 HD
ATOM     34  H   UNL     1       4.725   1.714  19.176  0.00  0.00    +0.000 HD
ATOM     35  H   UNL     1       1.173   1.741  18.315  0.00  0.00    +0.000 HD
ATOM     36  H   UNL     1       2.505   0.781  18.988  0.00  0.00    +0.000 HD
ENDBRANCH  27  29
ENDBRANCH  24  27
ENDBRANCH  20  21
ENDBRANCH   4  20
TORSDOF 9
ENDMDL
MODEL 3
REMARK VINA RESULT:      -7.2      1.638      2.109
REMARK  Name = 
REMARK  12 active torsions:
REMARK  status: ('A' for Active; 'I' for Inactive)
REMARK    1  A    between atoms: C_1  and  O_2
REMARK    2  A    between atoms: O_2  and  C_3
REMARK    3  A    between atoms: C_6  and  C_7
REMARK    4  A    between atoms: C_7  and  N_8
REMARK    5  A    between atoms: N_11  and  C_12
REMARK    6  A    between atoms: C_12  and  C_13
REMARK    7  A    between atoms: C_16  and  C_17
REMARK    8  A    between atoms: C_17  and  N_19
REMARK    9  A    between atoms: C_27  and  O_28
REMARK   10  A    between atoms: O_28  and  C_29
REMARK   11  A    between atoms: C_30  and  O_31
REMARK   12  A    between atoms: O_31  and  C_32
REMARK                            x       y       z     vdW  Elec       q    Type
REMARK                         _______ _______ _______ _____ _____    ______ ____
ROOT
ATOM      1  N   UNL     1      -0.848  12.198  19.285  0.00  0.00    +0.000 NA
ATOM      2  C   UNL     1       0.527  12.330  18.774  0.00  0.00    +0.000 C 
ATOM      3  C   UNL     1       1.465  11.515  19.654  0.00  0.00    +0.000 C 
ATOM      4  N   UNL     1       1.063  10.091  19.710  0.00  0.00    +0.000 NA
ATOM      5  C   UNL     1      -0.287  10.030  20.294  0.00  0.00    +0.000 C 
ATOM      6  C   UNL     1      -1.325  10.804  19.415  0.00  0.00    +0.000 C 
ENDROOT
BRANCH   1   7
ATOM      7  C   UNL     1      -1.723  13.385  19.546  0.00  0.00    +0.000 C 
BRANCH   7  11
ATOM      8  C   UNL     1      -5.001  12.571  22.442  0.00  0.00    +0.000 A 
ATOM      9  C   UNL     1      -3.738  13.063  22.794  0.00  0.00    +0.000 A 
ATOM     10  C   UNL     1      -2.746  13.311  21.864  0.00  0.00    +0.000 A 
ATOM     11  C   UNL     1      -2.923  13.111  20.503  0.00  0.00    +0.000 A 
ATOM     12  C   UNL     1      -4.219  12.666  20.069  0.00  0.00    +0.000 A 
ATOM     13  C   UNL     1      -5.254  12.367  21.048  0.00  0.00    +0.000 A 
BRANCH   8  15
ATOM     14  C   UNL     1      -7.050  12.703  24.089  0.00  0.00    +0.000 C 
ATOM     15  O   UNL     1      -5.824  12.333  23.524  0.00  0.00    +0.000 OA
ENDBRANCH   8  15
BRANCH  12  16
ATOM     16  O   UNL     1      -4.408  12.517  18.722  0.00  0.00    +0.000 OA
ATOM     17  C   UNL     1      -4.514  11.364  17.957  0.00  0.00    +0.000 C 
ENDBRANCH  12  16
BRANCH  13  18
ATOM     18  O   UNL     1      -6.405  11.857  20.615  0.00  0.00    +0.000 OA
ATOM     19  C   UNL     1      -7.584  11.349  20.120  0.00  0.00    +0.000 C 
ENDBRANCH  13  18
ENDBRANCH   7  11
ENDBRANCH   1   7
BRANCH   4  20
ATOM     20  C   UNL     1       1.184   9.396  18.400  0.00  0.00    +0.000 C 
BRANCH  20  21
ATOM     21  C   UNL     1       2.166   8.243  18.447  0.00  0.00    +0.000 A 
ATOM     22  C   UNL     1       2.041   7.273  19.448  0.00  0.00    +0.000 A 
ATOM     23  C   UNL     1       2.936   6.213  19.517  0.00  0.00    +0.000 A 
ATOM     24  C   UNL     1       3.939   6.062  18.556  0.00  0.00    +0.000 A 
ATOM     25  C   UNL     1       4.067   7.021  17.536  0.00  0.00    +0.000 A 
ATOM     26  C   UNL     1       3.209   8.116  17.501  0.00  0.00    +0.000 A 
BRANCH  24  27
ATOM     27  C   UNL     1       4.857   4.911  18.587  0.00  0.00    +0.000 C 
ATOM     28  O   UNL     1       4.560   3.924  17.954  0.00  0.00    +0.000 OA
BRANCH  27  29
ATOM     29  N   UNL     1       6.082   5.000  19.333  0.00  0.00    +0.000 NA
ATOM     30  C   UNL     1       7.256   5.368  18.915  0.00  0.00    +0.000 C 
ATOM     31  N   UNL     1       7.530   5.713  17.558  0.00  0.00    +0.000 N 
ATOM     32  N   UNL     1       8.322   5.419  19.851  0.00  0.00    +0.000 N 
ATOM     33  H   UNL     1       6.841   5.712  16.801  0.00  0.00    +0.000 HD
ATOM     34  H   UNL     1       8.486   5.969  17.286  0.00  0.00    +0.000 HD
ATOM     35  H   UNL     1       8.161   5.183  20.840  0.00  0.00    +0.000 HD
ATOM     36  H   UNL     1       9.264   5.720  19.558  0.00  0.00    +0.000 HD
ENDBRANCH  27  29
ENDBRANCH  24  27
ENDBRANCH  20  21
ENDBRANCH   4  20
TORSDOF 9
ENDMDL
MODEL 4
REMARK VINA RESULT:      -7.1      1.686      2.836
REMARK  Name = 
REMARK  12 active torsions:
REMARK  status: ('A' for Active; 'I' for Inactive)
REMARK    1  A    between atoms: C_1  and  O_2
REMARK    2  A    between atoms: O_2  and  C_3
REMARK    3  A    between atoms: C_6  and  C_7
REMARK    4  A    between atoms: C_7  and  N_8
REMARK    5  A    between atoms: N_11  and  C_12
REMARK    6  A    between atoms: C_12  and  C_13
REMARK    7  A    between atoms: C_16  and  C_17
REMARK    8  A    between atoms: C_17  and  N_19
REMARK    9  A    between atoms: C_27  and  O_28
REMARK   10  A    between atoms: O_28  and  C_29
REMARK   11  A    between atoms: C_30  and  O_31
REMARK   12  A    between atoms: O_31  and  C_32
REMARK                            x       y       z     vdW  Elec       q    Type
REMARK                         _______ _______ _______ _____ _____    ______ ____
ROOT
ATOM      1  N   UNL     1      -0.825  11.719  19.510  0.00  0.00    +0.000 NA
ATOM      2  C   UNL     1      -1.164  10.398  18.952  0.00  0.00    +0.000 C 
ATOM      3  C   UNL     1      -0.044   9.947  18.025  0.00  0.00    +0.000 C 
ATOM      4  N   UNL     1       1.260   9.899  18.726  0.00  0.00    +0.000 NA
ATOM      5  C   UNL     1       1.567  11.261  19.192  0.00  0.00    +0.000 C 
ATOM      6  C   UNL     1       0.485  11.779  20.196  0.00  0.00    +0.000 C 
ENDROOT
BRANCH   1   7
ATOM      7  C   UNL     1      -1.779  12.873  19.475  0.00  0.00    +0.000 C 
BRANCH   7  11
ATOM      8  C   UNL     1      -5.588  12.388  21.721  0.00  0.00    +0.000 A 
ATOM      9  C   UNL     1      -5.490  12.404  20.324  0.00  0.00    +0.000 A 
ATOM     10  C   UNL     1      -4.286  12.550  19.660  0.00  0.00    +0.000 A 
ATOM     11  C   UNL     1      -3.072  12.674  20.321  0.00  0.00    +0.000 A 
ATOM     12  C   UNL     1      -3.097  12.602  21.757  0.00  0.00    +0.000 A 
ATOM     13  C   UNL     1      -4.367  12.488  22.460  0.00  0.00    +0.000 A 
BRANCH   8  15
ATOM     14  C   UNL     1      -7.916  13.050  22.755  0.00  0.00    +0.000 C 
ATOM     15  O   UNL     1      -6.885  12.296  22.184  0.00  0.00    +0.000 OA
ENDBRANCH   8  15
BRANCH  12  16
ATOM     16  O   UNL     1      -1.894  12.674  22.405  0.00  0.00    +0.000 OA
ATOM     17  C   UNL     1      -1.291  13.745  23.051  0.00  0.00    +0.000 C 
ENDBRANCH  12  16
BRANCH  13  18
ATOM     18  O   UNL     1      -4.357  12.530  23.791  0.00  0.00    +0.000 OA
ATOM     19  C   UNL     1      -4.296  12.580  25.165  0.00  0.00    +0.000 C 
ENDBRANCH  13  18
ENDBRANCH   7  11
ENDBRANCH   1   7
BRANCH   4  20
ATOM     20  C   UNL     1       1.310   8.869  19.799  0.00  0.00    +0.000 C 
BRANCH  20  21
ATOM     21  C   UNL     1       2.089   7.638  19.382  0.00  0.00    +0.000 A 
ATOM     22  C   UNL     1       2.795   7.647  18.173  0.00  0.00    +0.000 A 
ATOM     23  C   UNL     1       3.507   6.527  17.764  0.00  0.00    +0.000 A 
ATOM     24  C   UNL     1       3.582   5.394  18.578  0.00  0.00    +0.000 A 
ATOM     25  C   UNL     1       2.890   5.375  19.802  0.00  0.00    +0.000 A 
ATOM     26  C   UNL     1       2.127   6.475  20.183  0.00  0.00    +0.000 A 
BRANCH  24  27
ATOM     27  C   UNL     1       4.381   4.222  18.180  0.00  0.00    +0.000 C 
ATOM     28  O   UNL     1       3.811   3.166  18.024  0.00  0.00    +0.000 OA
BRANCH  27  29
ATOM     29  N   UNL     1       5.793   4.367  17.960  0.00  0.00    +0.000 NA
ATOM     30  C   UNL     1       6.440   4.339  16.834  0.00  0.00    +0.000 C 
ATOM     31  N   UNL     1       5.812   4.096  15.576  0.00  0.00    +0.000 N 
ATOM     32  N   UNL     1       7.844   4.549  16.855  0.00  0.00    +0.000 N 
ATOM     33  H   UNL     1       4.810   3.932  15.443  0.00  0.00    +0.000 HD
ATOM     34  H   UNL     1       6.385   4.058  14.725  0.00  0.00    +0.000 HD
ATOM     35  H   UNL     1       8.332   4.733  17.743  0.00  0.00    +0.000 HD
ATOM     36  H   UNL     1       8.389   4.547  15.979  0.00  0.00    +0.000 HD
ENDBRANCH  27  29
ENDBRANCH  24  27
ENDBRANCH  20  21
ENDBRANCH   4  20
TORSDOF 9
ENDMDL
MODEL 5
REMARK VINA RESULT:      -6.9      2.191      2.829
REMARK  Name = 
REMARK  12 active torsions:
REMARK  status: ('A' for Active; 'I' for Inactive)
REMARK    1  A    between atoms: C_1  and  O_2
REMARK    2  A    between atoms: O_2  and  C_3
REMARK    3  A    between atoms: C_6  and  C_7
REMARK    4  A    between atoms: C_7  and  N_8
REMARK    5  A    between atoms: N_11  and  C_12
REMARK    6  A    between atoms: C_12  and  C_13
REMARK    7  A    between atoms: C_16  and  C_17
REMARK    8  A    between atoms: C_17  and  N_19
REMARK    9  A    between atoms: C_27  and  O_28
REMARK   10  A    between atoms: O_28  and  C_29
REMARK   11  A    between atoms: C_30  and  O_31
REMARK   12  A    between atoms: O_31  and  C_32
REMARK                            x       y       z     vdW  Elec       q    Type
REMARK                         _______ _______ _______ _____ _____    ______ ____
ROOT
ATOM      1  N   UNL     1      -0.457  11.368  22.142  0.00  0.00    +0.000 NA
ATOM      2  C   UNL     1       0.362  11.157  20.935  0.00  0.00    +0.000 C 
ATOM      3  C   UNL     1       1.619  10.387  21.316  0.00  0.00    +0.000 C 
ATOM      4  N   UNL     1       1.294   9.094  21.958  0.00  0.00    +0.000 NA
ATOM      5  C   UNL     1       0.541   9.383  23.190  0.00  0.00    +0.000 C 
ATOM      6  C   UNL     1      -0.798  10.131  22.878  0.00  0.00    +0.000 C 
ENDROOT
BRANCH   1   7
ATOM      7  C   UNL     1      -0.986  12.716  22.526  0.00  0.00    +0.000 C 
BRANCH   7  11
ATOM      8  C   UNL     1      -5.411  12.864  22.956  0.00  0.00    +0.000 A 
ATOM      9  C   UNL     1      -4.514  12.784  24.029  0.00  0.00    +0.000 A 
ATOM     10  C   UNL     1      -3.143  12.747  23.856  0.00  0.00    +0.000 A 
ATOM     11  C   UNL     1      -2.540  12.805  22.608  0.00  0.00    +0.000 A 
ATOM     12  C   UNL     1      -3.404  12.951  21.468  0.00  0.00    +0.000 A 
ATOM     13  C   UNL     1      -4.849  12.951  21.643  0.00  0.00    +0.000 A 
BRANCH   8  15
ATOM     14  C   UNL     1      -7.913  12.080  23.194  0.00  0.00    +0.000 C 
ATOM     15  O   UNL     1      -6.737  12.826  23.338  0.00  0.00    +0.000 OA
ENDBRANCH   8  15
BRANCH  12  16
ATOM     16  O   UNL     1      -2.805  13.058  20.242  0.00  0.00    +0.000 OA
ATOM     17  C   UNL     1      -2.635  12.107  19.246  0.00  0.00    +0.000 C 
ENDBRANCH  12  16
BRANCH  13  18
ATOM     18  O   UNL     1      -5.617  12.982  20.555  0.00  0.00    +0.000 OA
ATOM     19  C   UNL     1      -6.386  12.971  19.414  0.00  0.00    +0.000 C 
ENDBRANCH  13  18
ENDBRANCH   7  11
ENDBRANCH   1   7
BRANCH   4  20
ATOM     20  C   UNL     1       0.610   8.140  21.044  0.00  0.00    +0.000 C 
BRANCH  20  21
ATOM     21  C   UNL     1       1.588   7.292  20.257  0.00  0.00    +0.000 A 
ATOM     22  C   UNL     1       1.908   6.007  20.714  0.00  0.00    +0.000 A 
ATOM     23  C   UNL     1       2.810   5.215  20.015  0.00  0.00    +0.000 A 
ATOM     24  C   UNL     1       3.368   5.660  18.814  0.00  0.00    +0.000 A 
ATOM     25  C   UNL     1       3.045   6.942  18.335  0.00  0.00    +0.000 A 
ATOM     26  C   UNL     1       2.188   7.759  19.066  0.00  0.00    +0.000 A 
BRANCH  24  27
ATOM     27  C   UNL     1       4.282   4.806  18.036  0.00  0.00    +0.000 C 
ATOM     28  O   UNL     1       4.036   3.623  17.963  0.00  0.00    +0.000 OA
BRANCH  27  29
ATOM     29  N   UNL     1       5.408   5.395  17.367  0.00  0.00    +0.000 NA
ATOM     30  C   UNL     1       6.158   4.875  16.441  0.00  0.00    +0.000 C 
ATOM     31  N   UNL     1       5.994   3.542  15.959  0.00  0.00    +0.000 N 
ATOM     32  N   UNL     1       7.199   5.667  15.891  0.00  0.00    +0.000 N 
ATOM     33  H   UNL     1       5.280   2.884  16.283  0.00  0.00    +0.000 HD
ATOM     34  H   UNL     1       6.638   3.181  15.246  0.00  0.00    +0.000 HD
ATOM     35  H   UNL     1       7.344   6.635  16.209  0.00  0.00    +0.000 HD
ATOM     36  H   UNL     1       7.805   5.293  15.145  0.00  0.00    +0.000 HD
ENDBRANCH  27  29
ENDBRANCH  24  27
ENDBRANCH  20  21
ENDBRANCH   4  20
TORSDOF 9
ENDMDL
MODEL 6
REMARK VINA RESULT:      -6.9      2.256      3.027
REMARK  Name = 
REMARK  12 active torsions:
REMARK  status: ('A' for Active; 'I' for Inactive)
REMARK    1  A    between atoms: C_1  and  O_2
REMARK    2  A    between atoms: O_2  and  C_3
REMARK    3  A    between atoms: C_6  and  C_7
REMARK    4  A    between atoms: C_7  and  N_8
REMARK    5  A    between atoms: N_11  and  C_12
REMARK    6  A    between atoms: C_12  and  C_13
REMARK    7  A    between atoms: C_16  and  C_17
REMARK    8  A    between atoms: C_17  and  N_19
REMARK    9  A    between atoms: C_27  and  O_28
REMARK   10  A    between atoms: O_28  and  C_29
REMARK   11  A    between atoms: C_30  and  O_31
REMARK   12  A    between atoms: O_31  and  C_32
REMARK                            x       y       z     vdW  Elec       q    Type
REMARK                         _______ _______ _______ _____ _____    ______ ____
ROOT
ATOM      1  N   UNL     1       0.411  12.188  20.539  0.00  0.00    +0.000 NA
ATOM      2  C   UNL     1       1.394  11.182  20.978  0.00  0.00    +0.000 C 
ATOM      3  C   UNL     1       0.779   9.796  20.848  0.00  0.00    +0.000 C 
ATOM      4  N   UNL     1       0.334   9.522  19.463  0.00  0.00    +0.000 NA
ATOM      5  C   UNL     1      -0.694  10.518  19.118  0.00  0.00    +0.000 C 
ATOM      6  C   UNL     1      -0.123  11.973  19.177  0.00  0.00    +0.000 C 
ENDROOT
BRANCH   1   7
ATOM      7  C   UNL     1       0.066  13.387  21.369  0.00  0.00    +0.000 C 
BRANCH   7  11
ATOM      8  C   UNL     1      -3.808  12.878  23.495  0.00  0.00    +0.000 A 
ATOM      9  C   UNL     1      -2.820  11.890  23.403  0.00  0.00    +0.000 A 
ATOM     10  C   UNL     1      -1.624  12.088  22.739  0.00  0.00    +0.000 A 
ATOM     11  C   UNL     1      -1.293  13.286  22.124  0.00  0.00    +0.000 A 
ATOM     12  C   UNL     1      -2.240  14.363  22.235  0.00  0.00    +0.000 A 
ATOM     13  C   UNL     1      -3.517  14.147  22.899  0.00  0.00    +0.000 A 
BRANCH   8  15
ATOM     14  C   UNL     1      -6.346  12.578  24.126  0.00  0.00    +0.000 C 
ATOM     15  O   UNL     1      -4.952  12.460  24.145  0.00  0.00    +0.000 OA
ENDBRANCH   8  15
BRANCH  12  16
ATOM     16  O   UNL     1      -1.891  15.559  21.670  0.00  0.00    +0.000 OA
ATOM     17  C   UNL     1      -1.248  16.656  22.227  0.00  0.00    +0.000 C 
ENDBRANCH  12  16
BRANCH  13  18
ATOM     18  O   UNL     1      -4.410  15.135  22.889  0.00  0.00    +0.000 OA
ATOM     19  C   UNL     1      -5.369  16.121  22.884  0.00  0.00    +0.000 C 
ENDBRANCH  13  18
ENDBRANCH   7  11
ENDBRANCH   1   7
BRANCH   4  20
ATOM     20  C   UNL     1       1.458   9.456  18.489  0.00  0.00    +0.000 C 
BRANCH  20  21
ATOM     21  C   UNL     1       2.233   8.158  18.589  0.00  0.00    +0.000 A 
ATOM     22  C   UNL     1       3.209   7.864  17.629  0.00  0.00    +0.000 A 
ATOM     23  C   UNL     1       3.925   6.675  17.694  0.00  0.00    +0.000 A 
ATOM     24  C   UNL     1       3.728   5.781  18.749  0.00  0.00    +0.000 A 
ATOM     25  C   UNL     1       2.762   6.070  19.728  0.00  0.00    +0.000 A 
ATOM     26  C   UNL     1       2.002   7.232  19.631  0.00  0.00    +0.000 A 
BRANCH  24  27
ATOM     27  C   UNL     1       4.522   4.545  18.858  0.00  0.00    +0.000 C 
ATOM     28  O   UNL     1       5.656   4.628  19.272  0.00  0.00    +0.000 OA
BRANCH  27  29
ATOM     29  N   UNL     1       3.928   3.286  18.505  0.00  0.00    +0.000 NA
ATOM     30  C   UNL     1       4.110   2.125  19.060  0.00  0.00    +0.000 C 
ATOM     31  N   UNL     1       5.020   1.906  20.137  0.00  0.00    +0.000 N 
ATOM     32  N   UNL     1       3.376   1.016  18.563  0.00  0.00    +0.000 N 
ATOM     33  H   UNL     1       5.598   2.630  20.572  0.00  0.00    +0.000 HD
ATOM     34  H   UNL     1       5.138   0.959  20.513  0.00  0.00    +0.000 HD
ATOM     35  H   UNL     1       2.706   1.135  17.791  0.00  0.00    +0.000 HD
ATOM     36  H   UNL     1       3.484   0.082  18.988  0.00  0.00    +0.000 HD
ENDBRANCH  27  29
ENDBRANCH  24  27
ENDBRANCH  20  21
ENDBRANCH   4  20
TORSDOF 9
ENDMDL
MODEL 7
REMARK VINA RESULT:      -6.9      1.528      2.823
REMARK  Name = 
REMARK  12 active torsions:
REMARK  status: ('A' for Active; 'I' for Inactive)
REMARK    1  A    between atoms: C_1  and  O_2
REMARK    2  A    between atoms: O_2  and  C_3
REMARK    3  A    between atoms: C_6  and  C_7
REMARK    4  A    between atoms: C_7  and  N_8
REMARK    5  A    between atoms: N_11  and  C_12
REMARK    6  A    between atoms: C_12  and  C_13
REMARK    7  A    between atoms: C_16  and  C_17
REMARK    8  A    between atoms: C_17  and  N_19
REMARK    9  A    between atoms: C_27  and  O_28
REMARK   10  A    between atoms: O_28  and  C_29
REMARK   11  A    between atoms: C_30  and  O_31
REMARK   12  A    between atoms: O_31  and  C_32
REMARK                            x       y       z     vdW  Elec       q    Type
REMARK                         _______ _______ _______ _____ _____    ______ ____
ROOT
ATOM      1  N   UNL     1      -0.212  12.141  19.529  0.00  0.00    +0.000 NA
ATOM      2  C   UNL     1       0.915  11.527  20.254  0.00  0.00    +0.000 C 
ATOM      3  C   UNL     1       0.684  10.026  20.354  0.00  0.00    +0.000 C 
ATOM      4  N   UNL     1       0.524   9.408  19.018  0.00  0.00    +0.000 NA
ATOM      5  C   UNL     1      -0.657  10.015  18.383  0.00  0.00    +0.000 C 
ATOM      6  C   UNL     1      -0.476  11.557  18.196  0.00  0.00    +0.000 C 
ENDROOT
BRANCH   1   7
ATOM      7  C   UNL     1      -0.956  13.327  20.060  0.00  0.00    +0.000 C 
BRANCH   7  11
ATOM      8  C   UNL     1      -5.163  12.549  21.277  0.00  0.00    +0.000 A 
ATOM      9  C   UNL     1      -4.737  12.695  19.951  0.00  0.00    +0.000 A 
ATOM     10  C   UNL     1      -3.418  12.929  19.610  0.00  0.00    +0.000 A 
ATOM     11  C   UNL     1      -2.403  13.021  20.551  0.00  0.00    +0.000 A 
ATOM     12  C   UNL     1      -2.765  12.819  21.928  0.00  0.00    +0.000 A 
ATOM     13  C   UNL     1      -4.158  12.611  22.294  0.00  0.00    +0.000 A 
BRANCH   8  15
ATOM     14  C   UNL     1      -7.519  11.998  22.315  0.00  0.00    +0.000 C 
ATOM     15  O   UNL     1      -6.528  12.385  21.405  0.00  0.00    +0.000 OA
ENDBRANCH   8  15
BRANCH  12  16
ATOM     16  O   UNL     1      -1.754  12.861  22.850  0.00  0.00    +0.000 OA
ATOM     17  C   UNL     1      -1.297  13.917  23.626  0.00  0.00    +0.000 C 
ENDBRANCH  12  16
BRANCH  13  18
ATOM     18  O   UNL     1      -4.468  12.533  23.587  0.00  0.00    +0.000 OA
ATOM     19  C   UNL     1      -4.748  12.418  24.929  0.00  0.00    +0.000 C 
ENDBRANCH  13  18
ENDBRANCH   7  11
ENDBRANCH   1   7
BRANCH   4  20
ATOM     20  C   UNL     1       1.757   9.478  18.188  0.00  0.00    +0.000 C 
BRANCH  20  21
ATOM     21  C   UNL     1       2.425   8.128  18.030  0.00  0.00    +0.000 A 
ATOM     22  C   UNL     1       3.701   8.054  17.456  0.00  0.00    +0.000 A 
ATOM     23  C   UNL     1       4.329   6.826  17.291  0.00  0.00    +0.000 A 
ATOM     24  C   UNL     1       3.728   5.651  17.747  0.00  0.00    +0.000 A 
ATOM     25  C   UNL     1       2.454   5.711  18.339  0.00  0.00    +0.000 A 
ATOM     26  C   UNL     1       1.798   6.933  18.450  0.00  0.00    +0.000 A 
BRANCH  24  27
ATOM     27  C   UNL     1       4.410   4.351  17.629  0.00  0.00    +0.000 C 
ATOM     28  O   UNL     1       4.664   3.936  16.521  0.00  0.00    +0.000 OA
BRANCH  27  29
ATOM     29  N   UNL     1       4.781   3.632  18.816  0.00  0.00    +0.000 NA
ATOM     30  C   UNL     1       4.530   2.394  19.120  0.00  0.00    +0.000 C 
ATOM     31  N   UNL     1       3.760   1.525  18.291  0.00  0.00    +0.000 N 
ATOM     32  N   UNL     1       5.038   1.882  20.343  0.00  0.00    +0.000 N 
ATOM     33  H   UNL     1       3.347   1.787  17.391  0.00  0.00    +0.000 HD
ATOM     34  H   UNL     1       3.574   0.565  18.601  0.00  0.00    +0.000 HD
ATOM     35  H   UNL     1       5.603   2.477  20.965  0.00  0.00    +0.000 HD
ATOM     36  H   UNL     1       4.871   0.900  20.611  0.00  0.00    +0.000 HD
ENDBRANCH  27  29
ENDBRANCH  24  27
ENDBRANCH  20  21
ENDBRANCH   4  20
TORSDOF 9
ENDMDL
MODEL 8
REMARK VINA RESULT:      -6.8      1.316      1.940
REMARK  Name = 
REMARK  12 active torsions:
REMARK  status: ('A' for Active; 'I' for Inactive)
REMARK    1  A    between atoms: C_1  and  O_2
REMARK    2  A    between atoms: O_2  and  C_3
REMARK    3  A    between atoms: C_6  and  C_7
REMARK    4  A    between atoms: C_7  and  N_8
REMARK    5  A    between atoms: N_11  and  C_12
REMARK    6  A    between atoms: C_12  and  C_13
REMARK    7  A    between atoms: C_16  and  C_17
REMARK    8  A    between atoms: C_17  and  N_19
REMARK    9  A    between atoms: C_27  and  O_28
REMARK   10  A    between atoms: O_28  and  C_29
REMARK   11  A    between atoms: C_30  and  O_31
REMARK   12  A    between atoms: O_31  and  C_32
REMARK                            x       y       z     vdW  Elec       q    Type
REMARK                         _______ _______ _______ _____ _____    ______ ____
ROOT
ATOM      1  N   UNL     1      -0.649  11.939  18.814  0.00  0.00    +0.000 NA
ATOM      2  C   UNL     1       0.765  12.076  19.206  0.00  0.00    +0.000 C 
ATOM      3  C   UNL     1       1.162  10.879  20.059  0.00  0.00    +0.000 C 
ATOM      4  N   UNL     1       0.939   9.601  19.345  0.00  0.00    +0.000 NA
ATOM      5  C   UNL     1      -0.500   9.499  19.049  0.00  0.00    +0.000 C 
ATOM      6  C   UNL     1      -0.978  10.670  18.128  0.00  0.00    +0.000 C 
ENDROOT
BRANCH   1   7
ATOM      7  C   UNL     1      -1.643  13.044  19.002  0.00  0.00    +0.000 C 
BRANCH   7  11
ATOM      8  C   UNL     1      -4.120  12.517  22.659  0.00  0.00    +0.000 A 
ATOM      9  C   UNL     1      -2.761  12.857  22.666  0.00  0.00    +0.000 A 
ATOM     10  C   UNL     1      -2.025  13.019  21.507  0.00  0.00    +0.000 A 
ATOM     11  C   UNL     1      -2.574  12.878  20.241  0.00  0.00    +0.000 A 
ATOM     12  C   UNL     1      -3.981  12.590  20.165  0.00  0.00    +0.000 A 
ATOM     13  C   UNL     1      -4.750  12.380  21.382  0.00  0.00    +0.000 A 
BRANCH   8  15
ATOM     14  C   UNL     1      -4.461  12.681  25.265  0.00  0.00    +0.000 C 
ATOM     15  O   UNL     1      -4.653  12.341  23.920  0.00  0.00    +0.000 OA
ENDBRANCH   8  15
BRANCH  12  16
ATOM     16  O   UNL     1      -4.530  12.500  18.914  0.00  0.00    +0.000 OA
ATOM     17  C   UNL     1      -4.857  11.380  18.161  0.00  0.00    +0.000 C 
ENDBRANCH  12  16
BRANCH  13  18
ATOM     18  O   UNL     1      -6.025  12.012  21.268  0.00  0.00    +0.000 OA
ATOM     19  C   UNL     1      -7.335  11.625  21.099  0.00  0.00    +0.000 C 
ENDBRANCH  13  18
ENDBRANCH   7  11
ENDBRANCH   1   7
BRANCH   4  20
ATOM     20  C   UNL     1       1.813   9.436  18.152  0.00  0.00    +0.000 C 
BRANCH  20  21
ATOM     21  C   UNL     1       2.580   8.131  18.173  0.00  0.00    +0.000 A 
ATOM     22  C   UNL     1       3.562   7.894  17.204  0.00  0.00    +0.000 A 
ATOM     23  C   UNL     1       4.272   6.699  17.197  0.00  0.00    +0.000 A 
ATOM     24  C   UNL     1       4.063   5.740  18.190  0.00  0.00    +0.000 A 
ATOM     25  C   UNL     1       3.090   5.971  19.179  0.00  0.00    +0.000 A 
ATOM     26  C   UNL     1       2.337   7.140  19.151  0.00  0.00    +0.000 A 
BRANCH  24  27
ATOM     27  C   UNL     1       4.850   4.495  18.225  0.00  0.00    +0.000 C 
ATOM     28  O   UNL     1       5.467   4.181  17.234  0.00  0.00    +0.000 OA
BRANCH  27  29
ATOM     29  N   UNL     1       4.889   3.713  19.430  0.00  0.00    +0.000 NA
ATOM     30  C   UNL     1       4.548   2.470  19.595  0.00  0.00    +0.000 C 
ATOM     31  N   UNL     1       4.005   1.662  18.552  0.00  0.00    +0.000 N 
ATOM     32  N   UNL     1       4.714   1.889  20.879  0.00  0.00    +0.000 N 
ATOM     33  H   UNL     1       3.842   1.976  17.591  0.00  0.00    +0.000 HD
ATOM     34  H   UNL     1       3.730   0.695  18.755  0.00  0.00    +0.000 HD
ATOM     35  H   UNL     1       5.108   2.439  21.655  0.00  0.00    +0.000 HD
ATOM     36  H   UNL     1       4.468   0.901  21.045  0.00  0.00    +0.000 HD
ENDBRANCH  27  29
ENDBRANCH  24  27
ENDBRANCH  20  21
ENDBRANCH   4  20
TORSDOF 9
ENDMDL
MODEL 9
REMARK VINA RESULT:      -6.8      0.823      1.194
REMARK  Name = 
REMARK  12 active torsions:
REMARK  status: ('A' for Active; 'I' for Inactive)
REMARK    1  A    between atoms: C_1  and  O_2
REMARK    2  A    between atoms: O_2  and  C_3
REMARK    3  A    between atoms: C_6  and  C_7
REMARK    4  A    between atoms: C_7  and  N_8
REMARK    5  A    between atoms: N_11  and  C_12
REMARK    6  A    between atoms: C_12  and  C_13
REMARK    7  A    between atoms: C_16  and  C_17
REMARK    8  A    between atoms: C_17  and  N_19
REMARK    9  A    between atoms: C_27  and  O_28
REMARK   10  A    between atoms: O_28  and  C_29
REMARK   11  A    between atoms: C_30  and  O_31
REMARK   12  A    between atoms: O_31  and  C_32
REMARK                            x       y       z     vdW  Elec       q    Type
REMARK                         _______ _______ _______ _____ _____    ______ ____
ROOT
ATOM      1  N   UNL     1      -0.874  11.742  19.718  0.00  0.00    +0.000 NA
ATOM      2  C   UNL     1      -0.892  10.462  18.988  0.00  0.00    +0.000 C 
ATOM      3  C   UNL     1       0.522  10.131  18.532  0.00  0.00    +0.000 C 
ATOM      4  N   UNL     1       1.464  10.068  19.673  0.00  0.00    +0.000 NA
ATOM      5  C   UNL     1       1.484  11.395  20.310  0.00  0.00    +0.000 C 
ATOM      6  C   UNL     1       0.072  11.789  20.855  0.00  0.00    +0.000 C 
ENDROOT
BRANCH   1   7
ATOM      7  C   UNL     1      -1.816  12.861  19.396  0.00  0.00    +0.000 C 
BRANCH   7  11
ATOM      8  C   UNL     1      -5.329  13.068  22.118  0.00  0.00    +0.000 A 
ATOM      9  C   UNL     1      -4.137  13.778  22.309  0.00  0.00    +0.000 A 
ATOM     10  C   UNL     1      -3.068  13.694  21.437  0.00  0.00    +0.000 A 
ATOM     11  C   UNL     1      -3.092  12.914  20.289  0.00  0.00    +0.000 A 
ATOM     12  C   UNL     1      -4.312  12.208  20.003  0.00  0.00    +0.000 A 
ATOM     13  C   UNL     1      -5.425  12.263  20.938  0.00  0.00    +0.000 A 
BRANCH   8  15
ATOM     14  C   UNL     1      -6.828  12.591  24.229  0.00  0.00    +0.000 C 
ATOM     15  O   UNL     1      -6.247  13.242  23.134  0.00  0.00    +0.000 OA
ENDBRANCH   8  15
BRANCH  12  16
ATOM     16  O   UNL     1      -4.351  11.479  18.845  0.00  0.00    +0.000 OA
ATOM     17  C   UNL     1      -4.952  11.768  17.628  0.00  0.00    +0.000 C 
ENDBRANCH  12  16
BRANCH  13  18
ATOM     18  O   UNL     1      -6.497  11.512  20.690  0.00  0.00    +0.000 OA
ATOM     19  C   UNL     1      -7.594  10.710  20.478  0.00  0.00    +0.000 C 
ENDBRANCH  13  18
ENDBRANCH   7  11
ENDBRANCH   1   7
BRANCH   4  20
ATOM     20  C   UNL     1       1.171   8.953  20.614  0.00  0.00    +0.000 C 
BRANCH  20  21
ATOM     21  C   UNL     1       1.552   7.602  20.046  0.00  0.00    +0.000 A 
ATOM     22  C   UNL     1       2.203   7.535  18.808  0.00  0.00    +0.000 A 
ATOM     23  C   UNL     1       2.553   6.307  18.261  0.00  0.00    +0.000 A 
ATOM     24  C   UNL     1       2.317   5.121  18.961  0.00  0.00    +0.000 A 
ATOM     25  C   UNL     1       1.677   5.174  20.212  0.00  0.00    +0.000 A 
ATOM     26  C   UNL     1       1.272   6.399  20.733  0.00  0.00    +0.000 A 
BRANCH  24  27
ATOM     27  C   UNL     1       2.735   3.818  18.416  0.00  0.00    +0.000 C 
ATOM     28  O   UNL     1       2.508   3.586  17.251  0.00  0.00    +0.000 OA
BRANCH  27  29
ATOM     29  N   UNL     1       3.421   2.882  19.262  0.00  0.00    +0.000 NA
ATOM     30  C   UNL     1       4.692   2.815  19.527  0.00  0.00    +0.000 C 
ATOM     31  N   UNL     1       5.660   3.685  18.942  0.00  0.00    +0.000 N 
ATOM     32  N   UNL     1       5.142   1.820  20.434  0.00  0.00    +0.000 N 
ATOM     33  H   UNL     1       5.449   4.435  18.278  0.00  0.00    +0.000 HD
ATOM     34  H   UNL     1       6.653   3.562  19.172  0.00  0.00    +0.000 HD
ATOM     35  H   UNL     1       4.472   1.178  20.881  0.00  0.00    +0.000 HD
ATOM     36  H   UNL     1       6.141   1.746  20.680  0.00  0.00    +0.000 HD
ENDBRANCH  27  29
ENDBRANCH  24  27
ENDBRANCH  20  21
ENDBRANCH   4  20
TORSDOF 9
ENDMDL
