MODEL 1
REMARK VINA RESULT:      -7.5      0.000      0.000
REMARK  Name = 
REMARK  4 active torsions:
REMARK  status: ('A' for Active; 'I' for Inactive)
REMARK    1  A    between atoms: C_1  and  C_2
REMARK    2  A    between atoms: C_2  and  C_3
REMARK    3  A    between atoms: N_7  and  C_8
REMARK    4  A    between atoms: C_8  and  C_9
REMARK                            x       y       z     vdW  Elec       q    Type
REMARK                         _______ _______ _______ _____ _____    ______ ____
ROOT
ATOM      1  C   UNL     1       5.712   4.427  17.938  0.00  0.00    +0.000 C 
ENDROOT
BRANCH   1   2
ATOM      2  C   UNL     1       6.072   4.461  16.476  0.00  0.00    +0.000 A 
ATOM      3  C   UNL     1       7.042   5.272  15.886  0.00  0.00    +0.000 A 
ATOM      4  C   UNL     1       7.033   4.914  14.561  0.00  0.00    +0.000 A 
ATOM      5  C   UNL     1       7.794   5.358  13.482  0.00  0.00    +0.000 A 
ATOM      6  C   UNL     1       7.550   4.777  12.223  0.00  0.00    +0.000 A 
ATOM      7  C   UNL     1       6.556   3.783  12.074  0.00  0.00    +0.000 A 
ATOM      8  C   UNL     1       5.804   3.356  13.183  0.00  0.00    +0.000 A 
ATOM      9  C   UNL     1       6.075   3.944  14.416  0.00  0.00    +0.000 A 
ATOM     10  O   UNL     1       5.508   3.682  15.569  0.00  0.00    +0.000 OA
ENDBRANCH   1   2
BRANCH   1  17
ATOM     11  C   UNL     1       2.215   1.988  18.975  0.00  0.00    +0.000 C 
ATOM     12  C   UNL     1       2.615   3.217  19.828  0.00  0.00    +0.000 C 
ATOM     13  C   UNL     1       2.435   2.854  21.315  0.00  0.00    +0.000 C 
ATOM     14  C   UNL     1       1.712   4.435  19.519  0.00  0.00    +0.000 C 
ATOM     15  C   UNL     1       1.941   4.952  18.102  0.00  0.00    +0.000 C 
ATOM     16  C   UNL     1       3.417   5.300  17.919  0.00  0.00    +0.000 C 
ATOM     17  N   UNL     1       4.276   4.116  18.160  0.00  0.00    +0.000 NA
ATOM     18  C   UNL     1       4.092   3.611  19.545  0.00  0.00    +0.000 C 
ENDBRANCH   1  17
TORSDOF 2
ENDMDL
MODEL 2
REMARK VINA RESULT:      -7.5      1.354      2.002
REMARK  Name = 
REMARK  4 active torsions:
REMARK  status: ('A' for Active; 'I' for Inactive)
REMARK    1  A    between atoms: C_1  and  C_2
REMARK    2  A    between atoms: C_2  and  C_3
REMARK    3  A    between atoms: N_7  and  C_8
REMARK    4  A    between atoms: C_8  and  C_9
REMARK                            x       y       z     vdW  Elec       q    Type
REMARK                         _______ _______ _______ _____ _____    ______ ____
ROOT
ATOM      1  C   UNL     1       5.932   5.440  17.574  0.00  0.00    +0.000 C 
ENDROOT
BRANCH   1   2
ATOM      2  C   UNL     1       6.184   5.030  16.147  0.00  0.00    +0.000 A 
ATOM      3  C   UNL     1       5.444   4.103  15.413  0.00  0.00    +0.000 A 
ATOM      4  C   UNL     1       6.023   4.104  14.169  0.00  0.00    +0.000 A 
ATOM      5  C   UNL     1       5.710   3.402  13.007  0.00  0.00    +0.000 A 
ATOM      6  C   UNL     1       6.501   3.634  11.866  0.00  0.00    +0.000 A 
ATOM      7  C   UNL     1       7.580   4.546  11.917  0.00  0.00    +0.000 A 
ATOM      8  C   UNL     1       7.871   5.240  13.107  0.00  0.00    +0.000 A 
ATOM      9  C   UNL     1       7.064   4.995  14.215  0.00  0.00    +0.000 A 
ATOM     10  O   UNL     1       7.150   5.541  15.403  0.00  0.00    +0.000 OA
ENDBRANCH   1   2
BRANCH   1  17
ATOM     11  C   UNL     1       1.767   4.433  18.516  0.00  0.00    +0.000 C 
ATOM     12  C   UNL     1       2.626   5.277  19.490  0.00  0.00    +0.000 C 
ATOM     13  C   UNL     1       2.331   4.807  20.928  0.00  0.00    +0.000 C 
ATOM     14  C   UNL     1       2.273   6.780  19.395  0.00  0.00    +0.000 C 
ATOM     15  C   UNL     1       2.674   7.361  18.042  0.00  0.00    +0.000 C 
ATOM     16  C   UNL     1       4.166   7.130  17.811  0.00  0.00    +0.000 C 
ATOM     17  N   UNL     1       4.491   5.684  17.846  0.00  0.00    +0.000 NA
ATOM     18  C   UNL     1       4.136   5.101  19.166  0.00  0.00    +0.000 C 
ENDBRANCH   1  17
TORSDOF 2
ENDMDL
MODEL 3
REMARK VINA RESULT:      -7.4      0.678      1.403
REMARK  Name = 
REMARK  4 active torsions:
REMARK  status: ('A' for Active; 'I' for Inactive)
REMARK    1  A    between atoms: C_1  and  C_2
REMARK    2  A    between atoms: C_2  and  C_3
REMARK    3  A    between atoms: N_7  and  C_8
REMARK    4  A    between atoms: C_8  and  C_9
REMARK                            x       y       z     vdW  Elec       q    Type
REMARK                         _______ _______ _______ _____ _____    ______ ____
ROOT
ATOM      1  C   UNL     1       5.786   4.782  17.710  0.00  0.00    +0.000 C 
ENDROOT
BRANCH   1   2
ATOM      2  C   UNL     1       6.157   4.631  16.258  0.00  0.00    +0.000 A 
ATOM      3  C   UNL     1       5.601   3.723  15.356  0.00  0.00    +0.000 A 
ATOM      4  C   UNL     1       6.223   3.995  14.164  0.00  0.00    +0.000 A 
ATOM      5  C   UNL     1       6.071   3.435  12.897  0.00  0.00    +0.000 A 
ATOM      6  C   UNL     1       6.863   3.948  11.853  0.00  0.00    +0.000 A 
ATOM      7  C   UNL     1       7.783   4.992  12.099  0.00  0.00    +0.000 A 
ATOM      8  C   UNL     1       7.913   5.537  13.390  0.00  0.00    +0.000 A 
ATOM      9  C   UNL     1       7.110   5.014  14.400  0.00  0.00    +0.000 A 
ATOM     10  O   UNL     1       7.061   5.384  15.656  0.00  0.00    +0.000 OA
ENDBRANCH   1   2
BRANCH   1  17
ATOM     11  C   UNL     1       2.495   2.071  18.745  0.00  0.00    +0.000 C 
ATOM     12  C   UNL     1       2.870   3.262  19.662  0.00  0.00    +0.000 C 
ATOM     13  C   UNL     1       2.792   2.788  21.127  0.00  0.00    +0.000 C 
ATOM     14  C   UNL     1       1.883   4.440  19.486  0.00  0.00    +0.000 C 
ATOM     15  C   UNL     1       2.005   5.065  18.099  0.00  0.00    +0.000 C 
ATOM     16  C   UNL     1       3.447   5.514  17.868  0.00  0.00    +0.000 C 
ATOM     17  N   UNL     1       4.384   4.371  17.981  0.00  0.00    +0.000 NA
ATOM     18  C   UNL     1       4.305   3.763  19.335  0.00  0.00    +0.000 C 
ENDBRANCH   1  17
TORSDOF 2
ENDMDL
MODEL 4
REMARK VINA RESULT:      -7.4      2.756      3.777
REMARK  Name = 
REMARK  4 active torsions:
REMARK  status: ('A' for Active; 'I' for Inactive)
REMARK    1  A    between atoms: C_1  and  C_2
REMARK    2  A    between atoms: C_2  and  C_3
REMARK    3  A    between atoms: N_7  and  C_8
REMARK    4  A    between atoms: C_8  and  C_9
REMARK                            x       y       z     vdW  Elec       q    Type
REMARK                         _______ _______ _______ _____ _____    ______ ____
ROOT
ATOM      1  C   UNL     1       4.122   2.747  17.758  0.00  0.00    +0.000 C 
ENDROOT
BRANCH   1   2
ATOM      2  C   UNL     1       5.070   3.917  17.783  0.00  0.00    +0.000 A 
ATOM      3  C   UNL     1       5.065   4.998  16.901  0.00  0.00    +0.000 A 
ATOM      4  C   UNL     1       6.073   5.815  17.350  0.00  0.00    +0.000 A 
ATOM      5  C   UNL     1       6.532   7.048  16.891  0.00  0.00    +0.000 A 
ATOM      6  C   UNL     1       7.598   7.651  17.585  0.00  0.00    +0.000 A 
ATOM      7  C   UNL     1       8.178   7.010  18.704  0.00  0.00    +0.000 A 
ATOM      8  C   UNL     1       7.691   5.764  19.142  0.00  0.00    +0.000 A 
ATOM      9  C   UNL     1       6.631   5.198  18.440  0.00  0.00    +0.000 A 
ATOM     10  O   UNL     1       6.021   4.064  18.688  0.00  0.00    +0.000 OA
ENDBRANCH   1   2
BRANCH   1  17
ATOM     11  C   UNL     1       2.409   3.682  21.688  0.00  0.00    +0.000 C 
ATOM     12  C   UNL     1       1.931   4.417  20.411  0.00  0.00    +0.000 C 
ATOM     13  C   UNL     1       1.744   5.909  20.753  0.00  0.00    +0.000 C 
ATOM     14  C   UNL     1       0.573   3.866  19.917  0.00  0.00    +0.000 C 
ATOM     15  C   UNL     1       0.705   2.429  19.418  0.00  0.00    +0.000 C 
ATOM     16  C   UNL     1       1.759   2.369  18.314  0.00  0.00    +0.000 C 
ATOM     17  N   UNL     1       3.073   2.846  18.807  0.00  0.00    +0.000 NA
ATOM     18  C   UNL     1       2.977   4.254  19.272  0.00  0.00    +0.000 C 
ENDBRANCH   1  17
TORSDOF 2
ENDMDL
MODEL 5
REMARK VINA RESULT:      -7.3      3.362      6.996
REMARK  Name = 
REMARK  4 active torsions:
REMARK  status: ('A' for Active; 'I' for Inactive)
REMARK    1  A    between atoms: C_1  and  C_2
REMARK    2  A    between atoms: C_2  and  C_3
REMARK    3  A    between atoms: N_7  and  C_8
REMARK    4  A    between atoms: C_8  and  C_9
REMARK                            x       y       z     vdW  Elec       q    Type
REMARK                         _______ _______ _______ _____ _____    ______ ____
ROOT
ATOM      1  C   UNL     1       3.292   5.186  17.966  0.00  0.00    +0.000 C 
ENDROOT
BRANCH   1   2
ATOM      2  C   UNL     1       2.712   6.479  18.476  0.00  0.00    +0.000 A 
ATOM      3  C   UNL     1       2.511   7.642  17.732  0.00  0.00    +0.000 A 
ATOM      4  C   UNL     1       1.926   8.518  18.611  0.00  0.00    +0.000 A 
ATOM      5  C   UNL     1       1.474   9.826  18.444  0.00  0.00    +0.000 A 
ATOM      6  C   UNL     1       0.899  10.469  19.556  0.00  0.00    +0.000 A 
ATOM      7  C   UNL     1       0.797   9.799  20.797  0.00  0.00    +0.000 A 
ATOM      8  C   UNL     1       1.262   8.478  20.933  0.00  0.00    +0.000 A 
ATOM      9  C   UNL     1       1.818   7.866  19.813  0.00  0.00    +0.000 A 
ATOM     10  O   UNL     1       2.293   6.648  19.718  0.00  0.00    +0.000 OA
ENDBRANCH   1   2
BRANCH   1  17
ATOM     11  C   UNL     1       7.203   7.107  17.454  0.00  0.00    +0.000 C 
ATOM     12  C   UNL     1       7.068   5.750  18.189  0.00  0.00    +0.000 C 
ATOM     13  C   UNL     1       8.001   5.768  19.416  0.00  0.00    +0.000 C 
ATOM     14  C   UNL     1       7.494   4.572  17.281  0.00  0.00    +0.000 C 
ATOM     15  C   UNL     1       6.527   4.393  16.114  0.00  0.00    +0.000 C 
ATOM     16  C   UNL     1       5.112   4.190  16.652  0.00  0.00    +0.000 C 
ATOM     17  N   UNL     1       4.686   5.346  17.475  0.00  0.00    +0.000 NA
ATOM     18  C   UNL     1       5.596   5.524  18.636  0.00  0.00    +0.000 C 
ENDBRANCH   1  17
TORSDOF 2
ENDMDL
MODEL 6
REMARK VINA RESULT:      -7.3      2.408      6.634
REMARK  Name = 
REMARK  4 active torsions:
REMARK  status: ('A' for Active; 'I' for Inactive)
REMARK    1  A    between atoms: C_1  and  C_2
REMARK    2  A    between atoms: C_2  and  C_3
REMARK    3  A    between atoms: N_7  and  C_8
REMARK    4  A    between atoms: C_8  and  C_9
REMARK                            x       y       z     vdW  Elec       q    Type
REMARK                         _______ _______ _______ _____ _____    ______ ____
ROOT
ATOM      1  C   UNL     1       3.478   6.981  17.417  0.00  0.00    +0.000 C 
ENDROOT
BRANCH   1   2
ATOM      2  C   UNL     1       2.880   5.887  18.263  0.00  0.00    +0.000 A 
ATOM      3  C   UNL     1       2.183   4.773  17.794  0.00  0.00    +0.000 A 
ATOM      4  C   UNL     1       1.881   4.054  18.923  0.00  0.00    +0.000 A 
ATOM      5  C   UNL     1       1.217   2.841  19.092  0.00  0.00    +0.000 A 
ATOM      6  C   UNL     1       1.072   2.349  20.403  0.00  0.00    +0.000 A 
ATOM      7  C   UNL     1       1.582   3.077  21.502  0.00  0.00    +0.000 A 
ATOM      8  C   UNL     1       2.248   4.300  21.298  0.00  0.00    +0.000 A 
ATOM      9  C   UNL     1       2.383   4.756  19.989  0.00  0.00    +0.000 A 
ATOM     10  O   UNL     1       2.978   5.850  19.580  0.00  0.00    +0.000 OA
ENDBRANCH   1   2
BRANCH   1  17
ATOM     11  C   UNL     1       7.836   7.479  17.532  0.00  0.00    +0.000 C 
ATOM     12  C   UNL     1       7.168   6.168  18.013  0.00  0.00    +0.000 C 
ATOM     13  C   UNL     1       7.889   5.696  19.291  0.00  0.00    +0.000 C 
ATOM     14  C   UNL     1       7.293   5.049  16.951  0.00  0.00    +0.000 C 
ATOM     15  C   UNL     1       6.479   5.374  15.702  0.00  0.00    +0.000 C 
ATOM     16  C   UNL     1       5.019   5.603  16.092  0.00  0.00    +0.000 C 
ATOM     17  N   UNL     1       4.897   6.713  17.066  0.00  0.00    +0.000 NA
ATOM     18  C   UNL     1       5.659   6.407  18.304  0.00  0.00    +0.000 C 
ENDBRANCH   1  17
TORSDOF 2
ENDMDL
MODEL 7
REMARK VINA RESULT:      -7.2      0.854      1.111
REMARK  Name = 
REMARK  4 active torsions:
REMARK  status: ('A' for Active; 'I' for Inactive)
REMARK    1  A    between atoms: C_1  and  C_2
REMARK    2  A    between atoms: C_2  and  C_3
REMARK    3  A    between atoms: N_7  and  C_8
REMARK    4  A    between atoms: C_8  and  C_9
REMARK                            x       y       z     vdW  Elec       q    Type
REMARK                         _______ _______ _______ _____ _____    ______ ____
ROOT
ATOM      1  C   UNL     1       5.809   4.498  18.029  0.00  0.00    +0.000 C 
ENDROOT
BRANCH   1   2
ATOM      2  C   UNL     1       6.100   4.496  16.551  0.00  0.00    +0.000 A 
ATOM      3  C   UNL     1       7.128   5.192  15.914  0.00  0.00    +0.000 A 
ATOM      4  C   UNL     1       7.014   4.843  14.592  0.00  0.00    +0.000 A 
ATOM      5  C   UNL     1       7.769   5.200  13.477  0.00  0.00    +0.000 A 
ATOM      6  C   UNL     1       7.401   4.656  12.232  0.00  0.00    +0.000 A 
ATOM      7  C   UNL     1       6.293   3.783  12.132  0.00  0.00    +0.000 A 
ATOM      8  C   UNL     1       5.550   3.441  13.278  0.00  0.00    +0.000 A 
ATOM      9  C   UNL     1       5.945   3.989  14.495  0.00  0.00    +0.000 A 
ATOM     10  O   UNL     1       5.408   3.791  15.674  0.00  0.00    +0.000 OA
ENDBRANCH   1   2
BRANCH   1  17
ATOM     11  C   UNL     1       1.462   4.074  17.610  0.00  0.00    +0.000 C 
ATOM     12  C   UNL     1       2.186   3.644  18.909  0.00  0.00    +0.000 C 
ATOM     13  C   UNL     1       1.565   2.319  19.394  0.00  0.00    +0.000 C 
ATOM     14  C   UNL     1       2.006   4.696  20.030  0.00  0.00    +0.000 C 
ATOM     15  C   UNL     1       2.724   5.999  19.690  0.00  0.00    +0.000 C 
ATOM     16  C   UNL     1       4.203   5.713  19.435  0.00  0.00    +0.000 C 
ATOM     17  N   UNL     1       4.373   4.748  18.323  0.00  0.00    +0.000 NA
ATOM     18  C   UNL     1       3.707   3.460  18.642  0.00  0.00    +0.000 C 
ENDBRANCH   1  17
TORSDOF 2
ENDMDL
MODEL 8
REMARK VINA RESULT:      -7.2      0.904      1.054
REMARK  Name = 
REMARK  4 active torsions:
REMARK  status: ('A' for Active; 'I' for Inactive)
REMARK    1  A    between atoms: C_1  and  C_2
REMARK    2  A    between atoms: C_2  and  C_3
REMARK    3  A    between atoms: N_7  and  C_8
REMARK    4  A    between atoms: C_8  and  C_9
REMARK                            x       y       z     vdW  Elec       q    Type
REMARK                         _______ _______ _______ _____ _____    ______ ____
ROOT
ATOM      1  C   UNL     1       5.748   4.432  17.806  0.00  0.00    +0.000 C 
ENDROOT
BRANCH   1   2
ATOM      2  C   UNL     1       6.092   4.457  16.340  0.00  0.00    +0.000 A 
ATOM      3  C   UNL     1       7.088   5.229  15.741  0.00  0.00    +0.000 A 
ATOM      4  C   UNL     1       7.047   4.878  14.415  0.00  0.00    +0.000 A 
ATOM      5  C   UNL     1       7.814   5.294  13.329  0.00  0.00    +0.000 A 
ATOM      6  C   UNL     1       7.531   4.729  12.070  0.00  0.00    +0.000 A 
ATOM      7  C   UNL     1       6.494   3.779  11.930  0.00  0.00    +0.000 A 
ATOM      8  C   UNL     1       5.738   3.379  13.047  0.00  0.00    +0.000 A 
ATOM      9  C   UNL     1       6.048   3.949  14.279  0.00  0.00    +0.000 A 
ATOM     10  O   UNL     1       5.484   3.707  15.437  0.00  0.00    +0.000 OA
ENDBRANCH   1   2
BRANCH   1  17
ATOM     11  C   UNL     1       1.496   3.972  18.785  0.00  0.00    +0.000 C 
ATOM     12  C   UNL     1       2.454   4.745  19.724  0.00  0.00    +0.000 C 
ATOM     13  C   UNL     1       2.111   4.372  21.180  0.00  0.00    +0.000 C 
ATOM     14  C   UNL     1       2.284   6.275  19.569  0.00  0.00    +0.000 C 
ATOM     15  C   UNL     1       2.747   6.748  18.194  0.00  0.00    +0.000 C 
ATOM     16  C   UNL     1       4.200   6.331  17.973  0.00  0.00    +0.000 C 
ATOM     17  N   UNL     1       4.349   4.859  18.067  0.00  0.00    +0.000 NA
ATOM     18  C   UNL     1       3.931   4.376  19.409  0.00  0.00    +0.000 C 
ENDBRANCH   1  17
TORSDOF 2
ENDMDL
MODEL 9
REMARK VINA RESULT:      -7.2      2.314      6.482
REMARK  Name = 
REMARK  4 active torsions:
REMARK  status: ('A' for Active; 'I' for Inactive)
REMARK    1  A    between atoms: C_1  and  C_2
REMARK    2  A    between atoms: C_2  and  C_3
REMARK    3  A    between atoms: N_7  and  C_8
REMARK    4  A    between atoms: C_8  and  C_9
REMARK                            x       y       z     vdW  Elec       q    Type
REMARK                         _______ _______ _______ _____ _____    ______ ____
ROOT
ATOM      1  C   UNL     1       3.536   7.034  17.335  0.00  0.00    +0.000 C 
ENDROOT
BRANCH   1   2
ATOM      2  C   UNL     1       2.945   5.929  18.171  0.00  0.00    +0.000 A 
ATOM      3  C   UNL     1       2.843   5.913  19.562  0.00  0.00    +0.000 A 
ATOM      4  C   UNL     1       2.203   4.734  19.849  0.00  0.00    +0.000 A 
ATOM      5  C   UNL     1       1.802   4.174  21.060  0.00  0.00    +0.000 A 
ATOM      6  C   UNL     1       1.144   2.931  21.024  0.00  0.00    +0.000 A 
ATOM      7  C   UNL     1       0.912   2.280  19.791  0.00  0.00    +0.000 A 
ATOM      8  C   UNL     1       1.329   2.871  18.584  0.00  0.00    +0.000 A 
ATOM      9  C   UNL     1       1.969   4.105  18.653  0.00  0.00    +0.000 A 
ATOM     10  O   UNL     1       2.419   4.831  17.657  0.00  0.00    +0.000 OA
ENDBRANCH   1   2
BRANCH   1  17
ATOM     11  C   UNL     1       7.882   7.573  17.601  0.00  0.00    +0.000 C 
ATOM     12  C   UNL     1       7.216   6.234  18.002  0.00  0.00    +0.000 C 
ATOM     13  C   UNL     1       7.906   5.712  19.279  0.00  0.00    +0.000 C 
ATOM     14  C   UNL     1       7.386   5.166  16.896  0.00  0.00    +0.000 C 
ATOM     15  C   UNL     1       6.604   5.538  15.640  0.00  0.00    +0.000 C 
ATOM     16  C   UNL     1       5.131   5.734  15.995  0.00  0.00    +0.000 C 
ATOM     17  N   UNL     1       4.968   6.797  17.014  0.00  0.00    +0.000 NA
ATOM     18  C   UNL     1       5.697   6.444  18.260  0.00  0.00    +0.000 C 
ENDBRANCH   1  17
TORSDOF 2
ENDMDL
