MODEL 1
REMARK VINA RESULT:      -7.2      0.000      0.000
REMARK  Name = 
REMARK  3 active torsions:
REMARK  status: ('A' for Active; 'I' for Inactive)
REMARK    1  A    between atoms: C_1  and  C_2
REMARK    2  A    between atoms: C_2  and  C_3
REMARK    3  A    between atoms: C_18  and  N_19
REMARK                            x       y       z     vdW  Elec       q    Type
REMARK                         _______ _______ _______ _____ _____    ______ ____
ROOT
ATOM      1  C   UNL     1       6.748   4.687  14.747  0.00  0.00    +0.000 C 
ATOM      2  C   UNL     1       5.521   5.596  14.778  0.00  0.00    +0.000 C 
ATOM      3  C   UNL     1       4.642   5.213  15.923  0.00  0.00    +0.000 C 
ATOM      4  C   UNL     1       4.908   6.073  17.160  0.00  0.00    +0.000 C 
ATOM      5  C   UNL     1       6.379   6.469  17.371  0.00  0.00    +0.000 C 
ATOM      6  C   UNL     1       7.251   5.235  17.459  0.00  0.00    +0.000 C 
ATOM      7  C   UNL     1       6.748   4.396  18.691  0.00  0.00    +0.000 C 
ATOM      8  C   UNL     1       5.252   4.447  19.034  0.00  0.00    +0.000 A 
ATOM      9  N   UNL     1       4.818   3.683  20.065  0.00  0.00    +0.000 NA
ATOM     10  C   UNL     1       3.482   3.564  20.293  0.00  0.00    +0.000 A 
ATOM     11  C   UNL     1       3.004   2.805  21.354  0.00  0.00    +0.000 A 
ATOM     12  C   UNL     1       1.644   2.540  21.544  0.00  0.00    +0.000 A 
ATOM     13  C   UNL     1       0.710   3.037  20.644  0.00  0.00    +0.000 A 
ATOM     14  C   UNL     1       1.150   3.862  19.617  0.00  0.00    +0.000 A 
ATOM     15  C   UNL     1       2.527   4.167  19.454  0.00  0.00    +0.000 A 
ATOM     16  C   UNL     1       2.987   5.053  18.465  0.00  0.00    +0.000 A 
ATOM     17  C   UNL     1       4.374   5.235  18.288  0.00  0.00    +0.000 A 
ATOM     18  C   UNL     1       7.552   4.492  16.093  0.00  0.00    +0.000 C 
ENDROOT
BRANCH  16  19
ATOM     19  N   UNL     1       2.046   5.713  17.638  0.00  0.00    +0.000 N 
ATOM     20  H   UNL     1       2.391   6.629  17.354  0.00  0.00    +0.000 HD
ATOM     21  H   UNL     1       1.111   5.791  18.017  0.00  0.00    +0.000 HD
ENDBRANCH  16  19
BRANCH   1  23
ATOM     22  C   UNL     1       7.196   4.460  12.187  0.00  0.00    +0.000 C 
ATOM     23  C   UNL     1       7.522   5.148  13.487  0.00  0.00    +0.000 C 
ENDBRANCH   1  23
TORSDOF 2
ENDMDL
MODEL 2
REMARK VINA RESULT:      -7.0      4.064      6.012
REMARK  Name = 
REMARK  3 active torsions:
REMARK  status: ('A' for Active; 'I' for Inactive)
REMARK    1  A    between atoms: C_1  and  C_2
REMARK    2  A    between atoms: C_2  and  C_3
REMARK    3  A    between atoms: C_18  and  N_19
REMARK                            x       y       z     vdW  Elec       q    Type
REMARK                         _______ _______ _______ _____ _____    ______ ____
ROOT
ATOM      1  C   UNL     1       1.844   3.331  18.242  0.00  0.00    +0.000 C 
ATOM      2  C   UNL     1       2.605   4.360  17.408  0.00  0.00    +0.000 C 
ATOM      3  C   UNL     1       2.161   5.736  17.781  0.00  0.00    +0.000 C 
ATOM      4  C   UNL     1       3.086   6.374  18.819  0.00  0.00    +0.000 C 
ATOM      5  C   UNL     1       3.657   5.400  19.864  0.00  0.00    +0.000 C 
ATOM      6  C   UNL     1       2.536   4.698  20.600  0.00  0.00    +0.000 C 
ATOM      7  C   UNL     1       1.686   5.808  21.321  0.00  0.00    +0.000 C 
ATOM      8  C   UNL     1       1.575   7.183  20.645  0.00  0.00    +0.000 A 
ATOM      9  N   UNL     1       0.800   8.116  21.246  0.00  0.00    +0.000 NA
ATOM     10  C   UNL     1       0.535   9.283  20.598  0.00  0.00    +0.000 A 
ATOM     11  C   UNL     1      -0.239  10.271  21.194  0.00  0.00    +0.000 A 
ATOM     12  C   UNL     1      -0.653  11.422  20.516  0.00  0.00    +0.000 A 
ATOM     13  C   UNL     1      -0.297  11.607  19.186  0.00  0.00    +0.000 A 
ATOM     14  C   UNL     1       0.538  10.674  18.586  0.00  0.00    +0.000 A 
ATOM     15  C   UNL     1       0.995   9.530  19.291  0.00  0.00    +0.000 A 
ATOM     16  C   UNL     1       1.895   8.610  18.727  0.00  0.00    +0.000 A 
ATOM     17  C   UNL     1       2.231   7.442  19.441  0.00  0.00    +0.000 A 
ATOM     18  C   UNL     1       1.788   3.550  19.806  0.00  0.00    +0.000 C 
ENDROOT
BRANCH  16  19
ATOM     19  N   UNL     1       2.414   8.858  17.433  0.00  0.00    +0.000 N 
ATOM     20  H   UNL     1       3.417   9.032  17.470  0.00  0.00    +0.000 HD
ATOM     21  H   UNL     1       1.949   9.587  16.908  0.00  0.00    +0.000 HD
ENDBRANCH  16  19
BRANCH   1  23
ATOM     22  C   UNL     1       3.618   1.420  18.307  0.00  0.00    +0.000 C 
ATOM     23  C   UNL     1       2.350   1.969  17.707  0.00  0.00    +0.000 C 
ENDBRANCH   1  23
TORSDOF 2
ENDMDL
MODEL 3
REMARK VINA RESULT:      -6.9      1.714      3.702
REMARK  Name = 
REMARK  3 active torsions:
REMARK  status: ('A' for Active; 'I' for Inactive)
REMARK    1  A    between atoms: C_1  and  C_2
REMARK    2  A    between atoms: C_2  and  C_3
REMARK    3  A    between atoms: C_18  and  N_19
REMARK                            x       y       z     vdW  Elec       q    Type
REMARK                         _______ _______ _______ _____ _____    ______ ____
ROOT
ATOM      1  C   UNL     1       7.543   7.686  18.199  0.00  0.00    +0.000 C 
ATOM      2  C   UNL     1       7.941   6.397  18.917  0.00  0.00    +0.000 C 
ATOM      3  C   UNL     1       6.732   5.543  19.118  0.00  0.00    +0.000 C 
ATOM      4  C   UNL     1       6.580   4.497  18.012  0.00  0.00    +0.000 C 
ATOM      5  C   UNL     1       7.011   4.966  16.612  0.00  0.00    +0.000 C 
ATOM      6  C   UNL     1       6.232   6.199  16.206  0.00  0.00    +0.000 C 
ATOM      7  C   UNL     1       4.711   5.802  16.184  0.00  0.00    +0.000 C 
ATOM      8  C   UNL     1       4.228   4.742  17.188  0.00  0.00    +0.000 A 
ATOM      9  N   UNL     1       2.908   4.443  17.198  0.00  0.00    +0.000 NA
ATOM     10  C   UNL     1       2.411   3.643  18.180  0.00  0.00    +0.000 A 
ATOM     11  C   UNL     1       1.065   3.299  18.208  0.00  0.00    +0.000 A 
ATOM     12  C   UNL     1       0.484   2.598  19.270  0.00  0.00    +0.000 A 
ATOM     13  C   UNL     1       1.260   2.226  20.360  0.00  0.00    +0.000 A 
ATOM     14  C   UNL     1       2.623   2.489  20.327  0.00  0.00    +0.000 A 
ATOM     15  C   UNL     1       3.219   3.159  19.226  0.00  0.00    +0.000 A 
ATOM     16  C   UNL     1       4.605   3.375  19.139  0.00  0.00    +0.000 A 
ATOM     17  C   UNL     1       5.122   4.136  18.071  0.00  0.00    +0.000 A 
ATOM     18  C   UNL     1       6.664   7.558  16.893  0.00  0.00    +0.000 C 
ENDROOT
BRANCH  16  19
ATOM     19  N   UNL     1       5.449   2.857  20.151  0.00  0.00    +0.000 N 
ATOM     20  H   UNL     1       6.019   3.593  20.562  0.00  0.00    +0.000 HD
ATOM     21  H   UNL     1       6.029   2.074  19.877  0.00  0.00    +0.000 HD
ENDBRANCH  16  19
BRANCH   1  23
ATOM     22  C   UNL     1       8.829   9.921  18.593  0.00  0.00    +0.000 C 
ATOM     23  C   UNL     1       8.865   8.491  18.121  0.00  0.00    +0.000 C 
ENDBRANCH   1  23
TORSDOF 2
ENDMDL
MODEL 4
REMARK VINA RESULT:      -6.7      1.638      3.584
REMARK  Name = 
REMARK  3 active torsions:
REMARK  status: ('A' for Active; 'I' for Inactive)
REMARK    1  A    between atoms: C_1  and  C_2
REMARK    2  A    between atoms: C_2  and  C_3
REMARK    3  A    between atoms: C_18  and  N_19
REMARK                            x       y       z     vdW  Elec       q    Type
REMARK                         _______ _______ _______ _____ _____    ______ ____
ROOT
ATOM      1  C   UNL     1       7.282   7.903  18.050  0.00  0.00    +0.000 C 
ATOM      2  C   UNL     1       7.778   6.481  18.308  0.00  0.00    +0.000 C 
ATOM      3  C   UNL     1       6.654   5.643  18.821  0.00  0.00    +0.000 C 
ATOM      4  C   UNL     1       5.972   4.854  17.703  0.00  0.00    +0.000 C 
ATOM      5  C   UNL     1       5.878   5.588  16.355  0.00  0.00    +0.000 C 
ATOM      6  C   UNL     1       5.146   6.902  16.518  0.00  0.00    +0.000 C 
ATOM      7  C   UNL     1       3.700   6.567  17.038  0.00  0.00    +0.000 C 
ATOM      8  C   UNL     1       3.527   5.340  17.946  0.00  0.00    +0.000 A 
ATOM      9  N   UNL     1       2.288   5.087  18.430  0.00  0.00    +0.000 NA
ATOM     10  C   UNL     1       2.123   4.118  19.371  0.00  0.00    +0.000 A 
ATOM     11  C   UNL     1       0.862   3.819  19.874  0.00  0.00    +0.000 A 
ATOM     12  C   UNL     1       0.661   2.933  20.938  0.00  0.00    +0.000 A 
ATOM     13  C   UNL     1       1.751   2.319  21.541  0.00  0.00    +0.000 A 
ATOM     14  C   UNL     1       3.016   2.538  21.012  0.00  0.00    +0.000 A 
ATOM     15  C   UNL     1       3.212   3.402  19.902  0.00  0.00    +0.000 A 
ATOM     16  C   UNL     1       4.471   3.587  19.308  0.00  0.00    +0.000 A 
ATOM     17  C   UNL     1       4.619   4.535  18.275  0.00  0.00    +0.000 A 
ATOM     18  C   UNL     1       5.958   8.076  17.205  0.00  0.00    +0.000 C 
ENDROOT
BRANCH  16  19
ATOM     19  N   UNL     1       5.577   2.844  19.788  0.00  0.00    +0.000 N 
ATOM     20  H   UNL     1       6.158   2.517  19.018  0.00  0.00    +0.000 HD
ATOM     21  H   UNL     1       5.351   2.077  20.409  0.00  0.00    +0.000 HD
ENDBRANCH  16  19
BRANCH   1  23
ATOM     22  C   UNL     1       8.882   9.946  18.312  0.00  0.00    +0.000 C 
ATOM     23  C   UNL     1       8.551   8.664  17.593  0.00  0.00    +0.000 C 
ENDBRANCH   1  23
TORSDOF 2
ENDMDL
MODEL 5
REMARK VINA RESULT:      -6.7      9.166     11.857
REMARK  Name = 
REMARK  3 active torsions:
REMARK  status: ('A' for Active; 'I' for Inactive)
REMARK    1  A    between atoms: C_1  and  C_2
REMARK    2  A    between atoms: C_2  and  C_3
REMARK    3  A    between atoms: C_18  and  N_19
REMARK                            x       y       z     vdW  Elec       q    Type
REMARK                         _______ _______ _______ _____ _____    ______ ____
ROOT
ATOM      1  C   UNL     1       8.828   9.969  18.829  0.00  0.00    +0.000 C 
ATOM      2  C   UNL     1       9.718  10.342  17.645  0.00  0.00    +0.000 C 
ATOM      3  C   UNL     1       9.935  11.820  17.627  0.00  0.00    +0.000 C 
ATOM      4  C   UNL     1      11.242  12.214  18.317  0.00  0.00    +0.000 C 
ATOM      5  C   UNL     1      11.613  11.361  19.541  0.00  0.00    +0.000 C 
ATOM      6  C   UNL     1      10.505  11.404  20.571  0.00  0.00    +0.000 C 
ATOM      7  C   UNL     1      10.334  12.906  21.007  0.00  0.00    +0.000 C 
ATOM      8  C   UNL     1      10.611  13.996  19.960  0.00  0.00    +0.000 A 
ATOM      9  N   UNL     1      10.413  15.284  20.328  0.00  0.00    +0.000 NA
ATOM     10  C   UNL     1      10.479  16.265  19.388  0.00  0.00    +0.000 A 
ATOM     11  C   UNL     1      10.301  17.599  19.735  0.00  0.00    +0.000 A 
ATOM     12  C   UNL     1      10.221  18.625  18.787  0.00  0.00    +0.000 A 
ATOM     13  C   UNL     1      10.311  18.324  17.434  0.00  0.00    +0.000 A 
ATOM     14  C   UNL     1      10.565  17.011  17.060  0.00  0.00    +0.000 A 
ATOM     15  C   UNL     1      10.692  15.979  18.027  0.00  0.00    +0.000 A 
ATOM     16  C   UNL     1      11.016  14.658  17.676  0.00  0.00    +0.000 A 
ATOM     17  C   UNL     1      11.027  13.659  18.671  0.00  0.00    +0.000 A 
ATOM     18  C   UNL     1       9.214  10.544  20.248  0.00  0.00    +0.000 C 
ENDROOT
BRANCH  16  19
ATOM     19  N   UNL     1      11.285  14.349  16.320  0.00  0.00    +0.000 N 
ATOM     20  H   UNL     1      12.115  13.766  16.238  0.00  0.00    +0.000 HD
ATOM     21  H   UNL     1      11.349  15.144  15.696  0.00  0.00    +0.000 HD
ENDBRANCH  16  19
BRANCH   1  23
ATOM     22  C   UNL     1       7.739   7.960  17.570  0.00  0.00    +0.000 C 
ATOM     23  C   UNL     1       8.635   8.439  18.682  0.00  0.00    +0.000 C 
ENDBRANCH   1  23
TORSDOF 2
ENDMDL
MODEL 6
REMARK VINA RESULT:      -6.5      3.506      4.881
REMARK  Name = 
REMARK  3 active torsions:
REMARK  status: ('A' for Active; 'I' for Inactive)
REMARK    1  A    between atoms: C_1  and  C_2
REMARK    2  A    between atoms: C_2  and  C_3
REMARK    3  A    between atoms: C_18  and  N_19
REMARK                            x       y       z     vdW  Elec       q    Type
REMARK                         _______ _______ _______ _____ _____    ______ ____
ROOT
ATOM      1  C   UNL     1       6.448   5.744  18.260  0.00  0.00    +0.000 C 
ATOM      2  C   UNL     1       5.520   4.860  19.091  0.00  0.00    +0.000 C 
ATOM      3  C   UNL     1       4.405   5.685  19.644  0.00  0.00    +0.000 C 
ATOM      4  C   UNL     1       3.153   5.617  18.768  0.00  0.00    +0.000 C 
ATOM      5  C   UNL     1       3.423   5.539  17.256  0.00  0.00    +0.000 C 
ATOM      6  C   UNL     1       4.251   6.724  16.805  0.00  0.00    +0.000 C 
ATOM      7  C   UNL     1       3.420   8.020  17.126  0.00  0.00    +0.000 C 
ATOM      8  C   UNL     1       2.502   8.000  18.358  0.00  0.00    +0.000 A 
ATOM      9  N   UNL     1       1.829   9.137  18.657  0.00  0.00    +0.000 NA
ATOM     10  C   UNL     1       1.143   9.219  19.829  0.00  0.00    +0.000 A 
ATOM     11  C   UNL     1       0.425  10.362  20.158  0.00  0.00    +0.000 A 
ATOM     12  C   UNL     1      -0.178  10.546  21.407  0.00  0.00    +0.000 A 
ATOM     13  C   UNL     1      -0.061   9.564  22.382  0.00  0.00    +0.000 A 
ATOM     14  C   UNL     1       0.585   8.378  22.058  0.00  0.00    +0.000 A 
ATOM     15  C   UNL     1       1.156   8.175  20.774  0.00  0.00    +0.000 A 
ATOM     16  C   UNL     1       1.754   6.960  20.402  0.00  0.00    +0.000 A 
ATOM     17  C   UNL     1       2.392   6.856  19.149  0.00  0.00    +0.000 A 
ATOM     18  C   UNL     1       5.790   6.684  17.174  0.00  0.00    +0.000 C 
ENDROOT
BRANCH  16  19
ATOM     19  N   UNL     1       1.739   5.875  21.313  0.00  0.00    +0.000 N 
ATOM     20  H   UNL     1       2.628   5.381  21.305  0.00  0.00    +0.000 HD
ATOM     21  H   UNL     1       0.972   5.224  21.203  0.00  0.00    +0.000 HD
ENDBRANCH  16  19
BRANCH   1  23
ATOM     22  C   UNL     1       7.552   4.305  16.384  0.00  0.00    +0.000 C 
ATOM     23  C   UNL     1       7.578   4.782  17.813  0.00  0.00    +0.000 C 
ENDBRANCH   1  23
TORSDOF 2
ENDMDL
MODEL 7
REMARK VINA RESULT:      -6.5      9.240     10.720
REMARK  Name = 
REMARK  3 active torsions:
REMARK  status: ('A' for Active; 'I' for Inactive)
REMARK    1  A    between atoms: C_1  and  C_2
REMARK    2  A    between atoms: C_2  and  C_3
REMARK    3  A    between atoms: C_18  and  N_19
REMARK                            x       y       z     vdW  Elec       q    Type
REMARK                         _______ _______ _______ _____ _____    ______ ____
ROOT
ATOM      1  C   UNL     1       0.227   9.856  18.955  0.00  0.00    +0.000 C 
ATOM      2  C   UNL     1      -0.748  10.678  18.113  0.00  0.00    +0.000 C 
ATOM      3  C   UNL     1      -1.867  11.165  18.974  0.00  0.00    +0.000 C 
ATOM      4  C   UNL     1      -1.619  12.584  19.487  0.00  0.00    +0.000 C 
ATOM      5  C   UNL     1      -0.152  12.909  19.813  0.00  0.00    +0.000 C 
ATOM      6  C   UNL     1       0.389  11.936  20.840  0.00  0.00    +0.000 C 
ATOM      7  C   UNL     1      -0.488  12.094  22.136  0.00  0.00    +0.000 C 
ATOM      8  C   UNL     1      -1.969  12.465  21.964  0.00  0.00    +0.000 A 
ATOM      9  N   UNL     1      -2.729  12.548  23.081  0.00  0.00    +0.000 NA
ATOM     10  C   UNL     1      -4.075  12.704  22.964  0.00  0.00    +0.000 A 
ATOM     11  C   UNL     1      -4.882  12.814  24.089  0.00  0.00    +0.000 A 
ATOM     12  C   UNL     1      -6.280  12.834  24.022  0.00  0.00    +0.000 A 
ATOM     13  C   UNL     1      -6.913  12.731  22.790  0.00  0.00    +0.000 A 
ATOM     14  C   UNL     1      -6.134  12.696  21.642  0.00  0.00    +0.000 A 
ATOM     15  C   UNL     1      -4.716  12.723  21.711  0.00  0.00    +0.000 A 
ATOM     16  C   UNL     1      -3.909  12.757  20.561  0.00  0.00    +0.000 A 
ATOM     17  C   UNL     1      -2.508  12.680  20.695  0.00  0.00    +0.000 A 
ATOM     18  C   UNL     1       0.732  10.482  20.314  0.00  0.00    +0.000 C 
ENDROOT
BRANCH  16  19
ATOM     19  N   UNL     1      -4.525  12.828  19.287  0.00  0.00    +0.000 N 
ATOM     20  H   UNL     1      -3.914  13.283  18.612  0.00  0.00    +0.000 HD
ATOM     21  H   UNL     1      -5.445  13.250  19.270  0.00  0.00    +0.000 HD
ENDBRANCH  16  19
BRANCH   1  23
ATOM     22  C   UNL     1       2.202   8.257  18.368  0.00  0.00    +0.000 C 
ATOM     23  C   UNL     1       1.282   9.367  17.932  0.00  0.00    +0.000 C 
ENDBRANCH   1  23
TORSDOF 2
ENDMDL
MODEL 8
REMARK VINA RESULT:      -6.4      8.952     10.576
REMARK  Name = 
REMARK  3 active torsions:
REMARK  status: ('A' for Active; 'I' for Inactive)
REMARK    1  A    between atoms: C_1  and  C_2
REMARK    2  A    between atoms: C_2  and  C_3
REMARK    3  A    between atoms: C_18  and  N_19
REMARK                            x       y       z     vdW  Elec       q    Type
REMARK                         _______ _______ _______ _____ _____    ______ ____
ROOT
ATOM      1  C   UNL     1       0.558   9.872  18.787  0.00  0.00    +0.000 C 
ATOM      2  C   UNL     1      -0.400   9.942  17.599  0.00  0.00    +0.000 C 
ATOM      3  C   UNL     1      -1.763  10.325  18.076  0.00  0.00    +0.000 C 
ATOM      4  C   UNL     1      -2.012  11.828  17.951  0.00  0.00    +0.000 C 
ATOM      5  C   UNL     1      -0.785  12.714  18.225  0.00  0.00    +0.000 C 
ATOM      6  C   UNL     1      -0.235  12.441  19.608  0.00  0.00    +0.000 C 
ATOM      7  C   UNL     1      -1.373  12.784  20.638  0.00  0.00    +0.000 C 
ATOM      8  C   UNL     1      -2.829  12.554  20.204  0.00  0.00    +0.000 A 
ATOM      9  N   UNL     1      -3.802  12.803  21.114  0.00  0.00    +0.000 NA
ATOM     10  C   UNL     1      -5.085  12.451  20.833  0.00  0.00    +0.000 A 
ATOM     11  C   UNL     1      -6.110  12.711  21.734  0.00  0.00    +0.000 A 
ATOM     12  C   UNL     1      -7.417  12.244  21.552  0.00  0.00    +0.000 A 
ATOM     13  C   UNL     1      -7.728  11.479  20.436  0.00  0.00    +0.000 A 
ATOM     14  C   UNL     1      -6.744  11.267  19.479  0.00  0.00    +0.000 A 
ATOM     15  C   UNL     1      -5.431  11.781  19.644  0.00  0.00    +0.000 A 
ATOM     16  C   UNL     1      -4.439  11.637  18.660  0.00  0.00    +0.000 A 
ATOM     17  C   UNL     1      -3.128  12.080  18.926  0.00  0.00    +0.000 A 
ATOM     18  C   UNL     1       0.583  11.097  19.784  0.00  0.00    +0.000 C 
ENDROOT
BRANCH  16  19
ATOM     19  N   UNL     1      -4.770  11.011  17.433  0.00  0.00    +0.000 N 
ATOM     20  H   UNL     1      -5.680  11.323  17.099  0.00  0.00    +0.000 HD
ATOM     21  H   UNL     1      -4.722  10.000  17.432  0.00  0.00    +0.000 HD
ENDBRANCH  16  19
BRANCH   1  23
ATOM     22  C   UNL     1       2.107   7.920  18.013  0.00  0.00    +0.000 C 
ATOM     23  C   UNL     1       1.895   9.405  18.160  0.00  0.00    +0.000 C 
ENDBRANCH   1  23
TORSDOF 2
ENDMDL
MODEL 9
REMARK VINA RESULT:      -6.3      7.971     10.811
REMARK  Name = 
REMARK  3 active torsions:
REMARK  status: ('A' for Active; 'I' for Inactive)
REMARK    1  A    between atoms: C_1  and  C_2
REMARK    2  A    between atoms: C_2  and  C_3
REMARK    3  A    between atoms: C_18  and  N_19
REMARK                            x       y       z     vdW  Elec       q    Type
REMARK                         _______ _______ _______ _____ _____    ______ ____
ROOT
ATOM      1  C   UNL     1      -3.712  12.597  22.450  0.00  0.00    +0.000 C 
ATOM      2  C   UNL     1      -2.686  12.022  23.426  0.00  0.00    +0.000 C 
ATOM      3  C   UNL     1      -1.687  11.203  22.677  0.00  0.00    +0.000 C 
ATOM      4  C   UNL     1      -0.431  12.006  22.335  0.00  0.00    +0.000 C 
ATOM      5  C   UNL     1      -0.679  13.485  21.993  0.00  0.00    +0.000 C 
ATOM      6  C   UNL     1      -1.644  13.604  20.833  0.00  0.00    +0.000 C 
ATOM      7  C   UNL     1      -0.984  12.881  19.602  0.00  0.00    +0.000 C 
ATOM      8  C   UNL     1      -0.079  11.671  19.878  0.00  0.00    +0.000 A 
ATOM      9  N   UNL     1       0.445  11.023  18.811  0.00  0.00    +0.000 NA
ATOM     10  C   UNL     1       1.107   9.849  19.000  0.00  0.00    +0.000 A 
ATOM     11  C   UNL     1       1.675   9.169  17.930  0.00  0.00    +0.000 A 
ATOM     12  C   UNL     1       2.241   7.896  18.054  0.00  0.00    +0.000 A 
ATOM     13  C   UNL     1       2.241   7.257  19.288  0.00  0.00    +0.000 A 
ATOM     14  C   UNL     1       1.750   7.942  20.392  0.00  0.00    +0.000 A 
ATOM     15  C   UNL     1       1.218   9.253  20.270  0.00  0.00    +0.000 A 
ATOM     16  C   UNL     1       0.779   9.991  21.382  0.00  0.00    +0.000 A 
ATOM     17  C   UNL     1       0.167  11.246  21.185  0.00  0.00    +0.000 A 
ATOM     18  C   UNL     1      -3.169  13.330  21.160  0.00  0.00    +0.000 C 
ENDROOT
BRANCH  16  19
ATOM     19  N   UNL     1       0.923   9.438  22.678  0.00  0.00    +0.000 N 
ATOM     20  H   UNL     1       0.107   8.883  22.930  0.00  0.00    +0.000 HD
ATOM     21  H   UNL     1       1.141  10.099  23.413  0.00  0.00    +0.000 HD
ENDBRANCH  16  19
BRANCH   1  23
ATOM     22  C   UNL     1      -5.367  12.569  24.467  0.00  0.00    +0.000 C 
ATOM     23  C   UNL     1      -4.710  13.355  23.362  0.00  0.00    +0.000 C 
ENDBRANCH   1  23
TORSDOF 2
ENDMDL
