MODEL 1
REMARK VINA RESULT:      -8.3      0.000      0.000
REMARK  Name = 
REMARK  9 active torsions:
REMARK  status: ('A' for Active; 'I' for Inactive)
REMARK    1  A    between atoms: C_1  and  O_2
REMARK    2  A    between atoms: O_2  and  C_3
REMARK    3  A    between atoms: C_6  and  N_7
REMARK    4  A    between atoms: C_8  and  C_10
REMARK    5  A    between atoms: C_10  and  N_11
REMARK    6  A    between atoms: N_11  and  C_12
REMARK    7  A    between atoms: C_16  and  S_17
REMARK    8  A    between atoms: S_17  and  N_20
REMARK    9  A    between atoms: C_28  and  N_29
REMARK                            x       y       z     vdW  Elec       q    Type
REMARK                         _______ _______ _______ _____ _____    ______ ____
ROOT
ATOM      1  N   UNL     1       2.252   8.808  18.189  0.00  0.00    +0.000 N 
ATOM      2  H   UNL     1       2.824   8.744  17.345  0.00  0.00    +0.000 HD
ENDROOT
BRANCH   1   3
ATOM      3  C   UNL     1       2.236   7.560  18.834  0.00  0.00    +0.000 A 
ATOM      4  C   UNL     1       1.835   7.537  20.179  0.00  0.00    +0.000 A 
ATOM      5  C   UNL     1       1.753   6.342  20.901  0.00  0.00    +0.000 A 
ATOM      6  C   UNL     1       2.065   5.135  20.285  0.00  0.00    +0.000 A 
ATOM      7  C   UNL     1       2.444   5.133  18.942  0.00  0.00    +0.000 A 
ATOM      8  C   UNL     1       2.536   6.337  18.221  0.00  0.00    +0.000 A 
BRANCH   7   9
ATOM      9  S   UNL     1       2.947   3.589  18.182  0.00  0.00    +0.000 S 
ATOM     10  O   UNL     1       2.995   2.596  19.233  0.00  0.00    +0.000 OA
ATOM     11  O   UNL     1       2.116   3.397  17.017  0.00  0.00    +0.000 OA
BRANCH   9  12
ATOM     12  N   UNL     1       4.554   3.904  17.671  0.00  0.00    +0.000 NA
ATOM     13  C   UNL     1       4.721   4.376  16.279  0.00  0.00    +0.000 C 
ATOM     14  C   UNL     1       5.979   3.809  15.621  0.00  0.00    +0.000 C 
ATOM     15  C   UNL     1       7.256   4.573  15.952  0.00  0.00    +0.000 C 
ATOM     16  C   UNL     1       7.632   4.529  17.426  0.00  0.00    +0.000 C 
ATOM     17  C   UNL     1       6.628   5.266  18.300  0.00  0.00    +0.000 C 
ATOM     18  C   UNL     1       5.449   4.411  18.738  0.00  0.00    +0.000 C 
ENDBRANCH   9  12
ENDBRANCH   7   9
ENDBRANCH   1   3
BRANCH   1  19
ATOM     19  C   UNL     1       0.982   9.499  17.935  0.00  0.00    +0.000 C 
BRANCH  19  21
ATOM     20  N   UNL     1      -0.526  10.441  19.651  0.00  0.00    +0.000 N 
ATOM     21  C   UNL     1       0.685  10.576  18.986  0.00  0.00    +0.000 C 
ATOM     22  O   UNL     1       1.477  11.506  19.134  0.00  0.00    +0.000 OA
ATOM     23  H   UNL     1      -1.177   9.764  19.243  0.00  0.00    +0.000 HD
BRANCH  20  27
ATOM     24  C   UNL     1      -1.938  13.082  22.706  0.00  0.00    +0.000 A 
ATOM     25  C   UNL     1      -2.162  13.342  21.359  0.00  0.00    +0.000 A 
ATOM     26  C   UNL     1      -1.683  12.473  20.374  0.00  0.00    +0.000 A 
ATOM     27  C   UNL     1      -1.006  11.287  20.694  0.00  0.00    +0.000 A 
ATOM     28  C   UNL     1      -0.816  11.017  22.068  0.00  0.00    +0.000 A 
ATOM     29  C   UNL     1      -1.251  11.927  23.060  0.00  0.00    +0.000 A 
BRANCH  28  30
ATOM     30  N   UNL     1      -0.272   9.738  22.552  0.00  0.00    +0.000 N 
ATOM     31  O   UNL     1       0.612   9.774  23.422  0.00  0.00    +0.000 OA
ATOM     32  O   UNL     1      -0.716   8.690  22.061  0.00  0.00    +0.000 OA
ENDBRANCH  28  30
BRANCH  24  34
ATOM     33  C   UNL     1      -2.613  15.332  23.077  0.00  0.00    +0.000 C 
ATOM     34  O   UNL     1      -2.463  14.004  23.566  0.00  0.00    +0.000 OA
ENDBRANCH  24  34
ENDBRANCH  20  27
ENDBRANCH  19  21
ENDBRANCH   1  19
TORSDOF 8
ENDMDL
MODEL 2
REMARK VINA RESULT:      -8.1      2.867      9.554
REMARK  Name = 
REMARK  9 active torsions:
REMARK  status: ('A' for Active; 'I' for Inactive)
REMARK    1  A    between atoms: C_1  and  O_2
REMARK    2  A    between atoms: O_2  and  C_3
REMARK    3  A    between atoms: C_6  and  N_7
REMARK    4  A    between atoms: C_8  and  C_10
REMARK    5  A    between atoms: C_10  and  N_11
REMARK    6  A    between atoms: N_11  and  C_12
REMARK    7  A    between atoms: C_16  and  S_17
REMARK    8  A    between atoms: S_17  and  N_20
REMARK    9  A    between atoms: C_28  and  N_29
REMARK                            x       y       z     vdW  Elec       q    Type
REMARK                         _______ _______ _______ _____ _____    ______ ____
ROOT
ATOM      1  N   UNL     1       1.725   7.683  21.492  0.00  0.00    +0.000 N 
ATOM      2  H   UNL     1       1.947   7.371  22.439  0.00  0.00    +0.000 HD
ENDROOT
BRANCH   1   3
ATOM      3  C   UNL     1       0.944   8.849  21.559  0.00  0.00    +0.000 A 
ATOM      4  C   UNL     1       0.175   9.042  22.718  0.00  0.00    +0.000 A 
ATOM      5  C   UNL     1      -0.609  10.186  22.897  0.00  0.00    +0.000 A 
ATOM      6  C   UNL     1      -0.637  11.171  21.917  0.00  0.00    +0.000 A 
ATOM      7  C   UNL     1       0.137  11.009  20.767  0.00  0.00    +0.000 A 
ATOM      8  C   UNL     1       0.917   9.854  20.584  0.00  0.00    +0.000 A 
BRANCH   7   9
ATOM      9  S   UNL     1       0.018  12.230  19.459  0.00  0.00    +0.000 S 
ATOM     10  O   UNL     1      -0.257  13.502  20.092  0.00  0.00    +0.000 OA
ATOM     11  O   UNL     1       1.171  12.058  18.608  0.00  0.00    +0.000 OA
BRANCH   9  12
ATOM     12  N   UNL     1      -1.385  11.750  18.596  0.00  0.00    +0.000 NA
ATOM     13  C   UNL     1      -1.427  10.343  18.139  0.00  0.00    +0.000 C 
ATOM     14  C   UNL     1      -2.087  10.198  16.768  0.00  0.00    +0.000 C 
ATOM     15  C   UNL     1      -3.609  10.149  16.810  0.00  0.00    +0.000 C 
ATOM     16  C   UNL     1      -4.250  11.429  17.325  0.00  0.00    +0.000 C 
ATOM     17  C   UNL     1      -3.936  11.682  18.793  0.00  0.00    +0.000 C 
ATOM     18  C   UNL     1      -2.631  12.428  19.023  0.00  0.00    +0.000 C 
ENDBRANCH   9  12
ENDBRANCH   7   9
ENDBRANCH   1   3
BRANCH   1  19
ATOM     19  C   UNL     1       1.279   6.571  20.643  0.00  0.00    +0.000 C 
BRANCH  19  21
ATOM     20  N   UNL     1       2.601   6.220  18.586  0.00  0.00    +0.000 N 
ATOM     21  C   UNL     1       2.446   5.884  19.923  0.00  0.00    +0.000 C 
ATOM     22  O   UNL     1       3.120   5.052  20.530  0.00  0.00    +0.000 OA
ATOM     23  H   UNL     1       1.817   6.730  18.168  0.00  0.00    +0.000 HD
BRANCH  20  27
ATOM     24  C   UNL     1       5.700   4.922  15.936  0.00  0.00    +0.000 A 
ATOM     25  C   UNL     1       5.720   6.184  16.519  0.00  0.00    +0.000 A 
ATOM     26  C   UNL     1       4.693   6.596  17.373  0.00  0.00    +0.000 A 
ATOM     27  C   UNL     1       3.631   5.748  17.720  0.00  0.00    +0.000 A 
ATOM     28  C   UNL     1       3.640   4.455  17.149  0.00  0.00    +0.000 A 
ATOM     29  C   UNL     1       4.650   4.063  16.239  0.00  0.00    +0.000 A 
BRANCH  28  30
ATOM     30  N   UNL     1       2.684   3.410  17.551  0.00  0.00    +0.000 N 
ATOM     31  O   UNL     1       3.139   2.359  18.031  0.00  0.00    +0.000 OA
ATOM     32  O   UNL     1       1.476   3.626  17.381  0.00  0.00    +0.000 OA
ENDBRANCH  28  30
BRANCH  24  34
ATOM     33  C   UNL     1       6.477   4.060  13.861  0.00  0.00    +0.000 C 
ATOM     34  O   UNL     1       6.763   4.642  15.128  0.00  0.00    +0.000 OA
ENDBRANCH  24  34
ENDBRANCH  20  27
ENDBRANCH  19  21
ENDBRANCH   1  19
TORSDOF 8
ENDMDL
MODEL 3
REMARK VINA RESULT:      -8.0      3.130      9.499
REMARK  Name = 
REMARK  9 active torsions:
REMARK  status: ('A' for Active; 'I' for Inactive)
REMARK    1  A    between atoms: C_1  and  O_2
REMARK    2  A    between atoms: O_2  and  C_3
REMARK    3  A    between atoms: C_6  and  N_7
REMARK    4  A    between atoms: C_8  and  C_10
REMARK    5  A    between atoms: C_10  and  N_11
REMARK    6  A    between atoms: N_11  and  C_12
REMARK    7  A    between atoms: C_16  and  S_17
REMARK    8  A    between atoms: S_17  and  N_20
REMARK    9  A    between atoms: C_28  and  N_29
REMARK                            x       y       z     vdW  Elec       q    Type
REMARK                         _______ _______ _______ _____ _____    ______ ____
ROOT
ATOM      1  N   UNL     1       1.792   8.212  21.563  0.00  0.00    +0.000 N 
ATOM      2  H   UNL     1       2.169   8.001  22.489  0.00  0.00    +0.000 HD
ENDROOT
BRANCH   1   3
ATOM      3  C   UNL     1       0.828   9.227  21.675  0.00  0.00    +0.000 A 
ATOM      4  C   UNL     1       0.174   9.359  22.910  0.00  0.00    +0.000 A 
ATOM      5  C   UNL     1      -0.778  10.359  23.135  0.00  0.00    +0.000 A 
ATOM      6  C   UNL     1      -1.093  11.259  22.124  0.00  0.00    +0.000 A 
ATOM      7  C   UNL     1      -0.438  11.159  20.895  0.00  0.00    +0.000 A 
ATOM      8  C   UNL     1       0.510  10.147  20.667  0.00  0.00    +0.000 A 
BRANCH   7   9
ATOM      9  S   UNL     1      -0.923  12.254  19.560  0.00  0.00    +0.000 S 
ATOM     10  O   UNL     1      -1.040  11.441  18.369  0.00  0.00    +0.000 OA
ATOM     11  O   UNL     1      -2.037  13.039  20.036  0.00  0.00    +0.000 OA
BRANCH   9  12
ATOM     12  N   UNL     1       0.439  13.279  19.374  0.00  0.00    +0.000 NA
ATOM     13  C   UNL     1       0.979  13.886  20.611  0.00  0.00    +0.000 C 
ATOM     14  C   UNL     1       1.472  15.316  20.388  0.00  0.00    +0.000 C 
ATOM     15  C   UNL     1       2.882  15.410  19.818  0.00  0.00    +0.000 C 
ATOM     16  C   UNL     1       3.020  14.816  18.424  0.00  0.00    +0.000 C 
ATOM     17  C   UNL     1       2.812  13.308  18.416  0.00  0.00    +0.000 C 
ATOM     18  C   UNL     1       1.357  12.889  18.279  0.00  0.00    +0.000 C 
ENDBRANCH   9  12
ENDBRANCH   7   9
ENDBRANCH   1   3
BRANCH   1  19
ATOM     19  C   UNL     1       1.463   6.991  20.817  0.00  0.00    +0.000 C 
BRANCH  19  21
ATOM     20  N   UNL     1       3.103   5.582  19.622  0.00  0.00    +0.000 N 
ATOM     21  C   UNL     1       2.392   6.774  19.616  0.00  0.00    +0.000 C 
ATOM     22  O   UNL     1       2.503   7.664  18.774  0.00  0.00    +0.000 OA
ATOM     23  H   UNL     1       3.088   5.066  20.506  0.00  0.00    +0.000 HD
BRANCH  20  27
ATOM     24  C   UNL     1       5.835   4.356  16.566  0.00  0.00    +0.000 A 
ATOM     25  C   UNL     1       6.246   5.137  17.639  0.00  0.00    +0.000 A 
ATOM     26  C   UNL     1       5.337   5.538  18.623  0.00  0.00    +0.000 A 
ATOM     27  C   UNL     1       3.994   5.135  18.601  0.00  0.00    +0.000 A 
ATOM     28  C   UNL     1       3.596   4.312  17.523  0.00  0.00    +0.000 A 
ATOM     29  C   UNL     1       4.505   3.957  16.499  0.00  0.00    +0.000 A 
BRANCH  28  30
ATOM     30  N   UNL     1       2.267   3.683  17.461  0.00  0.00    +0.000 N 
ATOM     31  O   UNL     1       2.211   2.442  17.435  0.00  0.00    +0.000 OA
ATOM     32  O   UNL     1       1.272   4.420  17.428  0.00  0.00    +0.000 OA
ENDBRANCH  28  30
BRANCH  24  34
ATOM     33  C   UNL     1       6.645   4.451  14.332  0.00  0.00    +0.000 C 
ATOM     34  O   UNL     1       6.820   4.028  15.680  0.00  0.00    +0.000 OA
ENDBRANCH  24  34
ENDBRANCH  20  27
ENDBRANCH  19  21
ENDBRANCH   1  19
TORSDOF 8
ENDMDL
MODEL 4
REMARK VINA RESULT:      -7.9      3.081      9.589
REMARK  Name = 
REMARK  9 active torsions:
REMARK  status: ('A' for Active; 'I' for Inactive)
REMARK    1  A    between atoms: C_1  and  O_2
REMARK    2  A    between atoms: O_2  and  C_3
REMARK    3  A    between atoms: C_6  and  N_7
REMARK    4  A    between atoms: C_8  and  C_10
REMARK    5  A    between atoms: C_10  and  N_11
REMARK    6  A    between atoms: N_11  and  C_12
REMARK    7  A    between atoms: C_16  and  S_17
REMARK    8  A    between atoms: S_17  and  N_20
REMARK    9  A    between atoms: C_28  and  N_29
REMARK                            x       y       z     vdW  Elec       q    Type
REMARK                         _______ _______ _______ _____ _____    ______ ____
ROOT
ATOM      1  N   UNL     1       1.836   8.139  21.557  0.00  0.00    +0.000 N 
ATOM      2  H   UNL     1       2.198   7.941  22.492  0.00  0.00    +0.000 HD
ENDROOT
BRANCH   1   3
ATOM      3  C   UNL     1       0.852   9.138  21.643  0.00  0.00    +0.000 A 
ATOM      4  C   UNL     1       0.274   9.366  22.901  0.00  0.00    +0.000 A 
ATOM      5  C   UNL     1      -0.689  10.360  23.099  0.00  0.00    +0.000 A 
ATOM      6  C   UNL     1      -1.093  11.157  22.034  0.00  0.00    +0.000 A 
ATOM      7  C   UNL     1      -0.515  10.963  20.779  0.00  0.00    +0.000 A 
ATOM      8  C   UNL     1       0.446   9.956  20.580  0.00  0.00    +0.000 A 
BRANCH   7   9
ATOM      9  S   UNL     1      -1.114  11.921  19.387  0.00  0.00    +0.000 S 
ATOM     10  O   UNL     1      -0.953  11.099  18.207  0.00  0.00    +0.000 OA
ATOM     11  O   UNL     1      -2.408  12.445  19.756  0.00  0.00    +0.000 OA
BRANCH   9  12
ATOM     12  N   UNL     1       0.002  13.219  19.290  0.00  0.00    +0.000 NA
ATOM     13  C   UNL     1       1.130  13.048  18.347  0.00  0.00    +0.000 C 
ATOM     14  C   UNL     1       2.430  13.648  18.883  0.00  0.00    +0.000 C 
ATOM     15  C   UNL     1       2.567  15.148  18.653  0.00  0.00    +0.000 C 
ATOM     16  C   UNL     1       1.521  15.978  19.383  0.00  0.00    +0.000 C 
ATOM     17  C   UNL     1       0.117  15.738  18.847  0.00  0.00    +0.000 C 
ATOM     18  C   UNL     1      -0.595  14.560  19.494  0.00  0.00    +0.000 C 
ENDBRANCH   9  12
ENDBRANCH   7   9
ENDBRANCH   1   3
BRANCH   1  19
ATOM     19  C   UNL     1       1.543   6.907  20.815  0.00  0.00    +0.000 C 
BRANCH  19  21
ATOM     20  N   UNL     1       3.443   5.762  19.726  0.00  0.00    +0.000 N 
ATOM     21  C   UNL     1       2.457   6.731  19.596  0.00  0.00    +0.000 C 
ATOM     22  O   UNL     1       2.315   7.475  18.625  0.00  0.00    +0.000 OA
ATOM     23  H   UNL     1       3.586   5.408  20.675  0.00  0.00    +0.000 HD
BRANCH  20  27
ATOM     24  C   UNL     1       6.296   4.758  16.700  0.00  0.00    +0.000 A 
ATOM     25  C   UNL     1       6.552   5.748  17.642  0.00  0.00    +0.000 A 
ATOM     26  C   UNL     1       5.603   6.071  18.616  0.00  0.00    +0.000 A 
ATOM     27  C   UNL     1       4.383   5.387  18.722  0.00  0.00    +0.000 A 
ATOM     28  C   UNL     1       4.151   4.358  17.780  0.00  0.00    +0.000 A 
ATOM     29  C   UNL     1       5.088   4.074  16.759  0.00  0.00    +0.000 A 
BRANCH  28  30
ATOM     30  N   UNL     1       2.994   3.452  17.873  0.00  0.00    +0.000 N 
ATOM     31  O   UNL     1       2.222   3.394  16.902  0.00  0.00    +0.000 OA
ATOM     32  O   UNL     1       2.843   2.801  18.915  0.00  0.00    +0.000 OA
ENDBRANCH  28  30
BRANCH  24  34
ATOM     33  C   UNL     1       6.980   4.627  14.426  0.00  0.00    +0.000 C 
ATOM     34  O   UNL     1       7.306   4.536  15.808  0.00  0.00    +0.000 OA
ENDBRANCH  24  34
ENDBRANCH  20  27
ENDBRANCH  19  21
ENDBRANCH   1  19
TORSDOF 8
ENDMDL
MODEL 5
REMARK VINA RESULT:      -7.9      0.409      1.275
REMARK  Name = 
REMARK  9 active torsions:
REMARK  status: ('A' for Active; 'I' for Inactive)
REMARK    1  A    between atoms: C_1  and  O_2
REMARK    2  A    between atoms: O_2  and  C_3
REMARK    3  A    between atoms: C_6  and  N_7
REMARK    4  A    between atoms: C_8  and  C_10
REMARK    5  A    between atoms: C_10  and  N_11
REMARK    6  A    between atoms: N_11  and  C_12
REMARK    7  A    between atoms: C_16  and  S_17
REMARK    8  A    between atoms: S_17  and  N_20
REMARK    9  A    between atoms: C_28  and  N_29
REMARK                            x       y       z     vdW  Elec       q    Type
REMARK                         _______ _______ _______ _____ _____    ______ ____
ROOT
ATOM      1  N   UNL     1       2.208   9.107  18.348  0.00  0.00    +0.000 N 
ATOM      2  H   UNL     1       2.811   9.064  17.524  0.00  0.00    +0.000 HD
ENDROOT
BRANCH   1   3
ATOM      3  C   UNL     1       2.158   7.839  18.951  0.00  0.00    +0.000 A 
ATOM      4  C   UNL     1       1.721   7.778  20.284  0.00  0.00    +0.000 A 
ATOM      5  C   UNL     1       1.604   6.562  20.964  0.00  0.00    +0.000 A 
ATOM      6  C   UNL     1       1.917   5.371  20.318  0.00  0.00    +0.000 A 
ATOM      7  C   UNL     1       2.332   5.407  18.986  0.00  0.00    +0.000 A 
ATOM      8  C   UNL     1       2.460   6.632  18.307  0.00  0.00    +0.000 A 
BRANCH   7   9
ATOM      9  S   UNL     1       2.836   3.882  18.190  0.00  0.00    +0.000 S 
ATOM     10  O   UNL     1       2.952   2.881  19.230  0.00  0.00    +0.000 OA
ATOM     11  O   UNL     1       1.960   3.681  17.060  0.00  0.00    +0.000 OA
BRANCH   9  12
ATOM     12  N   UNL     1       4.412   4.237  17.614  0.00  0.00    +0.000 NA
ATOM     13  C   UNL     1       5.527   3.999  18.557  0.00  0.00    +0.000 C 
ATOM     14  C   UNL     1       6.627   5.054  18.433  0.00  0.00    +0.000 C 
ATOM     15  C   UNL     1       7.622   4.790  17.310  0.00  0.00    +0.000 C 
ATOM     16  C   UNL     1       7.003   4.827  15.921  0.00  0.00    +0.000 C 
ATOM     17  C   UNL     1       6.018   3.688  15.697  0.00  0.00    +0.000 C 
ATOM     18  C   UNL     1       4.604   3.998  16.164  0.00  0.00    +0.000 C 
ENDBRANCH   9  12
ENDBRANCH   7   9
ENDBRANCH   1   3
BRANCH   1  19
ATOM     19  C   UNL     1       0.954   9.817  18.069  0.00  0.00    +0.000 C 
BRANCH  19  21
ATOM     20  N   UNL     1      -0.629  10.629  19.784  0.00  0.00    +0.000 N 
ATOM     21  C   UNL     1       0.600  10.826  19.169  0.00  0.00    +0.000 C 
ATOM     22  O   UNL     1       1.367  11.761  19.396  0.00  0.00    +0.000 OA
ATOM     23  H   UNL     1      -1.251   9.964  19.317  0.00  0.00    +0.000 HD
BRANCH  20  27
ATOM     24  C   UNL     1      -2.200  13.062  22.933  0.00  0.00    +0.000 A 
ATOM     25  C   UNL     1      -2.423  13.368  21.596  0.00  0.00    +0.000 A 
ATOM     26  C   UNL     1      -1.892  12.568  20.580  0.00  0.00    +0.000 A 
ATOM     27  C   UNL     1      -1.160  11.405  20.857  0.00  0.00    +0.000 A 
ATOM     28  C   UNL     1      -0.971  11.084  22.220  0.00  0.00    +0.000 A 
ATOM     29  C   UNL     1      -1.459  11.928  23.246  0.00  0.00    +0.000 A 
BRANCH  28  30
ATOM     30  N   UNL     1      -0.368   9.813  22.655  0.00  0.00    +0.000 N 
ATOM     31  O   UNL     1      -0.826   8.761  22.180  0.00  0.00    +0.000 OA
ATOM     32  O   UNL     1       0.556   9.855  23.479  0.00  0.00    +0.000 OA
ENDBRANCH  28  30
BRANCH  24  34
ATOM     33  C   UNL     1      -3.945  14.611  23.395  0.00  0.00    +0.000 C 
ATOM     34  O   UNL     1      -2.778  13.919  23.826  0.00  0.00    +0.000 OA
ENDBRANCH  24  34
ENDBRANCH  20  27
ENDBRANCH  19  21
ENDBRANCH   1  19
TORSDOF 8
ENDMDL
MODEL 6
REMARK VINA RESULT:      -7.9      0.990      1.073
REMARK  Name = 
REMARK  9 active torsions:
REMARK  status: ('A' for Active; 'I' for Inactive)
REMARK    1  A    between atoms: C_1  and  O_2
REMARK    2  A    between atoms: O_2  and  C_3
REMARK    3  A    between atoms: C_6  and  N_7
REMARK    4  A    between atoms: C_8  and  C_10
REMARK    5  A    between atoms: C_10  and  N_11
REMARK    6  A    between atoms: N_11  and  C_12
REMARK    7  A    between atoms: C_16  and  S_17
REMARK    8  A    between atoms: S_17  and  N_20
REMARK    9  A    between atoms: C_28  and  N_29
REMARK                            x       y       z     vdW  Elec       q    Type
REMARK                         _______ _______ _______ _____ _____    ______ ____
ROOT
ATOM      1  N   UNL     1       2.294   8.821  18.620  0.00  0.00    +0.000 N 
ATOM      2  H   UNL     1       3.244   8.987  18.283  0.00  0.00    +0.000 HD
ENDROOT
BRANCH   1   3
ATOM      3  C   UNL     1       2.199   7.508  19.110  0.00  0.00    +0.000 A 
ATOM      4  C   UNL     1       1.696   7.342  20.410  0.00  0.00    +0.000 A 
ATOM      5  C   UNL     1       1.530   6.075  20.978  0.00  0.00    +0.000 A 
ATOM      6  C   UNL     1       1.860   4.938  20.249  0.00  0.00    +0.000 A 
ATOM      7  C   UNL     1       2.341   5.080  18.946  0.00  0.00    +0.000 A 
ATOM      8  C   UNL     1       2.517   6.355  18.381  0.00  0.00    +0.000 A 
BRANCH   7   9
ATOM      9  S   UNL     1       2.865   3.618  18.049  0.00  0.00    +0.000 S 
ATOM     10  O   UNL     1       2.854   2.518  18.989  0.00  0.00    +0.000 OA
ATOM     11  O   UNL     1       2.088   3.563  16.833  0.00  0.00    +0.000 OA
BRANCH   9  12
ATOM     12  N   UNL     1       4.497   3.963  17.649  0.00  0.00    +0.000 NA
ATOM     13  C   UNL     1       4.743   4.502  16.293  0.00  0.00    +0.000 C 
ATOM     14  C   UNL     1       6.041   3.971  15.684  0.00  0.00    +0.000 C 
ATOM     15  C   UNL     1       7.291   4.723  16.126  0.00  0.00    +0.000 C 
ATOM     16  C   UNL     1       7.581   4.610  17.615  0.00  0.00    +0.000 C 
ATOM     17  C   UNL     1       6.522   5.300  18.463  0.00  0.00    +0.000 C 
ATOM     18  C   UNL     1       5.325   4.421  18.789  0.00  0.00    +0.000 C 
ENDBRANCH   9  12
ENDBRANCH   7   9
ENDBRANCH   1   3
BRANCH   1  19
ATOM     19  C   UNL     1       1.287   9.304  17.667  0.00  0.00    +0.000 C 
BRANCH  19  21
ATOM     20  N   UNL     1       0.383  10.647  19.534  0.00  0.00    +0.000 N 
ATOM     21  C   UNL     1       0.087   9.955  18.369  0.00  0.00    +0.000 C 
ATOM     22  O   UNL     1      -1.042   9.781  17.912  0.00  0.00    +0.000 OA
ATOM     23  H   UNL     1       1.323  10.491  19.911  0.00  0.00    +0.000 HD
BRANCH  20  27
ATOM     24  C   UNL     1      -2.406  12.905  21.864  0.00  0.00    +0.000 A 
ATOM     25  C   UNL     1      -2.408  12.956  20.475  0.00  0.00    +0.000 A 
ATOM     26  C   UNL     1      -1.481  12.220  19.730  0.00  0.00    +0.000 A 
ATOM     27  C   UNL     1      -0.549  11.367  20.338  0.00  0.00    +0.000 A 
ATOM     28  C   UNL     1      -0.581  11.297  21.750  0.00  0.00    +0.000 A 
ATOM     29  C   UNL     1      -1.480  12.088  22.503  0.00  0.00    +0.000 A 
BRANCH  28  30
ATOM     30  N   UNL     1       0.223  10.325  22.509  0.00  0.00    +0.000 N 
ATOM     31  O   UNL     1      -0.303   9.774  23.489  0.00  0.00    +0.000 OA
ATOM     32  O   UNL     1       1.386  10.112  22.139  0.00  0.00    +0.000 OA
ENDBRANCH  28  30
BRANCH  24  34
ATOM     33  C   UNL     1      -4.713  13.230  22.340  0.00  0.00    +0.000 C 
ATOM     34  O   UNL     1      -3.364  13.665  22.471  0.00  0.00    +0.000 OA
ENDBRANCH  24  34
ENDBRANCH  20  27
ENDBRANCH  19  21
ENDBRANCH   1  19
TORSDOF 8
ENDMDL
MODEL 7
REMARK VINA RESULT:      -7.7      2.956     10.175
REMARK  Name = 
REMARK  9 active torsions:
REMARK  status: ('A' for Active; 'I' for Inactive)
REMARK    1  A    between atoms: C_1  and  O_2
REMARK    2  A    between atoms: O_2  and  C_3
REMARK    3  A    between atoms: C_6  and  N_7
REMARK    4  A    between atoms: C_8  and  C_10
REMARK    5  A    between atoms: C_10  and  N_11
REMARK    6  A    between atoms: N_11  and  C_12
REMARK    7  A    between atoms: C_16  and  S_17
REMARK    8  A    between atoms: S_17  and  N_20
REMARK    9  A    between atoms: C_28  and  N_29
REMARK                            x       y       z     vdW  Elec       q    Type
REMARK                         _______ _______ _______ _____ _____    ______ ____
ROOT
ATOM      1  N   UNL     1       1.859   8.195  21.424  0.00  0.00    +0.000 N 
ATOM      2  H   UNL     1       2.264   7.946  22.328  0.00  0.00    +0.000 HD
ENDROOT
BRANCH   1   3
ATOM      3  C   UNL     1       0.883   9.189  21.610  0.00  0.00    +0.000 A 
ATOM      4  C   UNL     1       0.266   9.256  22.869  0.00  0.00    +0.000 A 
ATOM      5  C   UNL     1      -0.693  10.229  23.167  0.00  0.00    +0.000 A 
ATOM      6  C   UNL     1      -1.053  11.167  22.207  0.00  0.00    +0.000 A 
ATOM      7  C   UNL     1      -0.436  11.132  20.955  0.00  0.00    +0.000 A 
ATOM      8  C   UNL     1       0.521  10.146  20.654  0.00  0.00    +0.000 A 
BRANCH   7   9
ATOM      9  S   UNL     1      -0.978  12.276  19.686  0.00  0.00    +0.000 S 
ATOM     10  O   UNL     1      -0.612  13.604  20.129  0.00  0.00    +0.000 OA
ATOM     11  O   UNL     1      -0.511  11.761  18.420  0.00  0.00    +0.000 OA
BRANCH   9  12
ATOM     12  N   UNL     1      -2.687  12.147  19.740  0.00  0.00    +0.000 NA
ATOM     13  C   UNL     1      -3.406  13.221  20.463  0.00  0.00    +0.000 C 
ATOM     14  C   UNL     1      -4.616  12.692  21.233  0.00  0.00    +0.000 C 
ATOM     15  C   UNL     1      -5.872  12.527  20.386  0.00  0.00    +0.000 C 
ATOM     16  C   UNL     1      -5.735  11.491  19.281  0.00  0.00    +0.000 C 
ATOM     17  C   UNL     1      -4.731  11.912  18.216  0.00  0.00    +0.000 C 
ATOM     18  C   UNL     1      -3.295  11.528  18.539  0.00  0.00    +0.000 C 
ENDBRANCH   9  12
ENDBRANCH   7   9
ENDBRANCH   1   3
BRANCH   1  19
ATOM     19  C   UNL     1       1.526   7.006  20.630  0.00  0.00    +0.000 C 
BRANCH  19  21
ATOM     20  N   UNL     1       3.233   5.888  19.236  0.00  0.00    +0.000 N 
ATOM     21  C   UNL     1       2.326   6.935  19.323  0.00  0.00    +0.000 C 
ATOM     22  O   UNL     1       2.175   7.816  18.478  0.00  0.00    +0.000 OA
ATOM     23  H   UNL     1       3.417   5.394  20.114  0.00  0.00    +0.000 HD
BRANCH  20  27
ATOM     24  C   UNL     1       5.661   5.092  15.805  0.00  0.00    +0.000 A 
ATOM     25  C   UNL     1       5.421   6.389  16.242  0.00  0.00    +0.000 A 
ATOM     26  C   UNL     1       4.615   6.631  17.359  0.00  0.00    +0.000 A 
ATOM     27  C   UNL     1       4.058   5.588  18.113  0.00  0.00    +0.000 A 
ATOM     28  C   UNL     1       4.339   4.273  17.679  0.00  0.00    +0.000 A 
ATOM     29  C   UNL     1       5.106   4.033  16.514  0.00  0.00    +0.000 A 
BRANCH  28  30
ATOM     30  N   UNL     1       3.960   3.086  18.464  0.00  0.00    +0.000 N 
ATOM     31  O   UNL     1       4.415   2.981  19.614  0.00  0.00    +0.000 OA
ATOM     32  O   UNL     1       3.215   2.249  17.936  0.00  0.00    +0.000 OA
ENDBRANCH  28  30
BRANCH  24  34
ATOM     33  C   UNL     1       6.187   3.941  13.791  0.00  0.00    +0.000 C 
ATOM     34  O   UNL     1       6.468   4.993  14.708  0.00  0.00    +0.000 OA
ENDBRANCH  24  34
ENDBRANCH  20  27
ENDBRANCH  19  21
ENDBRANCH   1  19
TORSDOF 8
ENDMDL
MODEL 8
REMARK VINA RESULT:      -7.7      6.764     11.093
REMARK  Name = 
REMARK  9 active torsions:
REMARK  status: ('A' for Active; 'I' for Inactive)
REMARK    1  A    between atoms: C_1  and  O_2
REMARK    2  A    between atoms: O_2  and  C_3
REMARK    3  A    between atoms: C_6  and  N_7
REMARK    4  A    between atoms: C_8  and  C_10
REMARK    5  A    between atoms: C_10  and  N_11
REMARK    6  A    between atoms: N_11  and  C_12
REMARK    7  A    between atoms: C_16  and  S_17
REMARK    8  A    between atoms: S_17  and  N_20
REMARK    9  A    between atoms: C_28  and  N_29
REMARK                            x       y       z     vdW  Elec       q    Type
REMARK                         _______ _______ _______ _____ _____    ______ ____
ROOT
ATOM      1  N   UNL     1       8.993   9.399  18.959  0.00  0.00    +0.000 N 
ATOM      2  H   UNL     1       8.414   9.202  19.778  0.00  0.00    +0.000 HD
ENDROOT
BRANCH   1   3
ATOM      3  C   UNL     1       9.457  10.723  19.027  0.00  0.00    +0.000 A 
ATOM      4  C   UNL     1      10.234  11.188  17.955  0.00  0.00    +0.000 A 
ATOM      5  C   UNL     1      10.715  12.500  17.910  0.00  0.00    +0.000 A 
ATOM      6  C   UNL     1      10.421  13.384  18.942  0.00  0.00    +0.000 A 
ATOM      7  C   UNL     1       9.631  12.949  20.007  0.00  0.00    +0.000 A 
ATOM      8  C   UNL     1       9.157  11.626  20.055  0.00  0.00    +0.000 A 
BRANCH   7   9
ATOM      9  S   UNL     1       9.342  14.059  21.385  0.00  0.00    +0.000 S 
ATOM     10  O   UNL     1       8.597  13.314  22.378  0.00  0.00    +0.000 OA
ATOM     11  O   UNL     1      10.608  14.671  21.712  0.00  0.00    +0.000 OA
BRANCH   9  12
ATOM     12  N   UNL     1       8.303  15.252  20.723  0.00  0.00    +0.000 NA
ATOM     13  C   UNL     1       7.143  14.758  19.949  0.00  0.00    +0.000 C 
ATOM     14  C   UNL     1       6.832  15.643  18.741  0.00  0.00    +0.000 C 
ATOM     15  C   UNL     1       5.993  16.872  19.067  0.00  0.00    +0.000 C 
ATOM     16  C   UNL     1       6.683  17.856  20.000  0.00  0.00    +0.000 C 
ATOM     17  C   UNL     1       6.893  17.281  21.394  0.00  0.00    +0.000 C 
ATOM     18  C   UNL     1       8.178  16.481  21.541  0.00  0.00    +0.000 C 
ENDBRANCH   9  12
ENDBRANCH   7   9
ENDBRANCH   1   3
BRANCH   1  19
ATOM     19  C   UNL     1       8.364   8.923  17.721  0.00  0.00    +0.000 C 
BRANCH  19  21
ATOM     20  N   UNL     1       6.420   7.496  17.184  0.00  0.00    +0.000 N 
ATOM     21  C   UNL     1       7.586   7.618  17.928  0.00  0.00    +0.000 C 
ATOM     22  O   UNL     1       7.986   6.804  18.760  0.00  0.00    +0.000 OA
ATOM     23  H   UNL     1       6.097   8.356  16.731  0.00  0.00    +0.000 HD
BRANCH  20  27
ATOM     24  C   UNL     1       3.759   4.147  17.256  0.00  0.00    +0.000 A 
ATOM     25  C   UNL     1       3.345   5.414  17.647  0.00  0.00    +0.000 A 
ATOM     26  C   UNL     1       4.231   6.495  17.629  0.00  0.00    +0.000 A 
ATOM     27  C   UNL     1       5.551   6.366  17.172  0.00  0.00    +0.000 A 
ATOM     28  C   UNL     1       5.949   5.079  16.743  0.00  0.00    +0.000 A 
ATOM     29  C   UNL     1       5.067   3.975  16.819  0.00  0.00    +0.000 A 
BRANCH  28  30
ATOM     30  N   UNL     1       7.245   4.833  16.089  0.00  0.00    +0.000 N 
ATOM     31  O   UNL     1       7.428   5.319  14.961  0.00  0.00    +0.000 OA
ATOM     32  O   UNL     1       8.083   4.147  16.690  0.00  0.00    +0.000 OA
ENDBRANCH  28  30
BRANCH  24  34
ATOM     33  C   UNL     1       1.704   3.409  18.199  0.00  0.00    +0.000 C 
ATOM     34  O   UNL     1       2.796   3.181  17.315  0.00  0.00    +0.000 OA
ENDBRANCH  24  34
ENDBRANCH  20  27
ENDBRANCH  19  21
ENDBRANCH   1  19
TORSDOF 8
ENDMDL
MODEL 9
REMARK VINA RESULT:      -7.7      2.461      3.239
REMARK  Name = 
REMARK  9 active torsions:
REMARK  status: ('A' for Active; 'I' for Inactive)
REMARK    1  A    between atoms: C_1  and  O_2
REMARK    2  A    between atoms: O_2  and  C_3
REMARK    3  A    between atoms: C_6  and  N_7
REMARK    4  A    between atoms: C_8  and  C_10
REMARK    5  A    between atoms: C_10  and  N_11
REMARK    6  A    between atoms: N_11  and  C_12
REMARK    7  A    between atoms: C_16  and  S_17
REMARK    8  A    between atoms: S_17  and  N_20
REMARK    9  A    between atoms: C_28  and  N_29
REMARK                            x       y       z     vdW  Elec       q    Type
REMARK                         _______ _______ _______ _____ _____    ______ ____
ROOT
ATOM      1  N   UNL     1       2.072   8.444  18.562  0.00  0.00    +0.000 N 
ATOM      2  H   UNL     1       1.531   8.450  17.696  0.00  0.00    +0.000 HD
ENDROOT
BRANCH   1   3
ATOM      3  C   UNL     1       2.119   7.136  19.071  0.00  0.00    +0.000 A 
ATOM      4  C   UNL     1       1.731   6.951  20.407  0.00  0.00    +0.000 A 
ATOM      5  C   UNL     1       1.710   5.683  20.998  0.00  0.00    +0.000 A 
ATOM      6  C   UNL     1       2.074   4.565  20.257  0.00  0.00    +0.000 A 
ATOM      7  C   UNL     1       2.443   4.724  18.920  0.00  0.00    +0.000 A 
ATOM      8  C   UNL     1       2.473   6.000  18.331  0.00  0.00    +0.000 A 
BRANCH   7   9
ATOM      9  S   UNL     1       3.013   3.295  17.999  0.00  0.00    +0.000 S 
ATOM     10  O   UNL     1       3.104   2.196  18.937  0.00  0.00    +0.000 OA
ATOM     11  O   UNL     1       2.192   3.195  16.816  0.00  0.00    +0.000 OA
BRANCH   9  12
ATOM     12  N   UNL     1       4.605   3.732  17.534  0.00  0.00    +0.000 NA
ATOM     13  C   UNL     1       4.764   4.286  16.172  0.00  0.00    +0.000 C 
ATOM     14  C   UNL     1       6.064   3.832  15.508  0.00  0.00    +0.000 C 
ATOM     15  C   UNL     1       7.286   4.653  15.901  0.00  0.00    +0.000 C 
ATOM     16  C   UNL     1       7.643   4.554  17.377  0.00  0.00    +0.000 C 
ATOM     17  C   UNL     1       6.582   5.182  18.270  0.00  0.00    +0.000 C 
ATOM     18  C   UNL     1       5.452   4.235  18.642  0.00  0.00    +0.000 C 
ENDBRANCH   9  12
ENDBRANCH   7   9
ENDBRANCH   1   3
BRANCH   1  19
ATOM     19  C   UNL     1       1.684   9.545  19.453  0.00  0.00    +0.000 C 
BRANCH  19  21
ATOM     20  N   UNL     1      -0.311  10.409  18.280  0.00  0.00    +0.000 N 
ATOM     21  C   UNL     1       0.173   9.806  19.432  0.00  0.00    +0.000 C 
ATOM     22  O   UNL     1      -0.498   9.535  20.428  0.00  0.00    +0.000 OA
ATOM     23  H   UNL     1       0.402  10.794  17.654  0.00  0.00    +0.000 HD
BRANCH  20  27
ATOM     24  C   UNL     1      -4.389  11.297  17.337  0.00  0.00    +0.000 A 
ATOM     25  C   UNL     1      -3.709  10.255  16.719  0.00  0.00    +0.000 A 
ATOM     26  C   UNL     1      -2.373   9.987  17.031  0.00  0.00    +0.000 A 
ATOM     27  C   UNL     1      -1.677  10.714  18.007  0.00  0.00    +0.000 A 
ATOM     28  C   UNL     1      -2.391  11.749  18.655  0.00  0.00    +0.000 A 
ATOM     29  C   UNL     1      -3.724  12.055  18.294  0.00  0.00    +0.000 A 
BRANCH  28  30
ATOM     30  N   UNL     1      -1.843  12.481  19.808  0.00  0.00    +0.000 N 
ATOM     31  O   UNL     1      -0.847  13.199  19.621  0.00  0.00    +0.000 OA
ATOM     32  O   UNL     1      -2.396  12.338  20.908  0.00  0.00    +0.000 OA
ENDBRANCH  28  30
BRANCH  24  34
ATOM     33  C   UNL     1      -6.540  12.194  17.813  0.00  0.00    +0.000 C 
ATOM     34  O   UNL     1      -5.689  11.450  16.948  0.00  0.00    +0.000 OA
ENDBRANCH  24  34
ENDBRANCH  20  27
ENDBRANCH  19  21
ENDBRANCH   1  19
TORSDOF 8
ENDMDL
