MODEL 1
REMARK VINA RESULT:      -8.4      0.000      0.000
REMARK  Name = 
REMARK  7 active torsions:
REMARK  status: ('A' for Active; 'I' for Inactive)
REMARK    1  A    between atoms: C_2  and  C_12
REMARK    2  A    between atoms: N_3  and  C_4
REMARK    3  A    between atoms: C_4  and  C_5
REMARK    4  A    between atoms: C_15  and  C_16
REMARK    5  A    between atoms: C_16  and  O_18
REMARK    6  A    between atoms: C_19  and  N_20
REMARK    7  A    between atoms: C_21  and  C_23
REMARK                            x       y       z     vdW  Elec       q    Type
REMARK                         _______ _______ _______ _____ _____    ______ ____
ROOT
ATOM      1  C   UNL     1       4.962   4.539  18.345  0.00  0.00    +0.000 A 
ATOM      2  C   UNL     1       4.529   3.249  18.662  0.00  0.00    +0.000 A 
ATOM      3  C   UNL     1       3.469   3.072  19.553  0.00  0.00    +0.000 A 
ATOM      4  C   UNL     1       2.829   4.178  20.139  0.00  0.00    +0.000 A 
ATOM      5  C   UNL     1       3.290   5.483  19.875  0.00  0.00    +0.000 A 
ATOM      6  C   UNL     1       4.371   5.649  18.986  0.00  0.00    +0.000 A 
ENDROOT
BRANCH   1   8
ATOM      7  O   UNL     1       7.190   4.381  17.598  0.00  0.00    +0.000 OA
ATOM      8  C   UNL     1       6.053   4.757  17.346  0.00  0.00    +0.000 C 
ATOM      9  N   UNL     1       5.711   5.417  16.175  0.00  0.00    +0.000 N 
ATOM     10  H   UNL     1       4.858   5.962  16.150  0.00  0.00    +0.000 HD
BRANCH   9  11
ATOM     11  C   UNL     1       6.720   5.738  15.184  0.00  0.00    +0.000 C 
BRANCH  11  12
ATOM     12  C   UNL     1       6.675   4.809  13.993  0.00  0.00    +0.000 A 
ATOM     13  C   UNL     1       7.575   4.962  12.927  0.00  0.00    +0.000 A 
ATOM     14  C   UNL     1       7.565   4.072  11.846  0.00  0.00    +0.000 A 
ATOM     15  C   UNL     1       6.653   3.018  11.826  0.00  0.00    +0.000 A 
ATOM     16 CL   UNL     1       6.639   1.923  10.501  0.00  0.00    +0.000 Cl
ATOM     17  C   UNL     1       5.756   2.844  12.878  0.00  0.00    +0.000 A 
ATOM     18  C   UNL     1       5.770   3.737  13.961  0.00  0.00    +0.000 A 
ENDBRANCH  11  12
ENDBRANCH   9  11
ENDBRANCH   1   8
BRANCH   5  19
ATOM     19  N   UNL     1       2.621   6.625  20.396  0.00  0.00    +0.000 N 
ATOM     20  C   UNL     1       2.043   7.626  19.604  0.00  0.00    +0.000 C 
ATOM     21  O   UNL     1       2.228   7.641  18.392  0.00  0.00    +0.000 OA
ATOM     22  H   UNL     1       2.725   6.831  21.385  0.00  0.00    +0.000 HD
BRANCH  20  23
ATOM     23  C   UNL     1       1.289   8.661  20.319  0.00  0.00    +0.000 A 
ATOM     24  S   UNL     1       0.914   8.486  21.981  0.00  0.00    +0.000 S 
ATOM     25  C   UNL     1      -0.098   9.873  22.006  0.00  0.00    +0.000 A 
ATOM     26  C   UNL     1      -0.853  10.340  23.101  0.00  0.00    +0.000 A 
ATOM     27  C   UNL     1      -1.691  11.444  22.927  0.00  0.00    +0.000 A 
ATOM     28  C   UNL     1      -1.754  12.089  21.705  0.00  0.00    +0.000 A 
ATOM     29  C   UNL     1      -0.961  11.659  20.636  0.00  0.00    +0.000 A 
ATOM     30  C   UNL     1      -0.113  10.518  20.769  0.00  0.00    +0.000 A 
ATOM     31  C   UNL     1       0.777   9.861  19.839  0.00  0.00    +0.000 A 
ATOM     32 CL   UNL     1       1.071  10.522  18.278  0.00  0.00    +0.000 Cl
ENDBRANCH  20  23
ENDBRANCH   5  19
BRANCH   4  33
ATOM     33  C   UNL     1       1.707   3.860  21.054  0.00  0.00    +0.000 C 
ATOM     34  O   UNL     1       1.871   3.314  22.130  0.00  0.00    +0.000 OA
BRANCH  33  35
ATOM     35  O   UNL     1       0.501   4.265  20.605  0.00  0.00    +0.000 OA
ATOM     36  H   UNL     1       0.015   4.840  21.229  0.00  0.00    +0.000 HD
ENDBRANCH  33  35
ENDBRANCH   4  33
TORSDOF 7
ENDMDL
MODEL 2
REMARK VINA RESULT:      -8.2      3.966      5.668
REMARK  Name = 
REMARK  7 active torsions:
REMARK  status: ('A' for Active; 'I' for Inactive)
REMARK    1  A    between atoms: C_2  and  C_12
REMARK    2  A    between atoms: N_3  and  C_4
REMARK    3  A    between atoms: C_4  and  C_5
REMARK    4  A    between atoms: C_15  and  C_16
REMARK    5  A    between atoms: C_16  and  O_18
REMARK    6  A    between atoms: C_19  and  N_20
REMARK    7  A    between atoms: C_21  and  C_23
REMARK                            x       y       z     vdW  Elec       q    Type
REMARK                         _______ _______ _______ _____ _____    ______ ____
ROOT
ATOM      1  C   UNL     1       5.558   6.463  17.379  0.00  0.00    +0.000 A 
ATOM      2  C   UNL     1       5.207   5.168  16.990  0.00  0.00    +0.000 A 
ATOM      3  C   UNL     1       3.932   4.678  17.280  0.00  0.00    +0.000 A 
ATOM      4  C   UNL     1       2.994   5.472  17.961  0.00  0.00    +0.000 A 
ATOM      5  C   UNL     1       3.350   6.759  18.411  0.00  0.00    +0.000 A 
ATOM      6  C   UNL     1       4.645   7.237  18.127  0.00  0.00    +0.000 A 
ENDROOT
BRANCH   1   8
ATOM      7  O   UNL     1       7.624   6.433  16.249  0.00  0.00    +0.000 OA
ATOM      8  C   UNL     1       6.894   7.033  17.025  0.00  0.00    +0.000 C 
ATOM      9  N   UNL     1       7.251   8.226  17.638  0.00  0.00    +0.000 N 
ATOM     10  H   UNL     1       6.763   8.512  18.477  0.00  0.00    +0.000 HD
BRANCH   9  11
ATOM     11  C   UNL     1       8.559   8.811  17.413  0.00  0.00    +0.000 C 
BRANCH  11  12
ATOM     12  C   UNL     1       8.803  10.026  18.278  0.00  0.00    +0.000 A 
ATOM     13  C   UNL     1       9.207   9.887  19.615  0.00  0.00    +0.000 A 
ATOM     14  C   UNL     1       9.479  11.012  20.403  0.00  0.00    +0.000 A 
ATOM     15  C   UNL     1       9.352  12.287  19.855  0.00  0.00    +0.000 A 
ATOM     16 CL   UNL     1       9.688  13.670  20.820  0.00  0.00    +0.000 Cl
ATOM     17  C   UNL     1       8.960  12.447  18.528  0.00  0.00    +0.000 A 
ATOM     18  C   UNL     1       8.689  11.317  17.740  0.00  0.00    +0.000 A 
ENDBRANCH  11  12
ENDBRANCH   9  11
ENDBRANCH   1   8
BRANCH   5  19
ATOM     19  N   UNL     1       2.403   7.613  19.041  0.00  0.00    +0.000 N 
ATOM     20  C   UNL     1       1.867   8.763  18.447  0.00  0.00    +0.000 C 
ATOM     21  O   UNL     1       2.319   9.183  17.388  0.00  0.00    +0.000 OA
ATOM     22  H   UNL     1       2.242   7.498  20.037  0.00  0.00    +0.000 HD
BRANCH  20  23
ATOM     23  C   UNL     1       0.811   9.447  19.201  0.00  0.00    +0.000 A 
ATOM     24  S   UNL     1      -0.365  10.401  18.400  0.00  0.00    +0.000 S 
ATOM     25  C   UNL     1      -1.032  10.997  19.865  0.00  0.00    +0.000 A 
ATOM     26  C   UNL     1      -2.065  11.948  19.990  0.00  0.00    +0.000 A 
ATOM     27  C   UNL     1      -2.436  12.385  21.264  0.00  0.00    +0.000 A 
ATOM     28  C   UNL     1      -1.818  11.868  22.388  0.00  0.00    +0.000 A 
ATOM     29  C   UNL     1      -0.833  10.883  22.265  0.00  0.00    +0.000 A 
ATOM     30  C   UNL     1      -0.410  10.431  20.978  0.00  0.00    +0.000 A 
ATOM     31  C   UNL     1       0.581   9.460  20.572  0.00  0.00    +0.000 A 
ATOM     32 CL   UNL     1       1.408   8.498  21.735  0.00  0.00    +0.000 Cl
ENDBRANCH  20  23
ENDBRANCH   5  19
BRANCH   4  33
ATOM     33  C   UNL     1       1.670   4.844  18.194  0.00  0.00    +0.000 C 
ATOM     34  O   UNL     1       0.985   4.401  17.291  0.00  0.00    +0.000 OA
BRANCH  33  35
ATOM     35  O   UNL     1       1.319   4.774  19.495  0.00  0.00    +0.000 OA
ATOM     36  H   UNL     1       0.446   5.169  19.695  0.00  0.00    +0.000 HD
ENDBRANCH  33  35
ENDBRANCH   4  33
TORSDOF 7
ENDMDL
MODEL 3
REMARK VINA RESULT:      -8.0      4.121      6.892
REMARK  Name = 
REMARK  7 active torsions:
REMARK  status: ('A' for Active; 'I' for Inactive)
REMARK    1  A    between atoms: C_2  and  C_12
REMARK    2  A    between atoms: N_3  and  C_4
REMARK    3  A    between atoms: C_4  and  C_5
REMARK    4  A    between atoms: C_15  and  C_16
REMARK    5  A    between atoms: C_16  and  O_18
REMARK    6  A    between atoms: C_19  and  N_20
REMARK    7  A    between atoms: C_21  and  C_23
REMARK                            x       y       z     vdW  Elec       q    Type
REMARK                         _______ _______ _______ _____ _____    ______ ____
ROOT
ATOM      1  C   UNL     1       1.179   9.651  19.508  0.00  0.00    +0.000 A 
ATOM      2  C   UNL     1       1.982  10.453  18.694  0.00  0.00    +0.000 A 
ATOM      3  C   UNL     1       1.613  11.777  18.443  0.00  0.00    +0.000 A 
ATOM      4  C   UNL     1       0.440  12.314  19.000  0.00  0.00    +0.000 A 
ATOM      5  C   UNL     1      -0.411  11.503  19.776  0.00  0.00    +0.000 A 
ATOM      6  C   UNL     1      -0.037  10.165  20.009  0.00  0.00    +0.000 A 
ENDROOT
BRANCH   1   8
ATOM      7  O   UNL     1       1.266   7.769  20.920  0.00  0.00    +0.000 OA
ATOM      8  C   UNL     1       1.584   8.251  19.843  0.00  0.00    +0.000 C 
ATOM      9  N   UNL     1       2.344   7.574  18.899  0.00  0.00    +0.000 N 
ATOM     10  H   UNL     1       2.825   8.105  18.184  0.00  0.00    +0.000 HD
BRANCH   9  11
ATOM     11  C   UNL     1       2.845   6.240  19.171  0.00  0.00    +0.000 C 
BRANCH  11  12
ATOM     12  C   UNL     1       3.630   5.672  18.012  0.00  0.00    +0.000 A 
ATOM     13  C   UNL     1       4.500   6.483  17.266  0.00  0.00    +0.000 A 
ATOM     14  C   UNL     1       5.263   5.946  16.222  0.00  0.00    +0.000 A 
ATOM     15  C   UNL     1       5.162   4.589  15.919  0.00  0.00    +0.000 A 
ATOM     16 CL   UNL     1       6.100   3.927  14.638  0.00  0.00    +0.000 Cl
ATOM     17  C   UNL     1       4.311   3.766  16.651  0.00  0.00    +0.000 A 
ATOM     18  C   UNL     1       3.548   4.306  17.698  0.00  0.00    +0.000 A 
ENDBRANCH  11  12
ENDBRANCH   9  11
ENDBRANCH   1   8
BRANCH   5  19
ATOM     19  N   UNL     1      -1.568  12.035  20.410  0.00  0.00    +0.000 N 
ATOM     20  C   UNL     1      -2.834  12.091  19.812  0.00  0.00    +0.000 C 
ATOM     21  O   UNL     1      -2.972  11.816  18.626  0.00  0.00    +0.000 OA
ATOM     22  H   UNL     1      -1.442  12.573  21.261  0.00  0.00    +0.000 HD
BRANCH  20  23
ATOM     23  C   UNL     1      -3.931  12.559  20.666  0.00  0.00    +0.000 A 
ATOM     24  S   UNL     1      -3.622  13.530  22.042  0.00  0.00    +0.000 S 
ATOM     25  C   UNL     1      -5.248  13.458  22.589  0.00  0.00    +0.000 A 
ATOM     26  C   UNL     1      -5.757  14.013  23.780  0.00  0.00    +0.000 A 
ATOM     27  C   UNL     1      -7.095  13.793  24.115  0.00  0.00    +0.000 A 
ATOM     28  C   UNL     1      -7.916  13.066  23.272  0.00  0.00    +0.000 A 
ATOM     29  C   UNL     1      -7.424  12.565  22.062  0.00  0.00    +0.000 A 
ATOM     30  C   UNL     1      -6.055  12.748  21.700  0.00  0.00    +0.000 A 
ATOM     31  C   UNL     1      -5.296  12.326  20.545  0.00  0.00    +0.000 A 
ATOM     32 CL   UNL     1      -6.065  11.553  19.214  0.00  0.00    +0.000 Cl
ENDBRANCH  20  23
ENDBRANCH   5  19
BRANCH   4  33
ATOM     33  C   UNL     1       0.167  13.735  18.672  0.00  0.00    +0.000 C 
ATOM     34  O   UNL     1       0.856  14.649  19.088  0.00  0.00    +0.000 OA
BRANCH  33  35
ATOM     35  O   UNL     1      -0.882  13.914  17.844  0.00  0.00    +0.000 OA
ATOM     36  H   UNL     1      -1.734  14.059  18.304  0.00  0.00    +0.000 HD
ENDBRANCH  33  35
ENDBRANCH   4  33
TORSDOF 7
ENDMDL
MODEL 4
REMARK VINA RESULT:      -8.0      3.915      5.579
REMARK  Name = 
REMARK  7 active torsions:
REMARK  status: ('A' for Active; 'I' for Inactive)
REMARK    1  A    between atoms: C_2  and  C_12
REMARK    2  A    between atoms: N_3  and  C_4
REMARK    3  A    between atoms: C_4  and  C_5
REMARK    4  A    between atoms: C_15  and  C_16
REMARK    5  A    between atoms: C_16  and  O_18
REMARK    6  A    between atoms: C_19  and  N_20
REMARK    7  A    between atoms: C_21  and  C_23
REMARK                            x       y       z     vdW  Elec       q    Type
REMARK                         _______ _______ _______ _____ _____    ______ ____
ROOT
ATOM      1  C   UNL     1       5.534   6.431  17.378  0.00  0.00    +0.000 A 
ATOM      2  C   UNL     1       5.203   5.112  17.058  0.00  0.00    +0.000 A 
ATOM      3  C   UNL     1       3.943   4.611  17.395  0.00  0.00    +0.000 A 
ATOM      4  C   UNL     1       3.001   5.419  18.055  0.00  0.00    +0.000 A 
ATOM      5  C   UNL     1       3.339   6.732  18.436  0.00  0.00    +0.000 A 
ATOM      6  C   UNL     1       4.618   7.221  18.106  0.00  0.00    +0.000 A 
ENDROOT
BRANCH   1   8
ATOM      7  O   UNL     1       7.549   6.420  16.160  0.00  0.00    +0.000 OA
ATOM      8  C   UNL     1       6.852   7.010  16.973  0.00  0.00    +0.000 C 
ATOM      9  N   UNL     1       7.230   8.198  17.582  0.00  0.00    +0.000 N 
ATOM     10  H   UNL     1       6.777   8.474  18.444  0.00  0.00    +0.000 HD
BRANCH   9  11
ATOM     11  C   UNL     1       8.525   8.791  17.306  0.00  0.00    +0.000 C 
BRANCH  11  12
ATOM     12  C   UNL     1       8.810   9.986  18.186  0.00  0.00    +0.000 A 
ATOM     13  C   UNL     1       8.662  11.292  17.696  0.00  0.00    +0.000 A 
ATOM     14  C   UNL     1       8.880  12.399  18.525  0.00  0.00    +0.000 A 
ATOM     15  C   UNL     1       9.247  12.205  19.856  0.00  0.00    +0.000 A 
ATOM     16 CL   UNL     1       9.514  13.563  20.876  0.00  0.00    +0.000 Cl
ATOM     17  C   UNL     1       9.393  10.917  20.364  0.00  0.00    +0.000 A 
ATOM     18  C   UNL     1       9.171   9.809  19.531  0.00  0.00    +0.000 A 
ENDBRANCH  11  12
ENDBRANCH   9  11
ENDBRANCH   1   8
BRANCH   5  19
ATOM     19  N   UNL     1       2.385   7.596  19.043  0.00  0.00    +0.000 N 
ATOM     20  C   UNL     1       1.896   8.766  18.446  0.00  0.00    +0.000 C 
ATOM     21  O   UNL     1       2.396   9.191  17.412  0.00  0.00    +0.000 OA
ATOM     22  H   UNL     1       2.184   7.470  20.030  0.00  0.00    +0.000 HD
BRANCH  20  23
ATOM     23  C   UNL     1       0.825   9.460  19.170  0.00  0.00    +0.000 A 
ATOM     24  S   UNL     1      -0.375  10.346  18.328  0.00  0.00    +0.000 S 
ATOM     25  C   UNL     1      -1.052  10.997  19.765  0.00  0.00    +0.000 A 
ATOM     26  C   UNL     1      -2.108  11.927  19.847  0.00  0.00    +0.000 A 
ATOM     27  C   UNL     1      -2.486  12.417  21.100  0.00  0.00    +0.000 A 
ATOM     28  C   UNL     1      -1.854  11.970  22.245  0.00  0.00    +0.000 A 
ATOM     29  C   UNL     1      -0.845  11.003  22.167  0.00  0.00    +0.000 A 
ATOM     30  C   UNL     1      -0.415  10.500  20.901  0.00  0.00    +0.000 A 
ATOM     31  C   UNL     1       0.598   9.534  20.539  0.00  0.00    +0.000 A 
ATOM     32 CL   UNL     1       1.450   8.649  21.745  0.00  0.00    +0.000 Cl
ENDBRANCH  20  23
ENDBRANCH   5  19
BRANCH   4  33
ATOM     33  C   UNL     1       1.695   4.776  18.342  0.00  0.00    +0.000 C 
ATOM     34  O   UNL     1       1.242   4.685  19.468  0.00  0.00    +0.000 OA
BRANCH  33  35
ATOM     35  O   UNL     1       1.044   4.344  17.243  0.00  0.00    +0.000 OA
ATOM     36  H   UNL     1       1.631   4.135  16.488  0.00  0.00    +0.000 HD
ENDBRANCH  33  35
ENDBRANCH   4  33
TORSDOF 7
ENDMDL
MODEL 5
REMARK VINA RESULT:      -8.0      4.595      6.744
REMARK  Name = 
REMARK  7 active torsions:
REMARK  status: ('A' for Active; 'I' for Inactive)
REMARK    1  A    between atoms: C_2  and  C_12
REMARK    2  A    between atoms: N_3  and  C_4
REMARK    3  A    between atoms: C_4  and  C_5
REMARK    4  A    between atoms: C_15  and  C_16
REMARK    5  A    between atoms: C_16  and  O_18
REMARK    6  A    between atoms: C_19  and  N_20
REMARK    7  A    between atoms: C_21  and  C_23
REMARK                            x       y       z     vdW  Elec       q    Type
REMARK                         _______ _______ _______ _____ _____    ______ ____
ROOT
ATOM      1  C   UNL     1       1.458   8.764  19.552  0.00  0.00    +0.000 A 
ATOM      2  C   UNL     1       1.016   8.311  20.798  0.00  0.00    +0.000 A 
ATOM      3  C   UNL     1       0.437   9.208  21.698  0.00  0.00    +0.000 A 
ATOM      4  C   UNL     1       0.292  10.566  21.366  0.00  0.00    +0.000 A 
ATOM      5  C   UNL     1       0.783  11.051  20.138  0.00  0.00    +0.000 A 
ATOM      6  C   UNL     1       1.381  10.139  19.245  0.00  0.00    +0.000 A 
ENDROOT
BRANCH   1   8
ATOM      7  O   UNL     1       2.549   8.244  17.531  0.00  0.00    +0.000 OA
ATOM      8  C   UNL     1       2.024   7.812  18.548  0.00  0.00    +0.000 C 
ATOM      9  N   UNL     1       1.891   6.458  18.820  0.00  0.00    +0.000 N 
ATOM     10  H   UNL     1       1.201   6.159  19.497  0.00  0.00    +0.000 HD
BRANCH   9  11
ATOM     11  C   UNL     1       2.343   5.463  17.866  0.00  0.00    +0.000 C 
BRANCH  11  12
ATOM     12  C   UNL     1       3.828   5.202  17.966  0.00  0.00    +0.000 A 
ATOM     13  C   UNL     1       4.575   4.854  16.830  0.00  0.00    +0.000 A 
ATOM     14  C   UNL     1       5.959   4.658  16.914  0.00  0.00    +0.000 A 
ATOM     15  C   UNL     1       6.607   4.813  18.138  0.00  0.00    +0.000 A 
ATOM     16 CL   UNL     1       8.307   4.574  18.243  0.00  0.00    +0.000 Cl
ATOM     17  C   UNL     1       5.885   5.165  19.276  0.00  0.00    +0.000 A 
ATOM     18  C   UNL     1       4.498   5.362  19.189  0.00  0.00    +0.000 A 
ENDBRANCH  11  12
ENDBRANCH   9  11
ENDBRANCH   1   8
BRANCH   5  19
ATOM     19  N   UNL     1       0.590  12.404  19.745  0.00  0.00    +0.000 N 
ATOM     20  C   UNL     1       1.541  13.417  19.927  0.00  0.00    +0.000 C 
ATOM     21  O   UNL     1       2.549  13.209  20.592  0.00  0.00    +0.000 OA
ATOM     22  H   UNL     1      -0.347  12.700  19.491  0.00  0.00    +0.000 HD
BRANCH  20  23
ATOM     23  C   UNL     1       1.212  14.723  19.344  0.00  0.00    +0.000 A 
ATOM     24  S   UNL     1      -0.364  15.378  19.486  0.00  0.00    +0.000 S 
ATOM     25  C   UNL     1      -0.026  16.690  18.431  0.00  0.00    +0.000 A 
ATOM     26  C   UNL     1      -0.939  17.674  18.000  0.00  0.00    +0.000 A 
ATOM     27  C   UNL     1      -0.518  18.631  17.072  0.00  0.00    +0.000 A 
ATOM     28  C   UNL     1       0.785  18.630  16.609  0.00  0.00    +0.000 A 
ATOM     29  C   UNL     1       1.705  17.688  17.082  0.00  0.00    +0.000 A 
ATOM     30  C   UNL     1       1.303  16.679  18.010  0.00  0.00    +0.000 A 
ATOM     31  C   UNL     1       2.028  15.594  18.632  0.00  0.00    +0.000 A 
ATOM     32 CL   UNL     1       3.725  15.420  18.408  0.00  0.00    +0.000 Cl
ENDBRANCH  20  23
ENDBRANCH   5  19
BRANCH   4  33
ATOM     33  C   UNL     1      -0.354  11.413  22.399  0.00  0.00    +0.000 C 
ATOM     34  O   UNL     1      -0.481  12.617  22.276  0.00  0.00    +0.000 OA
BRANCH  33  35
ATOM     35  O   UNL     1      -0.819  10.722  23.460  0.00  0.00    +0.000 OA
ATOM     36  H   UNL     1      -1.415   9.982  23.225  0.00  0.00    +0.000 HD
ENDBRANCH  33  35
ENDBRANCH   4  33
TORSDOF 7
ENDMDL
MODEL 6
REMARK VINA RESULT:      -7.9      4.014      5.734
REMARK  Name = 
REMARK  7 active torsions:
REMARK  status: ('A' for Active; 'I' for Inactive)
REMARK    1  A    between atoms: C_2  and  C_12
REMARK    2  A    between atoms: N_3  and  C_4
REMARK    3  A    between atoms: C_4  and  C_5
REMARK    4  A    between atoms: C_15  and  C_16
REMARK    5  A    between atoms: C_16  and  O_18
REMARK    6  A    between atoms: C_19  and  N_20
REMARK    7  A    between atoms: C_21  and  C_23
REMARK                            x       y       z     vdW  Elec       q    Type
REMARK                         _______ _______ _______ _____ _____    ______ ____
ROOT
ATOM      1  C   UNL     1       5.625   6.524  17.373  0.00  0.00    +0.000 A 
ATOM      2  C   UNL     1       5.397   5.149  17.283  0.00  0.00    +0.000 A 
ATOM      3  C   UNL     1       4.127   4.636  17.559  0.00  0.00    +0.000 A 
ATOM      4  C   UNL     1       3.072   5.488  17.927  0.00  0.00    +0.000 A 
ATOM      5  C   UNL     1       3.298   6.870  18.079  0.00  0.00    +0.000 A 
ATOM      6  C   UNL     1       4.587   7.374  17.814  0.00  0.00    +0.000 A 
ENDROOT
BRANCH   1   8
ATOM      7  O   UNL     1       7.687   6.517  16.237  0.00  0.00    +0.000 OA
ATOM      8  C   UNL     1       6.957   7.104  17.023  0.00  0.00    +0.000 C 
ATOM      9  N   UNL     1       7.310   8.291  17.649  0.00  0.00    +0.000 N 
ATOM     10  H   UNL     1       6.823   8.565  18.493  0.00  0.00    +0.000 HD
BRANCH   9  11
ATOM     11  C   UNL     1       8.615   8.886  17.427  0.00  0.00    +0.000 C 
BRANCH  11  12
ATOM     12  C   UNL     1       8.856  10.091  18.306  0.00  0.00    +0.000 A 
ATOM     13  C   UNL     1       8.689  11.391  17.805  0.00  0.00    +0.000 A 
ATOM     14  C   UNL     1       8.866  12.507  18.632  0.00  0.00    +0.000 A 
ATOM     15  C   UNL     1       9.210  12.328  19.971  0.00  0.00    +0.000 A 
ATOM     16 CL   UNL     1       9.426  13.697  20.989  0.00  0.00    +0.000 Cl
ATOM     17  C   UNL     1       9.373  11.046  20.490  0.00  0.00    +0.000 A 
ATOM     18  C   UNL     1       9.193   9.929  19.659  0.00  0.00    +0.000 A 
ENDBRANCH  11  12
ENDBRANCH   9  11
ENDBRANCH   1   8
BRANCH   5  19
ATOM     19  N   UNL     1       2.236   7.766  18.383  0.00  0.00    +0.000 N 
ATOM     20  C   UNL     1       1.830   8.087  19.685  0.00  0.00    +0.000 C 
ATOM     21  O   UNL     1       2.283   7.475  20.645  0.00  0.00    +0.000 OA
ATOM     22  H   UNL     1       1.615   8.045  17.630  0.00  0.00    +0.000 HD
BRANCH  20  23
ATOM     23  C   UNL     1       0.800   9.126  19.802  0.00  0.00    +0.000 A 
ATOM     24  S   UNL     1       0.196   9.926  18.413  0.00  0.00    +0.000 S 
ATOM     25  C   UNL     1      -0.711  11.058  19.331  0.00  0.00    +0.000 A 
ATOM     26  C   UNL     1      -1.464  12.137  18.825  0.00  0.00    +0.000 A 
ATOM     27  C   UNL     1      -2.080  13.015  19.719  0.00  0.00    +0.000 A 
ATOM     28  C   UNL     1      -1.978  12.809  21.083  0.00  0.00    +0.000 A 
ATOM     29  C   UNL     1      -1.279  11.706  21.583  0.00  0.00    +0.000 A 
ATOM     30  C   UNL     1      -0.614  10.802  20.699  0.00  0.00    +0.000 A 
ATOM     31  C   UNL     1       0.179   9.619  20.943  0.00  0.00    +0.000 A 
ATOM     32 CL   UNL     1       0.351   8.980  22.532  0.00  0.00    +0.000 Cl
ENDBRANCH  20  23
ENDBRANCH   5  19
BRANCH   4  33
ATOM     33  C   UNL     1       1.770   4.823  18.177  0.00  0.00    +0.000 C 
ATOM     34  O   UNL     1       1.088   4.356  17.283  0.00  0.00    +0.000 OA
BRANCH  33  35
ATOM     35  O   UNL     1       1.433   4.751  19.481  0.00  0.00    +0.000 OA
ATOM     36  H   UNL     1       0.585   5.187  19.700  0.00  0.00    +0.000 HD
ENDBRANCH  33  35
ENDBRANCH   4  33
TORSDOF 7
ENDMDL
MODEL 7
REMARK VINA RESULT:      -7.9      4.014      5.714
REMARK  Name = 
REMARK  7 active torsions:
REMARK  status: ('A' for Active; 'I' for Inactive)
REMARK    1  A    between atoms: C_2  and  C_12
REMARK    2  A    between atoms: N_3  and  C_4
REMARK    3  A    between atoms: C_4  and  C_5
REMARK    4  A    between atoms: C_15  and  C_16
REMARK    5  A    between atoms: C_16  and  O_18
REMARK    6  A    between atoms: C_19  and  N_20
REMARK    7  A    between atoms: C_21  and  C_23
REMARK                            x       y       z     vdW  Elec       q    Type
REMARK                         _______ _______ _______ _____ _____    ______ ____
ROOT
ATOM      1  C   UNL     1       5.563   6.460  17.444  0.00  0.00    +0.000 A 
ATOM      2  C   UNL     1       5.343   5.081  17.380  0.00  0.00    +0.000 A 
ATOM      3  C   UNL     1       4.080   4.565  17.674  0.00  0.00    +0.000 A 
ATOM      4  C   UNL     1       3.021   5.417  18.036  0.00  0.00    +0.000 A 
ATOM      5  C   UNL     1       3.240   6.803  18.161  0.00  0.00    +0.000 A 
ATOM      6  C   UNL     1       4.523   7.310  17.877  0.00  0.00    +0.000 A 
ENDROOT
BRANCH   1   8
ATOM      7  O   UNL     1       7.614   6.449  16.288  0.00  0.00    +0.000 OA
ATOM      8  C   UNL     1       6.889   7.042  17.073  0.00  0.00    +0.000 C 
ATOM      9  N   UNL     1       7.242   8.239  17.681  0.00  0.00    +0.000 N 
ATOM     10  H   UNL     1       6.761   8.521  18.526  0.00  0.00    +0.000 HD
BRANCH   9  11
ATOM     11  C   UNL     1       8.541   8.837  17.438  0.00  0.00    +0.000 C 
BRANCH  11  12
ATOM     12  C   UNL     1       8.789  10.047  18.308  0.00  0.00    +0.000 A 
ATOM     13  C   UNL     1       9.178   9.903  19.648  0.00  0.00    +0.000 A 
ATOM     14  C   UNL     1       9.454  11.024  20.441  0.00  0.00    +0.000 A 
ATOM     15  C   UNL     1       9.345  12.301  19.894  0.00  0.00    +0.000 A 
ATOM     16 CL   UNL     1       9.685  13.679  20.864  0.00  0.00    +0.000 Cl
ATOM     17  C   UNL     1       8.968  12.467  18.563  0.00  0.00    +0.000 A 
ATOM     18  C   UNL     1       8.693  11.341  17.770  0.00  0.00    +0.000 A 
ENDBRANCH  11  12
ENDBRANCH   9  11
ENDBRANCH   1   8
BRANCH   5  19
ATOM     19  N   UNL     1       2.174   7.697  18.457  0.00  0.00    +0.000 N 
ATOM     20  C   UNL     1       1.814   8.086  19.754  0.00  0.00    +0.000 C 
ATOM     21  O   UNL     1       2.317   7.538  20.728  0.00  0.00    +0.000 OA
ATOM     22  H   UNL     1       1.518   7.923  17.716  0.00  0.00    +0.000 HD
BRANCH  20  23
ATOM     23  C   UNL     1       0.771   9.113  19.854  0.00  0.00    +0.000 A 
ATOM     24  S   UNL     1       0.152   9.878  18.453  0.00  0.00    +0.000 S 
ATOM     25  C   UNL     1      -0.767  11.015  19.352  0.00  0.00    +0.000 A 
ATOM     26  C   UNL     1      -1.536  12.074  18.827  0.00  0.00    +0.000 A 
ATOM     27  C   UNL     1      -2.162  12.960  19.707  0.00  0.00    +0.000 A 
ATOM     28  C   UNL     1      -2.054  12.782  21.074  0.00  0.00    +0.000 A 
ATOM     29  C   UNL     1      -1.338  11.697  21.593  0.00  0.00    +0.000 A 
ATOM     30  C   UNL     1      -0.664  10.786  20.724  0.00  0.00    +0.000 A 
ATOM     31  C   UNL     1       0.146   9.619  20.988  0.00  0.00    +0.000 A 
ATOM     32 CL   UNL     1       0.331   9.012  22.588  0.00  0.00    +0.000 Cl
ENDBRANCH  20  23
ENDBRANCH   5  19
BRANCH   4  33
ATOM     33  C   UNL     1       1.725   4.749  18.307  0.00  0.00    +0.000 C 
ATOM     34  O   UNL     1       1.267   4.635  19.429  0.00  0.00    +0.000 OA
BRANCH  33  35
ATOM     35  O   UNL     1       1.088   4.320  17.199  0.00  0.00    +0.000 OA
ATOM     36  H   UNL     1       1.682   3.952  16.513  0.00  0.00    +0.000 HD
ENDBRANCH  33  35
ENDBRANCH   4  33
TORSDOF 7
ENDMDL
MODEL 8
REMARK VINA RESULT:      -7.8      2.872      9.653
REMARK  Name = 
REMARK  7 active torsions:
REMARK  status: ('A' for Active; 'I' for Inactive)
REMARK    1  A    between atoms: C_2  and  C_12
REMARK    2  A    between atoms: N_3  and  C_4
REMARK    3  A    between atoms: C_4  and  C_5
REMARK    4  A    between atoms: C_15  and  C_16
REMARK    5  A    between atoms: C_16  and  O_18
REMARK    6  A    between atoms: C_19  and  N_20
REMARK    7  A    between atoms: C_21  and  C_23
REMARK                            x       y       z     vdW  Elec       q    Type
REMARK                         _______ _______ _______ _____ _____    ______ ____
ROOT
ATOM      1  C   UNL     1       1.749   7.122  20.445  0.00  0.00    +0.000 A 
ATOM      2  C   UNL     1       1.464   6.055  21.301  0.00  0.00    +0.000 A 
ATOM      3  C   UNL     1       1.914   4.772  20.985  0.00  0.00    +0.000 A 
ATOM      4  C   UNL     1       2.653   4.537  19.812  0.00  0.00    +0.000 A 
ATOM      5  C   UNL     1       2.899   5.589  18.909  0.00  0.00    +0.000 A 
ATOM      6  C   UNL     1       2.426   6.877  19.231  0.00  0.00    +0.000 A 
ENDROOT
BRANCH   1   8
ATOM      7  O   UNL     1       1.348   8.880  21.959  0.00  0.00    +0.000 OA
ATOM      8  C   UNL     1       1.333   8.515  20.792  0.00  0.00    +0.000 C 
ATOM      9  N   UNL     1       0.914   9.325  19.745  0.00  0.00    +0.000 N 
ATOM     10  H   UNL     1       0.635   8.894  18.873  0.00  0.00    +0.000 HD
BRANCH   9  11
ATOM     11  C   UNL     1       0.420  10.665  19.999  0.00  0.00    +0.000 C 
BRANCH  11  12
ATOM     12  C   UNL     1      -0.911  10.925  19.332  0.00  0.00    +0.000 A 
ATOM     13  C   UNL     1      -1.802  11.876  19.851  0.00  0.00    +0.000 A 
ATOM     14  C   UNL     1      -3.014  12.151  19.207  0.00  0.00    +0.000 A 
ATOM     15  C   UNL     1      -3.342  11.475  18.033  0.00  0.00    +0.000 A 
ATOM     16 CL   UNL     1      -4.830  11.811  17.239  0.00  0.00    +0.000 Cl
ATOM     17  C   UNL     1      -2.469  10.532  17.497  0.00  0.00    +0.000 A 
ATOM     18  C   UNL     1      -1.253  10.259  18.144  0.00  0.00    +0.000 A 
ENDBRANCH  11  12
ENDBRANCH   9  11
ENDBRANCH   1   8
BRANCH   5  19
ATOM     19  N   UNL     1       3.701   5.399  17.750  0.00  0.00    +0.000 N 
ATOM     20  C   UNL     1       5.101   5.323  17.768  0.00  0.00    +0.000 C 
ATOM     21  O   UNL     1       5.722   5.579  18.792  0.00  0.00    +0.000 OA
ATOM     22  H   UNL     1       3.263   5.510  16.841  0.00  0.00    +0.000 HD
BRANCH  20  23
ATOM     23  C   UNL     1       5.746   4.998  16.491  0.00  0.00    +0.000 A 
ATOM     24  S   UNL     1       6.994   5.987  15.860  0.00  0.00    +0.000 S 
ATOM     25  C   UNL     1       7.046   5.147  14.364  0.00  0.00    +0.000 A 
ATOM     26  C   UNL     1       7.850   5.467  13.250  0.00  0.00    +0.000 A 
ATOM     27  C   UNL     1       7.711   4.723  12.076  0.00  0.00    +0.000 A 
ATOM     28  C   UNL     1       6.820   3.667  12.018  0.00  0.00    +0.000 A 
ATOM     29  C   UNL     1       6.065   3.314  13.143  0.00  0.00    +0.000 A 
ATOM     30  C   UNL     1       6.162   4.068  14.351  0.00  0.00    +0.000 A 
ATOM     31  C   UNL     1       5.496   3.938  15.628  0.00  0.00    +0.000 A 
ATOM     32 CL   UNL     1       4.453   2.608  15.951  0.00  0.00    +0.000 Cl
ENDBRANCH  20  23
ENDBRANCH   5  19
BRANCH   4  33
ATOM     33  C   UNL     1       3.087   3.135  19.598  0.00  0.00    +0.000 C 
ATOM     34  O   UNL     1       2.336   2.269  19.188  0.00  0.00    +0.000 OA
BRANCH  33  35
ATOM     35  O   UNL     1       4.393   2.921  19.859  0.00  0.00    +0.000 OA
ATOM     36  H   UNL     1       4.769   3.521  20.534  0.00  0.00    +0.000 HD
ENDBRANCH  33  35
ENDBRANCH   4  33
TORSDOF 7
ENDMDL
MODEL 9
REMARK VINA RESULT:      -7.8      5.206      9.281
REMARK  Name = 
REMARK  7 active torsions:
REMARK  status: ('A' for Active; 'I' for Inactive)
REMARK    1  A    between atoms: C_2  and  C_12
REMARK    2  A    between atoms: N_3  and  C_4
REMARK    3  A    between atoms: C_4  and  C_5
REMARK    4  A    between atoms: C_15  and  C_16
REMARK    5  A    between atoms: C_16  and  O_18
REMARK    6  A    between atoms: C_19  and  N_20
REMARK    7  A    between atoms: C_21  and  C_23
REMARK                            x       y       z     vdW  Elec       q    Type
REMARK                         _______ _______ _______ _____ _____    ______ ____
ROOT
ATOM      1  C   UNL     1       1.412  13.745  19.227  0.00  0.00    +0.000 A 
ATOM      2  C   UNL     1       0.172  14.084  18.681  0.00  0.00    +0.000 A 
ATOM      3  C   UNL     1      -0.730  13.078  18.328  0.00  0.00    +0.000 A 
ATOM      4  C   UNL     1      -0.405  11.723  18.516  0.00  0.00    +0.000 A 
ATOM      5  C   UNL     1       0.862  11.362  19.012  0.00  0.00    +0.000 A 
ATOM      6  C   UNL     1       1.771  12.385  19.349  0.00  0.00    +0.000 A 
ENDROOT
BRANCH   1   8
ATOM      7  O   UNL     1       1.945  15.892  20.034  0.00  0.00    +0.000 OA
ATOM      8  C   UNL     1       2.369  14.805  19.670  0.00  0.00    +0.000 C 
ATOM      9  N   UNL     1       3.721  14.494  19.614  0.00  0.00    +0.000 N 
ATOM     10  H   UNL     1       4.023  13.721  19.034  0.00  0.00    +0.000 HD
BRANCH   9  11
ATOM     11  C   UNL     1       4.723  15.487  19.952  0.00  0.00    +0.000 C 
BRANCH  11  12
ATOM     12  C   UNL     1       6.081  15.153  19.379  0.00  0.00    +0.000 A 
ATOM     13  C   UNL     1       7.246  15.328  20.142  0.00  0.00    +0.000 A 
ATOM     14  C   UNL     1       8.499  14.974  19.629  0.00  0.00    +0.000 A 
ATOM     15  C   UNL     1       8.595  14.439  18.345  0.00  0.00    +0.000 A 
ATOM     16 CL   UNL     1      10.133  14.002  17.713  0.00  0.00    +0.000 Cl
ATOM     17  C   UNL     1       7.451  14.251  17.574  0.00  0.00    +0.000 A 
ATOM     18  C   UNL     1       6.195  14.605  18.092  0.00  0.00    +0.000 A 
ENDBRANCH  11  12
ENDBRANCH   9  11
ENDBRANCH   1   8
BRANCH   5  19
ATOM     19  N   UNL     1       1.195  10.004  19.278  0.00  0.00    +0.000 N 
ATOM     20  C   UNL     1       1.885   9.176  18.382  0.00  0.00    +0.000 C 
ATOM     21  O   UNL     1       2.103   9.549  17.235  0.00  0.00    +0.000 OA
ATOM     22  H   UNL     1       0.754   9.549  20.070  0.00  0.00    +0.000 HD
BRANCH  20  23
ATOM     23  C   UNL     1       2.247   7.845  18.882  0.00  0.00    +0.000 A 
ATOM     24  S   UNL     1       3.232   6.795  17.954  0.00  0.00    +0.000 S 
ATOM     25  C   UNL     1       3.011   5.472  19.025  0.00  0.00    +0.000 A 
ATOM     26  C   UNL     1       3.510   4.164  18.855  0.00  0.00    +0.000 A 
ATOM     27  C   UNL     1       3.169   3.180  19.786  0.00  0.00    +0.000 A 
ATOM     28  C   UNL     1       2.379   3.494  20.877  0.00  0.00    +0.000 A 
ATOM     29  C   UNL     1       1.932   4.805  21.075  0.00  0.00    +0.000 A 
ATOM     30  C   UNL     1       2.239   5.830  20.129  0.00  0.00    +0.000 A 
ATOM     31  C   UNL     1       1.895   7.233  20.079  0.00  0.00    +0.000 A 
ATOM     32 CL   UNL     1       1.067   7.989  21.384  0.00  0.00    +0.000 Cl
ENDBRANCH  20  23
ENDBRANCH   5  19
BRANCH   4  33
ATOM     33  C   UNL     1      -1.453  10.752  18.118  0.00  0.00    +0.000 C 
ATOM     34  O   UNL     1      -2.579  10.773  18.581  0.00  0.00    +0.000 OA
BRANCH  33  35
ATOM     35  O   UNL     1      -1.057   9.875  17.172  0.00  0.00    +0.000 OA
ATOM     36  H   UNL     1      -0.699  10.295  16.364  0.00  0.00    +0.000 HD
ENDBRANCH  33  35
ENDBRANCH   4  33
TORSDOF 7
ENDMDL
