MODEL 1
REMARK VINA RESULT:      -8.2      0.000      0.000
REMARK  Name = 
REMARK  10 active torsions:
REMARK  status: ('A' for Active; 'I' for Inactive)
REMARK    1  A    between atoms: C_1  and  C_2
REMARK    2  A    between atoms: C_2  and  C_3
REMARK    3  A    between atoms: C_2  and  C_4
REMARK    4  A    between atoms: C_2  and  C_5
REMARK    5  A    between atoms: C_8  and  C_9
REMARK    6  A    between atoms: C_15  and  C_16
REMARK    7  A    between atoms: C_19  and  C_20
REMARK    8  A    between atoms: C_20  and  C_21
REMARK    9  A    between atoms: C_20  and  C_22
REMARK   10  A    between atoms: C_20  and  C_23
REMARK                            x       y       z     vdW  Elec       q    Type
REMARK                         _______ _______ _______ _____ _____    ______ ____
ROOT
ATOM      1  C   UNL     1       1.057   8.034  21.564  0.00  0.00    +0.000 C 
ATOM      2  C   UNL     1       0.546   9.228  21.213  0.00  0.00    +0.000 C 
ATOM      3  C   UNL     1       0.458   9.735  19.798  0.00  0.00    +0.000 C 
ATOM      4  C   UNL     1       0.143  11.221  19.713  0.00  0.00    +0.000 C 
ATOM      5  C   UNL     1      -1.086  11.539  20.550  0.00  0.00    +0.000 C 
ATOM      6  C   UNL     1      -0.863  11.190  21.995  0.00  0.00    +0.000 C 
ATOM      7  C   UNL     1      -1.458  11.798  23.036  0.00  0.00    +0.000 C 
ATOM      8  C   UNL     1       0.072  10.079  22.343  0.00  0.00    +0.000 C 
ATOM      9  O   UNL     1       0.430   9.872  23.499  0.00  0.00    +0.000 OA
ENDROOT
BRANCH   1  13
ATOM     10  C   UNL     1       2.822   5.230  18.851  0.00  0.00    +0.000 A 
ATOM     11  C   UNL     1       2.085   4.815  19.973  0.00  0.00    +0.000 A 
ATOM     12  C   UNL     1       1.493   5.735  20.836  0.00  0.00    +0.000 A 
ATOM     13  C   UNL     1       1.627   7.101  20.600  0.00  0.00    +0.000 A 
ATOM     14  C   UNL     1       2.340   7.544  19.488  0.00  0.00    +0.000 A 
ATOM     15  C   UNL     1       2.929   6.616  18.623  0.00  0.00    +0.000 A 
BRANCH  10  17
ATOM     16  C   UNL     1       2.464   3.349  17.134  0.00  0.00    +0.000 C 
ATOM     17  C   UNL     1       3.485   4.224  17.897  0.00  0.00    +0.000 C 
ATOM     18  C   UNL     1       4.406   3.269  18.682  0.00  0.00    +0.000 C 
ATOM     19  C   UNL     1       4.322   4.984  16.847  0.00  0.00    +0.000 C 
ENDBRANCH  10  17
ENDBRANCH   1  13
BRANCH   7  20
ATOM     20  C   UNL     1      -2.483  12.821  22.878  0.00  0.00    +0.000 A 
ATOM     21  C   UNL     1      -2.100  14.159  22.832  0.00  0.00    +0.000 A 
ATOM     22  C   UNL     1      -3.064  15.159  22.692  0.00  0.00    +0.000 A 
ATOM     23  C   UNL     1      -4.429  14.846  22.591  0.00  0.00    +0.000 A 
ATOM     24  C   UNL     1      -4.793  13.486  22.672  0.00  0.00    +0.000 A 
ATOM     25  C   UNL     1      -3.832  12.483  22.810  0.00  0.00    +0.000 A 
BRANCH  23  26
ATOM     26  C   UNL     1      -5.500  15.923  22.352  0.00  0.00    +0.000 C 
ATOM     27  C   UNL     1      -6.393  15.630  21.125  0.00  0.00    +0.000 C 
ATOM     28  C   UNL     1      -6.424  15.999  23.586  0.00  0.00    +0.000 C 
ATOM     29  C   UNL     1      -4.845  17.300  22.126  0.00  0.00    +0.000 C 
ENDBRANCH  23  26
ENDBRANCH   7  20
TORSDOF 4
ENDMDL
MODEL 2
REMARK VINA RESULT:      -8.2      0.278      1.272
REMARK  Name = 
REMARK  10 active torsions:
REMARK  status: ('A' for Active; 'I' for Inactive)
REMARK    1  A    between atoms: C_1  and  C_2
REMARK    2  A    between atoms: C_2  and  C_3
REMARK    3  A    between atoms: C_2  and  C_4
REMARK    4  A    between atoms: C_2  and  C_5
REMARK    5  A    between atoms: C_8  and  C_9
REMARK    6  A    between atoms: C_15  and  C_16
REMARK    7  A    between atoms: C_19  and  C_20
REMARK    8  A    between atoms: C_20  and  C_21
REMARK    9  A    between atoms: C_20  and  C_22
REMARK   10  A    between atoms: C_20  and  C_23
REMARK                            x       y       z     vdW  Elec       q    Type
REMARK                         _______ _______ _______ _____ _____    ______ ____
ROOT
ATOM      1  C   UNL     1       1.049   8.049  21.592  0.00  0.00    +0.000 C 
ATOM      2  C   UNL     1       0.543   9.247  21.245  0.00  0.00    +0.000 C 
ATOM      3  C   UNL     1       0.463   9.761  19.831  0.00  0.00    +0.000 C 
ATOM      4  C   UNL     1       0.153  11.248  19.752  0.00  0.00    +0.000 C 
ATOM      5  C   UNL     1      -1.077  11.566  20.586  0.00  0.00    +0.000 C 
ATOM      6  C   UNL     1      -0.861  11.209  22.030  0.00  0.00    +0.000 C 
ATOM      7  C   UNL     1      -1.459  11.814  23.072  0.00  0.00    +0.000 C 
ATOM      8  C   UNL     1       0.068  10.094  22.377  0.00  0.00    +0.000 C 
ATOM      9  O   UNL     1       0.422   9.880  23.533  0.00  0.00    +0.000 OA
ENDROOT
BRANCH   1  13
ATOM     10  C   UNL     1       2.816   5.253  18.872  0.00  0.00    +0.000 A 
ATOM     11  C   UNL     1       2.091   4.834  20.001  0.00  0.00    +0.000 A 
ATOM     12  C   UNL     1       1.498   5.752  20.865  0.00  0.00    +0.000 A 
ATOM     13  C   UNL     1       1.619   7.118  20.625  0.00  0.00    +0.000 A 
ATOM     14  C   UNL     1       2.321   7.565  19.508  0.00  0.00    +0.000 A 
ATOM     15  C   UNL     1       2.911   6.640  18.640  0.00  0.00    +0.000 A 
BRANCH  10  17
ATOM     16  C   UNL     1       2.462   3.362  17.165  0.00  0.00    +0.000 C 
ATOM     17  C   UNL     1       3.481   4.251  17.915  0.00  0.00    +0.000 C 
ATOM     18  C   UNL     1       4.420   3.308  18.695  0.00  0.00    +0.000 C 
ATOM     19  C   UNL     1       4.300   5.015  16.854  0.00  0.00    +0.000 C 
ENDBRANCH  10  17
ENDBRANCH   1  13
BRANCH   7  20
ATOM     20  C   UNL     1      -2.479  12.842  22.915  0.00  0.00    +0.000 A 
ATOM     21  C   UNL     1      -3.802  12.457  22.714  0.00  0.00    +0.000 A 
ATOM     22  C   UNL     1      -4.795  13.422  22.550  0.00  0.00    +0.000 A 
ATOM     23  C   UNL     1      -4.493  14.793  22.587  0.00  0.00    +0.000 A 
ATOM     24  C   UNL     1      -3.142  15.157  22.760  0.00  0.00    +0.000 A 
ATOM     25  C   UNL     1      -2.145  14.194  22.927  0.00  0.00    +0.000 A 
BRANCH  23  26
ATOM     26  C   UNL     1      -5.582  15.874  22.493  0.00  0.00    +0.000 C 
ATOM     27  C   UNL     1      -5.912  16.524  23.856  0.00  0.00    +0.000 C 
ATOM     28  C   UNL     1      -5.097  16.998  21.552  0.00  0.00    +0.000 C 
ATOM     29  C   UNL     1      -6.891  15.280  21.936  0.00  0.00    +0.000 C 
ENDBRANCH  23  26
ENDBRANCH   7  20
TORSDOF 4
ENDMDL
MODEL 3
REMARK VINA RESULT:      -8.2      0.333      1.352
REMARK  Name = 
REMARK  10 active torsions:
REMARK  status: ('A' for Active; 'I' for Inactive)
REMARK    1  A    between atoms: C_1  and  C_2
REMARK    2  A    between atoms: C_2  and  C_3
REMARK    3  A    between atoms: C_2  and  C_4
REMARK    4  A    between atoms: C_2  and  C_5
REMARK    5  A    between atoms: C_8  and  C_9
REMARK    6  A    between atoms: C_15  and  C_16
REMARK    7  A    between atoms: C_19  and  C_20
REMARK    8  A    between atoms: C_20  and  C_21
REMARK    9  A    between atoms: C_20  and  C_22
REMARK   10  A    between atoms: C_20  and  C_23
REMARK                            x       y       z     vdW  Elec       q    Type
REMARK                         _______ _______ _______ _____ _____    ______ ____
ROOT
ATOM      1  C   UNL     1       1.130   8.011  21.535  0.00  0.00    +0.000 C 
ATOM      2  C   UNL     1       0.599   9.198  21.186  0.00  0.00    +0.000 C 
ATOM      3  C   UNL     1       0.455   9.683  19.768  0.00  0.00    +0.000 C 
ATOM      4  C   UNL     1       0.129  11.166  19.673  0.00  0.00    +0.000 C 
ATOM      5  C   UNL     1      -1.068  11.490  20.552  0.00  0.00    +0.000 C 
ATOM      6  C   UNL     1      -0.789  11.164  21.992  0.00  0.00    +0.000 C 
ATOM      7  C   UNL     1      -1.347  11.785  23.046  0.00  0.00    +0.000 C 
ATOM      8  C   UNL     1       0.165  10.063  22.321  0.00  0.00    +0.000 C 
ATOM      9  O   UNL     1       0.568   9.875  23.465  0.00  0.00    +0.000 OA
ENDROOT
BRANCH   1  13
ATOM     10  C   UNL     1       2.800   5.171  18.799  0.00  0.00    +0.000 A 
ATOM     11  C   UNL     1       2.080   4.771  19.938  0.00  0.00    +0.000 A 
ATOM     12  C   UNL     1       1.518   5.703  20.808  0.00  0.00    +0.000 A 
ATOM     13  C   UNL     1       1.667   7.066  20.563  0.00  0.00    +0.000 A 
ATOM     14  C   UNL     1       2.365   7.495  19.437  0.00  0.00    +0.000 A 
ATOM     15  C   UNL     1       2.923   6.555  18.564  0.00  0.00    +0.000 A 
BRANCH  10  17
ATOM     16  C   UNL     1       4.333   3.121  18.552  0.00  0.00    +0.000 C 
ATOM     17  C   UNL     1       3.431   4.153  17.837  0.00  0.00    +0.000 C 
ATOM     18  C   UNL     1       4.305   4.875  16.791  0.00  0.00    +0.000 C 
ATOM     19  C   UNL     1       2.316   3.371  17.110  0.00  0.00    +0.000 C 
ENDBRANCH  10  17
ENDBRANCH   1  13
BRANCH   7  20
ATOM     20  C   UNL     1      -2.382  12.801  22.912  0.00  0.00    +0.000 A 
ATOM     21  C   UNL     1      -3.719  12.419  22.988  0.00  0.00    +0.000 A 
ATOM     22  C   UNL     1      -4.729  13.372  22.852  0.00  0.00    +0.000 A 
ATOM     23  C   UNL     1      -4.429  14.727  22.641  0.00  0.00    +0.000 A 
ATOM     24  C   UNL     1      -3.068  15.084  22.538  0.00  0.00    +0.000 A 
ATOM     25  C   UNL     1      -2.055  14.134  22.675  0.00  0.00    +0.000 A 
BRANCH  23  26
ATOM     26  C   UNL     1      -5.521  15.807  22.573  0.00  0.00    +0.000 C 
ATOM     27  C   UNL     1      -5.192  16.941  21.576  0.00  0.00    +0.000 C 
ATOM     28  C   UNL     1      -6.844  15.157  22.112  0.00  0.00    +0.000 C 
ATOM     29  C   UNL     1      -5.732  16.454  23.956  0.00  0.00    +0.000 C 
ENDBRANCH  23  26
ENDBRANCH   7  20
TORSDOF 4
ENDMDL
MODEL 4
REMARK VINA RESULT:      -8.2      0.187      1.219
REMARK  Name = 
REMARK  10 active torsions:
REMARK  status: ('A' for Active; 'I' for Inactive)
REMARK    1  A    between atoms: C_1  and  C_2
REMARK    2  A    between atoms: C_2  and  C_3
REMARK    3  A    between atoms: C_2  and  C_4
REMARK    4  A    between atoms: C_2  and  C_5
REMARK    5  A    between atoms: C_8  and  C_9
REMARK    6  A    between atoms: C_15  and  C_16
REMARK    7  A    between atoms: C_19  and  C_20
REMARK    8  A    between atoms: C_20  and  C_21
REMARK    9  A    between atoms: C_20  and  C_22
REMARK   10  A    between atoms: C_20  and  C_23
REMARK                            x       y       z     vdW  Elec       q    Type
REMARK                         _______ _______ _______ _____ _____    ______ ____
ROOT
ATOM      1  C   UNL     1       1.059   7.966  21.573  0.00  0.00    +0.000 C 
ATOM      2  C   UNL     1       0.596   9.183  21.231  0.00  0.00    +0.000 C 
ATOM      3  C   UNL     1       0.573   9.723  19.826  0.00  0.00    +0.000 C 
ATOM      4  C   UNL     1       0.306  11.219  19.764  0.00  0.00    +0.000 C 
ATOM      5  C   UNL     1      -0.942  11.555  20.564  0.00  0.00    +0.000 C 
ATOM      6  C   UNL     1      -0.781  11.169  22.008  0.00  0.00    +0.000 C 
ATOM      7  C   UNL     1      -1.395  11.772  23.041  0.00  0.00    +0.000 C 
ATOM      8  C   UNL     1       0.108  10.023  22.363  0.00  0.00    +0.000 C 
ATOM      9  O   UNL     1       0.418   9.781  23.526  0.00  0.00    +0.000 OA
ENDROOT
BRANCH   1  13
ATOM     10  C   UNL     1       2.843   5.177  18.858  0.00  0.00    +0.000 A 
ATOM     11  C   UNL     1       2.131   4.756  19.994  0.00  0.00    +0.000 A 
ATOM     12  C   UNL     1       1.532   5.671  20.857  0.00  0.00    +0.000 A 
ATOM     13  C   UNL     1       1.634   7.037  20.608  0.00  0.00    +0.000 A 
ATOM     14  C   UNL     1       2.322   7.486  19.484  0.00  0.00    +0.000 A 
ATOM     15  C   UNL     1       2.919   6.563  18.618  0.00  0.00    +0.000 A 
BRANCH  10  17
ATOM     16  C   UNL     1       4.400   4.861  16.836  0.00  0.00    +0.000 C 
ATOM     17  C   UNL     1       3.514   4.177  17.903  0.00  0.00    +0.000 C 
ATOM     18  C   UNL     1       2.447   3.356  17.151  0.00  0.00    +0.000 C 
ATOM     19  C   UNL     1       4.415   3.218  18.709  0.00  0.00    +0.000 C 
ENDBRANCH  10  17
ENDBRANCH   1  13
BRANCH   7  20
ATOM     20  C   UNL     1      -2.382  12.829  22.871  0.00  0.00    +0.000 A 
ATOM     21  C   UNL     1      -3.727  12.487  22.756  0.00  0.00    +0.000 A 
ATOM     22  C   UNL     1      -4.691  13.481  22.580  0.00  0.00    +0.000 A 
ATOM     23  C   UNL     1      -4.336  14.838  22.521  0.00  0.00    +0.000 A 
ATOM     24  C   UNL     1      -2.965  15.157  22.609  0.00  0.00    +0.000 A 
ATOM     25  C   UNL     1      -1.998  14.165  22.786  0.00  0.00    +0.000 A 
BRANCH  23  26
ATOM     26  C   UNL     1      -5.387  15.955  22.413  0.00  0.00    +0.000 C 
ATOM     27  C   UNL     1      -6.606  15.561  21.549  0.00  0.00    +0.000 C 
ATOM     28  C   UNL     1      -5.913  16.290  23.826  0.00  0.00    +0.000 C 
ATOM     29  C   UNL     1      -4.770  17.223  21.790  0.00  0.00    +0.000 C 
ENDBRANCH  23  26
ENDBRANCH   7  20
TORSDOF 4
ENDMDL
MODEL 5
REMARK VINA RESULT:      -8.2      0.151      1.095
REMARK  Name = 
REMARK  10 active torsions:
REMARK  status: ('A' for Active; 'I' for Inactive)
REMARK    1  A    between atoms: C_1  and  C_2
REMARK    2  A    between atoms: C_2  and  C_3
REMARK    3  A    between atoms: C_2  and  C_4
REMARK    4  A    between atoms: C_2  and  C_5
REMARK    5  A    between atoms: C_8  and  C_9
REMARK    6  A    between atoms: C_15  and  C_16
REMARK    7  A    between atoms: C_19  and  C_20
REMARK    8  A    between atoms: C_20  and  C_21
REMARK    9  A    between atoms: C_20  and  C_22
REMARK   10  A    between atoms: C_20  and  C_23
REMARK                            x       y       z     vdW  Elec       q    Type
REMARK                         _______ _______ _______ _____ _____    ______ ____
ROOT
ATOM      1  C   UNL     1       1.112   7.997  21.563  0.00  0.00    +0.000 C 
ATOM      2  C   UNL     1       0.613   9.197  21.216  0.00  0.00    +0.000 C 
ATOM      3  C   UNL     1       0.531   9.710  19.802  0.00  0.00    +0.000 C 
ATOM      4  C   UNL     1       0.231  11.199  19.723  0.00  0.00    +0.000 C 
ATOM      5  C   UNL     1      -0.995  11.526  20.560  0.00  0.00    +0.000 C 
ATOM      6  C   UNL     1      -0.777  11.170  22.004  0.00  0.00    +0.000 C 
ATOM      7  C   UNL     1      -1.367  11.780  23.047  0.00  0.00    +0.000 C 
ATOM      8  C   UNL     1       0.147  10.048  22.349  0.00  0.00    +0.000 C 
ATOM      9  O   UNL     1       0.503   9.834  23.505  0.00  0.00    +0.000 OA
ENDROOT
BRANCH   1  13
ATOM     10  C   UNL     1       2.851   5.185  18.841  0.00  0.00    +0.000 A 
ATOM     11  C   UNL     1       2.113   4.773  19.964  0.00  0.00    +0.000 A 
ATOM     12  C   UNL     1       1.529   5.696  20.829  0.00  0.00    +0.000 A 
ATOM     13  C   UNL     1       1.673   7.061  20.596  0.00  0.00    +0.000 A 
ATOM     14  C   UNL     1       2.388   7.501  19.484  0.00  0.00    +0.000 A 
ATOM     15  C   UNL     1       2.968   6.571  18.616  0.00  0.00    +0.000 A 
BRANCH  10  17
ATOM     16  C   UNL     1       4.360   4.850  16.786  0.00  0.00    +0.000 C 
ATOM     17  C   UNL     1       3.505   4.176  17.884  0.00  0.00    +0.000 C 
ATOM     18  C   UNL     1       2.425   3.338  17.169  0.00  0.00    +0.000 C 
ATOM     19  C   UNL     1       4.431   3.234  18.680  0.00  0.00    +0.000 C 
ENDBRANCH  10  17
ENDBRANCH   1  13
BRANCH   7  20
ATOM     20  C   UNL     1      -2.380  12.814  22.892  0.00  0.00    +0.000 A 
ATOM     21  C   UNL     1      -1.988  14.150  22.884  0.00  0.00    +0.000 A 
ATOM     22  C   UNL     1      -2.942  15.159  22.748  0.00  0.00    +0.000 A 
ATOM     23  C   UNL     1      -4.307  14.859  22.612  0.00  0.00    +0.000 A 
ATOM     24  C   UNL     1      -4.682  13.500  22.655  0.00  0.00    +0.000 A 
ATOM     25  C   UNL     1      -3.730  12.488  22.789  0.00  0.00    +0.000 A 
BRANCH  23  26
ATOM     26  C   UNL     1      -5.366  15.949  22.376  0.00  0.00    +0.000 C 
ATOM     27  C   UNL     1      -4.775  17.254  21.797  0.00  0.00    +0.000 C 
ATOM     28  C   UNL     1      -6.409  15.427  21.365  0.00  0.00    +0.000 C 
ATOM     29  C   UNL     1      -6.077  16.310  23.695  0.00  0.00    +0.000 C 
ENDBRANCH  23  26
ENDBRANCH   7  20
TORSDOF 4
ENDMDL
MODEL 6
REMARK VINA RESULT:      -8.1      0.074      1.154
REMARK  Name = 
REMARK  10 active torsions:
REMARK  status: ('A' for Active; 'I' for Inactive)
REMARK    1  A    between atoms: C_1  and  C_2
REMARK    2  A    between atoms: C_2  and  C_3
REMARK    3  A    between atoms: C_2  and  C_4
REMARK    4  A    between atoms: C_2  and  C_5
REMARK    5  A    between atoms: C_8  and  C_9
REMARK    6  A    between atoms: C_15  and  C_16
REMARK    7  A    between atoms: C_19  and  C_20
REMARK    8  A    between atoms: C_20  and  C_21
REMARK    9  A    between atoms: C_20  and  C_22
REMARK   10  A    between atoms: C_20  and  C_23
REMARK                            x       y       z     vdW  Elec       q    Type
REMARK                         _______ _______ _______ _____ _____    ______ ____
ROOT
ATOM      1  C   UNL     1       1.084   8.041  21.532  0.00  0.00    +0.000 C 
ATOM      2  C   UNL     1       0.575   9.238  21.188  0.00  0.00    +0.000 C 
ATOM      3  C   UNL     1       0.493   9.756  19.777  0.00  0.00    +0.000 C 
ATOM      4  C   UNL     1       0.180  11.243  19.702  0.00  0.00    +0.000 C 
ATOM      5  C   UNL     1      -1.053  11.554  20.537  0.00  0.00    +0.000 C 
ATOM      6  C   UNL     1      -0.836  11.194  21.980  0.00  0.00    +0.000 C 
ATOM      7  C   UNL     1      -1.435  11.794  23.023  0.00  0.00    +0.000 C 
ATOM      8  C   UNL     1       0.097  10.080  22.323  0.00  0.00    +0.000 C 
ATOM      9  O   UNL     1       0.451   9.864  23.479  0.00  0.00    +0.000 OA
ENDROOT
BRANCH   1  13
ATOM     10  C   UNL     1       2.861   5.259  18.804  0.00  0.00    +0.000 A 
ATOM     11  C   UNL     1       2.145   4.834  19.936  0.00  0.00    +0.000 A 
ATOM     12  C   UNL     1       1.549   5.747  20.804  0.00  0.00    +0.000 A 
ATOM     13  C   UNL     1       1.657   7.115  20.563  0.00  0.00    +0.000 A 
ATOM     14  C   UNL     1       2.349   7.566  19.442  0.00  0.00    +0.000 A 
ATOM     15  C   UNL     1       2.943   6.647  18.571  0.00  0.00    +0.000 A 
BRANCH  10  17
ATOM     16  C   UNL     1       4.494   3.288  18.558  0.00  0.00    +0.000 C 
ATOM     17  C   UNL     1       3.529   4.262  17.844  0.00  0.00    +0.000 C 
ATOM     18  C   UNL     1       4.350   5.015  16.777  0.00  0.00    +0.000 C 
ATOM     19  C   UNL     1       2.447   3.415  17.144  0.00  0.00    +0.000 C 
ENDBRANCH  10  17
ENDBRANCH   1  13
BRANCH   7  20
ATOM     20  C   UNL     1      -2.458  12.819  22.869  0.00  0.00    +0.000 A 
ATOM     21  C   UNL     1      -2.076  14.158  22.850  0.00  0.00    +0.000 A 
ATOM     22  C   UNL     1      -3.039  15.159  22.715  0.00  0.00    +0.000 A 
ATOM     23  C   UNL     1      -4.402  14.848  22.590  0.00  0.00    +0.000 A 
ATOM     24  C   UNL     1      -4.767  13.486  22.643  0.00  0.00    +0.000 A 
ATOM     25  C   UNL     1      -3.806  12.482  22.777  0.00  0.00    +0.000 A 
BRANCH  23  26
ATOM     26  C   UNL     1      -5.471  15.928  22.355  0.00  0.00    +0.000 C 
ATOM     27  C   UNL     1      -6.359  16.184  23.594  0.00  0.00    +0.000 C 
ATOM     28  C   UNL     1      -4.773  17.260  22.005  0.00  0.00    +0.000 C 
ATOM     29  C   UNL     1      -6.403  15.526  21.194  0.00  0.00    +0.000 C 
ENDBRANCH  23  26
ENDBRANCH   7  20
TORSDOF 4
ENDMDL
MODEL 7
REMARK VINA RESULT:      -8.0      2.199      3.213
REMARK  Name = 
REMARK  10 active torsions:
REMARK  status: ('A' for Active; 'I' for Inactive)
REMARK    1  A    between atoms: C_1  and  C_2
REMARK    2  A    between atoms: C_2  and  C_3
REMARK    3  A    between atoms: C_2  and  C_4
REMARK    4  A    between atoms: C_2  and  C_5
REMARK    5  A    between atoms: C_8  and  C_9
REMARK    6  A    between atoms: C_15  and  C_16
REMARK    7  A    between atoms: C_19  and  C_20
REMARK    8  A    between atoms: C_20  and  C_21
REMARK    9  A    between atoms: C_20  and  C_22
REMARK   10  A    between atoms: C_20  and  C_23
REMARK                            x       y       z     vdW  Elec       q    Type
REMARK                         _______ _______ _______ _____ _____    ______ ____
ROOT
ATOM      1  C   UNL     1       1.372   8.900  18.115  0.00  0.00    +0.000 C 
ATOM      2  C   UNL     1       0.867   9.290  19.299  0.00  0.00    +0.000 C 
ATOM      3  C   UNL     1       1.193   8.642  20.619  0.00  0.00    +0.000 C 
ATOM      4  C   UNL     1       0.252   9.061  21.739  0.00  0.00    +0.000 C 
ATOM      5  C   UNL     1       0.174  10.578  21.809  0.00  0.00    +0.000 C 
ATOM      6  C   UNL     1      -0.346  11.155  20.522  0.00  0.00    +0.000 C 
ATOM      7  C   UNL     1      -1.027  12.309  20.413  0.00  0.00    +0.000 C 
ATOM      8  C   UNL     1      -0.095  10.429  19.242  0.00  0.00    +0.000 C 
ATOM      9  O   UNL     1      -0.647  10.753  18.194  0.00  0.00    +0.000 OA
ENDROOT
BRANCH   1  13
ATOM     10  C   UNL     1       4.038   5.599  17.538  0.00  0.00    +0.000 A 
ATOM     11  C   UNL     1       4.432   6.924  17.286  0.00  0.00    +0.000 A 
ATOM     12  C   UNL     1       3.565   7.994  17.501  0.00  0.00    +0.000 A 
ATOM     13  C   UNL     1       2.275   7.764  17.972  0.00  0.00    +0.000 A 
ATOM     14  C   UNL     1       1.859   6.463  18.244  0.00  0.00    +0.000 A 
ATOM     15  C   UNL     1       2.734   5.393  18.030  0.00  0.00    +0.000 A 
BRANCH  10  17
ATOM     16  C   UNL     1       5.468   4.310  15.833  0.00  0.00    +0.000 C 
ATOM     17  C   UNL     1       4.983   4.411  17.297  0.00  0.00    +0.000 C 
ATOM     18  C   UNL     1       4.271   3.084  17.633  0.00  0.00    +0.000 C 
ATOM     19  C   UNL     1       6.231   4.555  18.192  0.00  0.00    +0.000 C 
ENDBRANCH  10  17
ENDBRANCH   1  13
BRANCH   7  20
ATOM     20  C   UNL     1      -1.261  13.202  21.540  0.00  0.00    +0.000 A 
ATOM     21  C   UNL     1      -0.292  14.147  21.867  0.00  0.00    +0.000 A 
ATOM     22  C   UNL     1      -0.488  15.005  22.949  0.00  0.00    +0.000 A 
ATOM     23  C   UNL     1      -1.656  14.945  23.725  0.00  0.00    +0.000 A 
ATOM     24  C   UNL     1      -2.609  13.960  23.393  0.00  0.00    +0.000 A 
ATOM     25  C   UNL     1      -2.417  13.100  22.310  0.00  0.00    +0.000 A 
BRANCH  23  26
ATOM     26  C   UNL     1      -1.932  15.936  24.868  0.00  0.00    +0.000 C 
ATOM     27  C   UNL     1      -1.219  15.558  26.186  0.00  0.00    +0.000 C 
ATOM     28  C   UNL     1      -1.426  17.335  24.455  0.00  0.00    +0.000 C 
ATOM     29  C   UNL     1      -3.442  16.014  25.167  0.00  0.00    +0.000 C 
ENDBRANCH  23  26
ENDBRANCH   7  20
TORSDOF 4
ENDMDL
MODEL 8
REMARK VINA RESULT:      -7.9      2.174      3.059
REMARK  Name = 
REMARK  10 active torsions:
REMARK  status: ('A' for Active; 'I' for Inactive)
REMARK    1  A    between atoms: C_1  and  C_2
REMARK    2  A    between atoms: C_2  and  C_3
REMARK    3  A    between atoms: C_2  and  C_4
REMARK    4  A    between atoms: C_2  and  C_5
REMARK    5  A    between atoms: C_8  and  C_9
REMARK    6  A    between atoms: C_15  and  C_16
REMARK    7  A    between atoms: C_19  and  C_20
REMARK    8  A    between atoms: C_20  and  C_21
REMARK    9  A    between atoms: C_20  and  C_22
REMARK   10  A    between atoms: C_20  and  C_23
REMARK                            x       y       z     vdW  Elec       q    Type
REMARK                         _______ _______ _______ _____ _____    ______ ____
ROOT
ATOM      1  C   UNL     1       1.337   8.955  18.127  0.00  0.00    +0.000 C 
ATOM      2  C   UNL     1       0.822   9.350  19.306  0.00  0.00    +0.000 C 
ATOM      3  C   UNL     1       1.131   8.703  20.631  0.00  0.00    +0.000 C 
ATOM      4  C   UNL     1       0.181   9.128  21.740  0.00  0.00    +0.000 C 
ATOM      5  C   UNL     1       0.110  10.645  21.807  0.00  0.00    +0.000 C 
ATOM      6  C   UNL     1      -0.395  11.222  20.514  0.00  0.00    +0.000 C 
ATOM      7  C   UNL     1      -1.069  12.380  20.396  0.00  0.00    +0.000 C 
ATOM      8  C   UNL     1      -0.134  10.493  19.237  0.00  0.00    +0.000 C 
ATOM      9  O   UNL     1      -0.674  10.818  18.183  0.00  0.00    +0.000 OA
ENDROOT
BRANCH   1  13
ATOM     10  C   UNL     1       3.993   5.641  17.583  0.00  0.00    +0.000 A 
ATOM     11  C   UNL     1       4.395   6.964  17.332  0.00  0.00    +0.000 A 
ATOM     12  C   UNL     1       3.531   8.038  17.537  0.00  0.00    +0.000 A 
ATOM     13  C   UNL     1       2.235   7.815  17.996  0.00  0.00    +0.000 A 
ATOM     14  C   UNL     1       1.811   6.516  18.266  0.00  0.00    +0.000 A 
ATOM     15  C   UNL     1       2.683   5.442  18.063  0.00  0.00    +0.000 A 
BRANCH  10  17
ATOM     16  C   UNL     1       4.293   3.091  17.725  0.00  0.00    +0.000 C 
ATOM     17  C   UNL     1       4.934   4.448  17.354  0.00  0.00    +0.000 C 
ATOM     18  C   UNL     1       6.208   4.599  18.210  0.00  0.00    +0.000 C 
ATOM     19  C   UNL     1       5.331   4.382  15.865  0.00  0.00    +0.000 C 
ENDBRANCH  10  17
ENDBRANCH   1  13
BRANCH   7  20
ATOM     20  C   UNL     1      -1.311  13.275  21.519  0.00  0.00    +0.000 A 
ATOM     21  C   UNL     1      -0.310  14.165  21.902  0.00  0.00    +0.000 A 
ATOM     22  C   UNL     1      -0.513  15.025  22.981  0.00  0.00    +0.000 A 
ATOM     23  C   UNL     1      -1.719  15.022  23.700  0.00  0.00    +0.000 A 
ATOM     24  C   UNL     1      -2.705  14.091  23.312  0.00  0.00    +0.000 A 
ATOM     25  C   UNL     1      -2.506  13.229  22.231  0.00  0.00    +0.000 A 
BRANCH  23  26
ATOM     26  C   UNL     1      -1.997  16.018  24.837  0.00  0.00    +0.000 C 
ATOM     27  C   UNL     1      -3.501  16.164  25.162  0.00  0.00    +0.000 C 
ATOM     28  C   UNL     1      -1.294  15.526  26.121  0.00  0.00    +0.000 C 
ATOM     29  C   UNL     1      -1.465  17.418  24.475  0.00  0.00    +0.000 C 
ENDBRANCH  23  26
ENDBRANCH   7  20
TORSDOF 4
ENDMDL
MODEL 9
REMARK VINA RESULT:      -7.9      2.173      3.141
REMARK  Name = 
REMARK  10 active torsions:
REMARK  status: ('A' for Active; 'I' for Inactive)
REMARK    1  A    between atoms: C_1  and  C_2
REMARK    2  A    between atoms: C_2  and  C_3
REMARK    3  A    between atoms: C_2  and  C_4
REMARK    4  A    between atoms: C_2  and  C_5
REMARK    5  A    between atoms: C_8  and  C_9
REMARK    6  A    between atoms: C_15  and  C_16
REMARK    7  A    between atoms: C_19  and  C_20
REMARK    8  A    between atoms: C_20  and  C_21
REMARK    9  A    between atoms: C_20  and  C_22
REMARK   10  A    between atoms: C_20  and  C_23
REMARK                            x       y       z     vdW  Elec       q    Type
REMARK                         _______ _______ _______ _____ _____    ______ ____
ROOT
ATOM      1  C   UNL     1       1.388   8.884  18.077  0.00  0.00    +0.000 C 
ATOM      2  C   UNL     1       0.884   9.275  19.263  0.00  0.00    +0.000 C 
ATOM      3  C   UNL     1       1.236   8.648  20.586  0.00  0.00    +0.000 C 
ATOM      4  C   UNL     1       0.295   9.057  21.710  0.00  0.00    +0.000 C 
ATOM      5  C   UNL     1       0.182  10.572  21.766  0.00  0.00    +0.000 C 
ATOM      6  C   UNL     1      -0.362  11.123  20.478  0.00  0.00    +0.000 C 
ATOM      7  C   UNL     1      -1.072  12.259  20.363  0.00  0.00    +0.000 C 
ATOM      8  C   UNL     1      -0.105  10.390  19.202  0.00  0.00    +0.000 C 
ATOM      9  O   UNL     1      -0.674  10.690  18.156  0.00  0.00    +0.000 OA
ENDROOT
BRANCH   1  13
ATOM     10  C   UNL     1       4.090   5.572  17.827  0.00  0.00    +0.000 A 
ATOM     11  C   UNL     1       2.740   5.404  18.181  0.00  0.00    +0.000 A 
ATOM     12  C   UNL     1       1.863   6.485  18.235  0.00  0.00    +0.000 A 
ATOM     13  C   UNL     1       2.315   7.769  17.938  0.00  0.00    +0.000 A 
ATOM     14  C   UNL     1       3.645   7.965  17.571  0.00  0.00    +0.000 A 
ATOM     15  C   UNL     1       4.521   6.877  17.515  0.00  0.00    +0.000 A 
BRANCH  10  17
ATOM     16  C   UNL     1       6.529   4.795  18.075  0.00  0.00    +0.000 C 
ATOM     17  C   UNL     1       5.068   4.388  17.772  0.00  0.00    +0.000 C 
ATOM     18  C   UNL     1       5.057   3.749  16.368  0.00  0.00    +0.000 C 
ATOM     19  C   UNL     1       4.655   3.328  18.813  0.00  0.00    +0.000 C 
ENDBRANCH  10  17
ENDBRANCH   1  13
BRANCH   7  20
ATOM     20  C   UNL     1      -1.317  13.158  21.482  0.00  0.00    +0.000 A 
ATOM     21  C   UNL     1      -0.343  14.091  21.827  0.00  0.00    +0.000 A 
ATOM     22  C   UNL     1      -0.550  14.955  22.903  0.00  0.00    +0.000 A 
ATOM     23  C   UNL     1      -1.734  14.912  23.656  0.00  0.00    +0.000 A 
ATOM     24  C   UNL     1      -2.692  13.938  23.306  0.00  0.00    +0.000 A 
ATOM     25  C   UNL     1      -2.489  13.072  22.230  0.00  0.00    +0.000 A 
BRANCH  23  26
ATOM     26  C   UNL     1      -2.020  15.909  24.790  0.00  0.00    +0.000 C 
ATOM     27  C   UNL     1      -1.331  15.530  26.121  0.00  0.00    +0.000 C 
ATOM     28  C   UNL     1      -1.496  17.303  24.381  0.00  0.00    +0.000 C 
ATOM     29  C   UNL     1      -3.535  16.000  25.064  0.00  0.00    +0.000 C 
ENDBRANCH  23  26
ENDBRANCH   7  20
TORSDOF 4
ENDMDL
