MODEL 1
REMARK VINA RESULT:      -8.8      0.000      0.000
REMARK  Name = 
REMARK  3 active torsions:
REMARK  status: ('A' for Active; 'I' for Inactive)
REMARK    1  A    between atoms: C_1  and  C_2
REMARK    2  A    between atoms: C_9  and  O_10
REMARK    3  A    between atoms: O_10  and  S_11
REMARK                            x       y       z     vdW  Elec       q    Type
REMARK                         _______ _______ _______ _____ _____    ______ ____
ROOT
ATOM      1  C   UNL     1       1.494   3.672  18.411  0.00  0.00    +0.000 C 
ATOM      2  C   UNL     1       2.768   4.237  19.071  0.00  0.00    +0.000 C 
ATOM      3  C   UNL     1       2.537   4.523  20.550  0.00  0.00    +0.000 C 
ATOM      4  C   UNL     1       1.710   5.799  20.768  0.00  0.00    +0.000 C 
ATOM      5  C   UNL     1       2.211   7.032  19.976  0.00  0.00    +0.000 C 
ATOM      6  C   UNL     1       1.335   8.275  20.127  0.00  0.00    +0.000 A 
ATOM      7  C   UNL     1       0.676   8.540  21.337  0.00  0.00    +0.000 A 
ATOM      8  C   UNL     1       0.021   9.758  21.565  0.00  0.00    +0.000 A 
ATOM      9  C   UNL     1       0.007  10.736  20.576  0.00  0.00    +0.000 A 
ATOM     10  C   UNL     1       0.651  10.488  19.365  0.00  0.00    +0.000 A 
ATOM     11  C   UNL     1       1.322   9.268  19.127  0.00  0.00    +0.000 A 
ATOM     12  C   UNL     1       2.019   9.083  17.799  0.00  0.00    +0.000 C 
ATOM     13  C   UNL     1       3.049   7.949  17.797  0.00  0.00    +0.000 C 
ATOM     14  C   UNL     1       2.471   6.698  18.474  0.00  0.00    +0.000 C 
ATOM     15  C   UNL     1       3.403   5.484  18.417  0.00  0.00    +0.000 C 
ATOM     16  C   UNL     1       3.923   4.971  17.076  0.00  0.00    +0.000 C 
ATOM     17  C   UNL     1       4.543   3.606  17.429  0.00  0.00    +0.000 C 
ATOM     18  C   UNL     1       3.864   3.247  18.738  0.00  0.00    +0.000 C 
ATOM     19  O   UNL     1       4.123   2.254  19.405  0.00  0.00    +0.000 OA
ENDROOT
BRANCH   9  20
ATOM     20  O   UNL     1      -0.539  11.985  20.719  0.00  0.00    +0.000 OA
BRANCH  20  21
ATOM     21  S   UNL     1       0.140  13.178  21.620  0.00  0.00    +0.000 S 
ATOM     22  O   UNL     1      -0.419  14.388  21.049  0.00  0.00    +0.000 OA
ATOM     23  O   UNL     1      -0.320  12.901  22.996  0.00  0.00    +0.000 OA
ATOM     24  O   UNL     1       1.575  12.990  21.429  0.00  0.00    +0.000 OA
ENDBRANCH  20  21
ENDBRANCH   9  20
TORSDOF 2
ENDMDL
MODEL 2
REMARK VINA RESULT:      -8.6      0.514      1.061
REMARK  Name = 
REMARK  3 active torsions:
REMARK  status: ('A' for Active; 'I' for Inactive)
REMARK    1  A    between atoms: C_1  and  C_2
REMARK    2  A    between atoms: C_9  and  O_10
REMARK    3  A    between atoms: O_10  and  S_11
REMARK                            x       y       z     vdW  Elec       q    Type
REMARK                         _______ _______ _______ _____ _____    ______ ____
ROOT
ATOM      1  C   UNL     1       1.425   3.529  18.402  0.00  0.00    +0.000 C 
ATOM      2  C   UNL     1       2.733   4.055  19.025  0.00  0.00    +0.000 C 
ATOM      3  C   UNL     1       2.553   4.348  20.510  0.00  0.00    +0.000 C 
ATOM      4  C   UNL     1       1.771   5.648  20.750  0.00  0.00    +0.000 C 
ATOM      5  C   UNL     1       2.287   6.865  19.943  0.00  0.00    +0.000 C 
ATOM      6  C   UNL     1       1.454   8.135  20.118  0.00  0.00    +0.000 A 
ATOM      7  C   UNL     1       0.837   8.419  21.345  0.00  0.00    +0.000 A 
ATOM      8  C   UNL     1       0.227   9.656  21.591  0.00  0.00    +0.000 A 
ATOM      9  C   UNL     1       0.215  10.635  20.602  0.00  0.00    +0.000 A 
ATOM     10  C   UNL     1       0.815  10.367  19.374  0.00  0.00    +0.000 A 
ATOM     11  C   UNL     1       1.442   9.127  19.118  0.00  0.00    +0.000 A 
ATOM     12  C   UNL     1       2.095   8.921  17.770  0.00  0.00    +0.000 C 
ATOM     13  C   UNL     1       3.090   7.757  17.740  0.00  0.00    +0.000 C 
ATOM     14  C   UNL     1       2.494   6.523  18.435  0.00  0.00    +0.000 C 
ATOM     15  C   UNL     1       3.387   5.282  18.352  0.00  0.00    +0.000 C 
ATOM     16  C   UNL     1       3.852   4.754  16.997  0.00  0.00    +0.000 C 
ATOM     17  C   UNL     1       4.441   3.370  17.334  0.00  0.00    +0.000 C 
ATOM     18  C   UNL     1       3.788   3.032  18.662  0.00  0.00    +0.000 C 
ATOM     19  O   UNL     1       4.036   2.032  19.323  0.00  0.00    +0.000 OA
ENDROOT
BRANCH   9  20
ATOM     20  O   UNL     1      -0.290  11.900  20.759  0.00  0.00    +0.000 OA
BRANCH  20  21
ATOM     21  S   UNL     1       0.646  13.232  20.971  0.00  0.00    +0.000 S 
ATOM     22  O   UNL     1       1.945  12.681  21.304  0.00  0.00    +0.000 OA
ATOM     23  O   UNL     1       0.607  13.916  19.662  0.00  0.00    +0.000 OA
ATOM     24  O   UNL     1      -0.025  13.967  22.040  0.00  0.00    +0.000 OA
ENDBRANCH  20  21
ENDBRANCH   9  20
TORSDOF 2
ENDMDL
MODEL 3
REMARK VINA RESULT:      -8.5      0.909      1.346
REMARK  Name = 
REMARK  3 active torsions:
REMARK  status: ('A' for Active; 'I' for Inactive)
REMARK    1  A    between atoms: C_1  and  C_2
REMARK    2  A    between atoms: C_9  and  O_10
REMARK    3  A    between atoms: O_10  and  S_11
REMARK                            x       y       z     vdW  Elec       q    Type
REMARK                         _______ _______ _______ _____ _____    ______ ____
ROOT
ATOM      1  C   UNL     1       1.319   3.548  18.429  0.00  0.00    +0.000 C 
ATOM      2  C   UNL     1       2.638   4.035  19.059  0.00  0.00    +0.000 C 
ATOM      3  C   UNL     1       2.453   4.356  20.537  0.00  0.00    +0.000 C 
ATOM      4  C   UNL     1       1.717   5.688  20.750  0.00  0.00    +0.000 C 
ATOM      5  C   UNL     1       2.286   6.873  19.931  0.00  0.00    +0.000 C 
ATOM      6  C   UNL     1       1.499   8.174  20.078  0.00  0.00    +0.000 A 
ATOM      7  C   UNL     1       0.880   8.500  21.294  0.00  0.00    +0.000 A 
ATOM      8  C   UNL     1       0.312   9.762  21.515  0.00  0.00    +0.000 A 
ATOM      9  C   UNL     1       0.348  10.725  20.512  0.00  0.00    +0.000 A 
ATOM     10  C   UNL     1       0.952  10.418  19.295  0.00  0.00    +0.000 A 
ATOM     11  C   UNL     1       1.535   9.152  19.064  0.00  0.00    +0.000 A 
ATOM     12  C   UNL     1       2.195   8.902  17.727  0.00  0.00    +0.000 C 
ATOM     13  C   UNL     1       3.146   7.702  17.725  0.00  0.00    +0.000 C 
ATOM     14  C   UNL     1       2.498   6.501  18.431  0.00  0.00    +0.000 C 
ATOM     15  C   UNL     1       3.345   5.227  18.377  0.00  0.00    +0.000 C 
ATOM     16  C   UNL     1       3.805   4.662  17.035  0.00  0.00    +0.000 C 
ATOM     17  C   UNL     1       4.338   3.262  17.398  0.00  0.00    +0.000 C 
ATOM     18  C   UNL     1       3.659   2.968  18.723  0.00  0.00    +0.000 C 
ATOM     19  O   UNL     1       3.862   1.969  19.401  0.00  0.00    +0.000 OA
ENDROOT
BRANCH   9  20
ATOM     20  O   UNL     1      -0.111  12.010  20.645  0.00  0.00    +0.000 OA
BRANCH  20  21
ATOM     21  S   UNL     1      -1.686  12.438  20.463  0.00  0.00    +0.000 S 
ATOM     22  O   UNL     1      -1.613  13.838  20.095  0.00  0.00    +0.000 OA
ATOM     23  O   UNL     1      -2.177  11.563  19.378  0.00  0.00    +0.000 OA
ATOM     24  O   UNL     1      -2.282  12.153  21.765  0.00  0.00    +0.000 OA
ENDBRANCH  20  21
ENDBRANCH   9  20
TORSDOF 2
ENDMDL
MODEL 4
REMARK VINA RESULT:      -8.5      1.001      1.393
REMARK  Name = 
REMARK  3 active torsions:
REMARK  status: ('A' for Active; 'I' for Inactive)
REMARK    1  A    between atoms: C_1  and  C_2
REMARK    2  A    between atoms: C_9  and  O_10
REMARK    3  A    between atoms: O_10  and  S_11
REMARK                            x       y       z     vdW  Elec       q    Type
REMARK                         _______ _______ _______ _____ _____    ______ ____
ROOT
ATOM      1  C   UNL     1       1.447   3.561  18.284  0.00  0.00    +0.000 C 
ATOM      2  C   UNL     1       2.734   4.069  18.965  0.00  0.00    +0.000 C 
ATOM      3  C   UNL     1       2.493   4.361  20.441  0.00  0.00    +0.000 C 
ATOM      4  C   UNL     1       1.719   5.671  20.651  0.00  0.00    +0.000 C 
ATOM      5  C   UNL     1       2.286   6.883  19.870  0.00  0.00    +0.000 C 
ATOM      6  C   UNL     1       1.463   8.163  20.011  0.00  0.00    +0.000 A 
ATOM      7  C   UNL     1       0.797   8.454  21.211  0.00  0.00    +0.000 A 
ATOM      8  C   UNL     1       0.193   9.698  21.433  0.00  0.00    +0.000 A 
ATOM      9  C   UNL     1       0.238  10.678  20.448  0.00  0.00    +0.000 A 
ATOM     10  C   UNL     1       0.888  10.405  19.246  0.00  0.00    +0.000 A 
ATOM     11  C   UNL     1       1.509   9.158  19.015  0.00  0.00    +0.000 A 
ATOM     12  C   UNL     1       2.218   8.945  17.696  0.00  0.00    +0.000 C 
ATOM     13  C   UNL     1       3.197   7.768  17.707  0.00  0.00    +0.000 C 
ATOM     14  C   UNL     1       2.555   6.541  18.372  0.00  0.00    +0.000 C 
ATOM     15  C   UNL     1       3.434   5.288  18.325  0.00  0.00    +0.000 C 
ATOM     16  C   UNL     1       3.950   4.756  16.991  0.00  0.00    +0.000 C 
ATOM     17  C   UNL     1       4.505   3.364  17.349  0.00  0.00    +0.000 C 
ATOM     18  C   UNL     1       3.790   3.032  18.646  0.00  0.00    +0.000 C 
ATOM     19  O   UNL     1       3.995   2.027  19.314  0.00  0.00    +0.000 OA
ENDROOT
BRANCH   9  20
ATOM     20  O   UNL     1      -0.256  11.950  20.586  0.00  0.00    +0.000 OA
BRANCH  20  21
ATOM     21  S   UNL     1      -1.441  12.574  19.636  0.00  0.00    +0.000 S 
ATOM     22  O   UNL     1      -2.178  11.402  19.205  0.00  0.00    +0.000 OA
ATOM     23  O   UNL     1      -2.204  13.459  20.541  0.00  0.00    +0.000 OA
ATOM     24  O   UNL     1      -0.714  13.288  18.589  0.00  0.00    +0.000 OA
ENDBRANCH  20  21
ENDBRANCH   9  20
TORSDOF 2
ENDMDL
MODEL 5
REMARK VINA RESULT:      -7.6      2.297      3.763
REMARK  Name = 
REMARK  3 active torsions:
REMARK  status: ('A' for Active; 'I' for Inactive)
REMARK    1  A    between atoms: C_1  and  C_2
REMARK    2  A    between atoms: C_9  and  O_10
REMARK    3  A    between atoms: O_10  and  S_11
REMARK                            x       y       z     vdW  Elec       q    Type
REMARK                         _______ _______ _______ _____ _____    ______ ____
ROOT
ATOM      1  C   UNL     1       6.775   6.297  17.396  0.00  0.00    +0.000 C 
ATOM      2  C   UNL     1       5.576   5.900  16.511  0.00  0.00    +0.000 C 
ATOM      3  C   UNL     1       4.845   7.133  15.995  0.00  0.00    +0.000 C 
ATOM      4  C   UNL     1       3.981   7.788  17.084  0.00  0.00    +0.000 C 
ATOM      5  C   UNL     1       3.062   6.805  17.851  0.00  0.00    +0.000 C 
ATOM      6  C   UNL     1       2.269   7.445  18.990  0.00  0.00    +0.000 A 
ATOM      7  C   UNL     1       1.816   8.769  18.888  0.00  0.00    +0.000 A 
ATOM      8  C   UNL     1       0.934   9.317  19.829  0.00  0.00    +0.000 A 
ATOM      9  C   UNL     1       0.494   8.549  20.901  0.00  0.00    +0.000 A 
ATOM     10  C   UNL     1       0.940   7.234  21.023  0.00  0.00    +0.000 A 
ATOM     11  C   UNL     1       1.821   6.667  20.076  0.00  0.00    +0.000 A 
ATOM     12  C   UNL     1       2.239   5.226  20.261  0.00  0.00    +0.000 C 
ATOM     13  C   UNL     1       2.825   4.588  18.999  0.00  0.00    +0.000 C 
ATOM     14  C   UNL     1       3.832   5.538  18.334  0.00  0.00    +0.000 C 
ATOM     15  C   UNL     1       4.543   4.929  17.122  0.00  0.00    +0.000 C 
ATOM     16  C   UNL     1       5.308   3.614  17.256  0.00  0.00    +0.000 C 
ATOM     17  C   UNL     1       6.102   3.525  15.938  0.00  0.00    +0.000 C 
ATOM     18  C   UNL     1       6.145   4.966  15.464  0.00  0.00    +0.000 C 
ATOM     19  O   UNL     1       6.633   5.333  14.403  0.00  0.00    +0.000 OA
ENDROOT
BRANCH   9  20
ATOM     20  O   UNL     1      -0.420   8.960  21.836  0.00  0.00    +0.000 OA
BRANCH  20  21
ATOM     21  S   UNL     1      -0.151  10.188  22.893  0.00  0.00    +0.000 S 
ATOM     22  O   UNL     1       0.707   9.585  23.895  0.00  0.00    +0.000 OA
ATOM     23  O   UNL     1       0.518  11.226  22.082  0.00  0.00    +0.000 OA
ATOM     24  O   UNL     1      -1.488  10.563  23.345  0.00  0.00    +0.000 OA
ENDBRANCH  20  21
ENDBRANCH   9  20
TORSDOF 2
ENDMDL
MODEL 6
REMARK VINA RESULT:      -7.6      2.917      8.117
REMARK  Name = 
REMARK  3 active torsions:
REMARK  status: ('A' for Active; 'I' for Inactive)
REMARK    1  A    between atoms: C_1  and  C_2
REMARK    2  A    between atoms: C_9  and  O_10
REMARK    3  A    between atoms: O_10  and  S_11
REMARK                            x       y       z     vdW  Elec       q    Type
REMARK                         _______ _______ _______ _____ _____    ______ ____
ROOT
ATOM      1  C   UNL     1      -1.067  10.868  18.311  0.00  0.00    +0.000 C 
ATOM      2  C   UNL     1       0.255  11.283  18.986  0.00  0.00    +0.000 C 
ATOM      3  C   UNL     1       1.432  11.117  18.033  0.00  0.00    +0.000 C 
ATOM      4  C   UNL     1       1.836   9.643  17.868  0.00  0.00    +0.000 C 
ATOM      5  C   UNL     1       2.012   8.873  19.200  0.00  0.00    +0.000 C 
ATOM      6  C   UNL     1       2.328   7.388  19.030  0.00  0.00    +0.000 A 
ATOM      7  C   UNL     1       3.102   6.942  17.948  0.00  0.00    +0.000 A 
ATOM      8  C   UNL     1       3.561   5.621  17.869  0.00  0.00    +0.000 A 
ATOM      9  C   UNL     1       3.245   4.713  18.873  0.00  0.00    +0.000 A 
ATOM     10  C   UNL     1       2.471   5.135  19.952  0.00  0.00    +0.000 A 
ATOM     11  C   UNL     1       2.010   6.467  20.048  0.00  0.00    +0.000 A 
ATOM     12  C   UNL     1       1.197   6.857  21.262  0.00  0.00    +0.000 C 
ATOM     13  C   UNL     1       1.114   8.369  21.487  0.00  0.00    +0.000 C 
ATOM     14  C   UNL     1       0.808   9.093  20.167  0.00  0.00    +0.000 C 
ATOM     15  C   UNL     1       0.603  10.602  20.328  0.00  0.00    +0.000 C 
ATOM     16  C   UNL     1      -0.449  11.139  21.296  0.00  0.00    +0.000 C 
ATOM     17  C   UNL     1      -0.542  12.634  20.932  0.00  0.00    +0.000 C 
ATOM     18  C   UNL     1       0.011  12.679  19.520  0.00  0.00    +0.000 C 
ATOM     19  O   UNL     1       0.178  13.704  18.872  0.00  0.00    +0.000 OA
ENDROOT
BRANCH   9  20
ATOM     20  O   UNL     1       3.700   3.421  18.932  0.00  0.00    +0.000 OA
BRANCH  20  21
ATOM     21  S   UNL     1       2.818   2.123  18.447  0.00  0.00    +0.000 S 
ATOM     22  O   UNL     1       3.808   1.071  18.328  0.00  0.00    +0.000 OA
ATOM     23  O   UNL     1       1.851   1.910  19.544  0.00  0.00    +0.000 OA
ATOM     24  O   UNL     1       2.204   2.562  17.197  0.00  0.00    +0.000 OA
ENDBRANCH  20  21
ENDBRANCH   9  20
TORSDOF 2
ENDMDL
MODEL 7
REMARK VINA RESULT:      -7.5      1.156      2.633
REMARK  Name = 
REMARK  3 active torsions:
REMARK  status: ('A' for Active; 'I' for Inactive)
REMARK    1  A    between atoms: C_1  and  C_2
REMARK    2  A    between atoms: C_9  and  O_10
REMARK    3  A    between atoms: O_10  and  S_11
REMARK                            x       y       z     vdW  Elec       q    Type
REMARK                         _______ _______ _______ _____ _____    ______ ____
ROOT
ATOM      1  C   UNL     1       5.679   5.517  18.851  0.00  0.00    +0.000 C 
ATOM      2  C   UNL     1       4.378   5.140  18.116  0.00  0.00    +0.000 C 
ATOM      3  C   UNL     1       4.101   6.100  16.965  0.00  0.00    +0.000 C 
ATOM      4  C   UNL     1       3.573   7.455  17.460  0.00  0.00    +0.000 C 
ATOM      5  C   UNL     1       2.406   7.358  18.473  0.00  0.00    +0.000 C 
ATOM      6  C   UNL     1       1.941   8.704  19.029  0.00  0.00    +0.000 A 
ATOM      7  C   UNL     1       1.976   9.856  18.229  0.00  0.00    +0.000 A 
ATOM      8  C   UNL     1       1.388  11.057  18.646  0.00  0.00    +0.000 A 
ATOM      9  C   UNL     1       0.758  11.130  19.884  0.00  0.00    +0.000 A 
ATOM     10  C   UNL     1       0.720   9.998  20.695  0.00  0.00    +0.000 A 
ATOM     11  C   UNL     1       1.301   8.779  20.281  0.00  0.00    +0.000 A 
ATOM     12  C   UNL     1       1.197   7.587  21.206  0.00  0.00    +0.000 C 
ATOM     13  C   UNL     1       1.461   6.247  20.514  0.00  0.00    +0.000 C 
ATOM     14  C   UNL     1       2.705   6.341  19.618  0.00  0.00    +0.000 C 
ATOM     15  C   UNL     1       3.100   5.010  18.973  0.00  0.00    +0.000 C 
ATOM     16  C   UNL     1       3.362   3.780  19.839  0.00  0.00    +0.000 C 
ATOM     17  C   UNL     1       4.011   2.782  18.860  0.00  0.00    +0.000 C 
ATOM     18  C   UNL     1       4.534   3.678  17.752  0.00  0.00    +0.000 C 
ATOM     19  O   UNL     1       5.069   3.275  16.728  0.00  0.00    +0.000 OA
ENDROOT
BRANCH   9  20
ATOM     20  O   UNL     1       0.090  12.230  20.358  0.00  0.00    +0.000 OA
BRANCH  20  21
ATOM     21  S   UNL     1       0.828  13.483  21.120  0.00  0.00    +0.000 S 
ATOM     22  O   UNL     1       0.172  13.524  22.412  0.00  0.00    +0.000 OA
ATOM     23  O   UNL     1       2.249  13.083  21.186  0.00  0.00    +0.000 OA
ATOM     24  O   UNL     1       0.578  14.625  20.244  0.00  0.00    +0.000 OA
ENDBRANCH  20  21
ENDBRANCH   9  20
TORSDOF 2
ENDMDL
MODEL 8
REMARK VINA RESULT:      -7.4      1.460      2.868
REMARK  Name = 
REMARK  3 active torsions:
REMARK  status: ('A' for Active; 'I' for Inactive)
REMARK    1  A    between atoms: C_1  and  C_2
REMARK    2  A    between atoms: C_9  and  O_10
REMARK    3  A    between atoms: O_10  and  S_11
REMARK                            x       y       z     vdW  Elec       q    Type
REMARK                         _______ _______ _______ _____ _____    ______ ____
ROOT
ATOM      1  C   UNL     1       5.700   5.482  18.927  0.00  0.00    +0.000 C 
ATOM      2  C   UNL     1       4.412   5.092  18.174  0.00  0.00    +0.000 C 
ATOM      3  C   UNL     1       4.161   6.028  16.998  0.00  0.00    +0.000 C 
ATOM      4  C   UNL     1       3.626   7.394  17.453  0.00  0.00    +0.000 C 
ATOM      5  C   UNL     1       2.438   7.320  18.444  0.00  0.00    +0.000 C 
ATOM      6  C   UNL     1       1.965   8.678  18.962  0.00  0.00    +0.000 A 
ATOM      7  C   UNL     1       2.019   9.813  18.139  0.00  0.00    +0.000 A 
ATOM      8  C   UNL     1       1.425  11.024  18.519  0.00  0.00    +0.000 A 
ATOM      9  C   UNL     1       0.770  11.124  19.742  0.00  0.00    +0.000 A 
ATOM     10  C   UNL     1       0.713  10.009  20.576  0.00  0.00    +0.000 A 
ATOM     11  C   UNL     1       1.300   8.781  20.200  0.00  0.00    +0.000 A 
ATOM     12  C   UNL     1       1.175   7.609  21.146  0.00  0.00    +0.000 C 
ATOM     13  C   UNL     1       1.450   6.254  20.488  0.00  0.00    +0.000 C 
ATOM     14  C   UNL     1       2.712   6.327  19.616  0.00  0.00    +0.000 C 
ATOM     15  C   UNL     1       3.117   4.982  19.007  0.00  0.00    +0.000 C 
ATOM     16  C   UNL     1       3.359   3.770  19.904  0.00  0.00    +0.000 C 
ATOM     17  C   UNL     1       4.026   2.751  18.960  0.00  0.00    +0.000 C 
ATOM     18  C   UNL     1       4.572   3.622  17.844  0.00  0.00    +0.000 C 
ATOM     19  O   UNL     1       5.127   3.197  16.839  0.00  0.00    +0.000 OA
ENDROOT
BRANCH   9  20
ATOM     20  O   UNL     1       0.095  12.234  20.180  0.00  0.00    +0.000 OA
BRANCH  20  21
ATOM     21  S   UNL     1      -1.183  12.894  19.388  0.00  0.00    +0.000 S 
ATOM     22  O   UNL     1      -0.559  13.705  18.361  0.00  0.00    +0.000 OA
ATOM     23  O   UNL     1      -1.924  11.730  18.860  0.00  0.00    +0.000 OA
ATOM     24  O   UNL     1      -1.900  13.628  20.428  0.00  0.00    +0.000 OA
ENDBRANCH  20  21
ENDBRANCH   9  20
TORSDOF 2
ENDMDL
MODEL 9
REMARK VINA RESULT:      -7.3      1.443      2.872
REMARK  Name = 
REMARK  3 active torsions:
REMARK  status: ('A' for Active; 'I' for Inactive)
REMARK    1  A    between atoms: C_1  and  C_2
REMARK    2  A    between atoms: C_9  and  O_10
REMARK    3  A    between atoms: O_10  and  S_11
REMARK                            x       y       z     vdW  Elec       q    Type
REMARK                         _______ _______ _______ _____ _____    ______ ____
ROOT
ATOM      1  C   UNL     1       5.093   4.607  19.349  0.00  0.00    +0.000 C 
ATOM      2  C   UNL     1       3.713   4.317  18.727  0.00  0.00    +0.000 C 
ATOM      3  C   UNL     1       3.553   5.032  17.391  0.00  0.00    +0.000 C 
ATOM      4  C   UNL     1       3.293   6.536  17.570  0.00  0.00    +0.000 C 
ATOM      5  C   UNL     1       2.175   6.877  18.586  0.00  0.00    +0.000 C 
ATOM      6  C   UNL     1       1.979   8.373  18.827  0.00  0.00    +0.000 A 
ATOM      7  C   UNL     1       2.175   9.294  17.788  0.00  0.00    +0.000 A 
ATOM      8  C   UNL     1       1.826  10.644  17.927  0.00  0.00    +0.000 A 
ATOM      9  C   UNL     1       1.276  11.101  19.120  0.00  0.00    +0.000 A 
ATOM     10  C   UNL     1       1.080  10.202  20.167  0.00  0.00    +0.000 A 
ATOM     11  C   UNL     1       1.421   8.837  20.035  0.00  0.00    +0.000 A 
ATOM     12  C   UNL     1       1.154   7.918  21.205  0.00  0.00    +0.000 C 
ATOM     13  C   UNL     1       1.149   6.433  20.832  0.00  0.00    +0.000 C 
ATOM     14  C   UNL     1       2.347   6.101  19.929  0.00  0.00    +0.000 C 
ATOM     15  C   UNL     1       2.473   4.611  19.599  0.00  0.00    +0.000 C 
ATOM     16  C   UNL     1       2.558   3.577  20.719  0.00  0.00    +0.000 C 
ATOM     17  C   UNL     1       2.977   2.288  19.986  0.00  0.00    +0.000 C 
ATOM     18  C   UNL     1       3.595   2.807  18.701  0.00  0.00    +0.000 C 
ATOM     19  O   UNL     1       4.003   2.098  17.791  0.00  0.00    +0.000 OA
ENDROOT
BRANCH   9  20
ATOM     20  O   UNL     1       0.833  12.380  19.339  0.00  0.00    +0.000 OA
BRANCH  20  21
ATOM     21  S   UNL     1      -0.696  12.881  19.014  0.00  0.00    +0.000 S 
ATOM     22  O   UNL     1      -1.196  11.867  18.107  0.00  0.00    +0.000 OA
ATOM     23  O   UNL     1      -1.365  12.884  20.331  0.00  0.00    +0.000 OA
ATOM     24  O   UNL     1      -0.516  14.213  18.441  0.00  0.00    +0.000 OA
ENDBRANCH  20  21
ENDBRANCH   9  20
TORSDOF 2
ENDMDL
