MODEL 1
REMARK VINA RESULT:      -6.0      0.000      0.000
REMARK  Name = 
REMARK  7 active torsions:
REMARK  status: ('A' for Active; 'I' for Inactive)
REMARK    1  A    between atoms: C_1  and  O_2
REMARK    2  A    between atoms: O_2  and  C_3
REMARK    3  A    between atoms: C_4  and  C_5
REMARK    4  A    between atoms: C_10  and  C_12
REMARK    5  A    between atoms: C_16  and  C_17
REMARK    6  A    between atoms: C_18  and  C_19
REMARK    7  A    between atoms: N_21  and  C_22
REMARK                            x       y       z     vdW  Elec       q    Type
REMARK                         _______ _______ _______ _____ _____    ______ ____
ROOT
ATOM      1  C   UNL     1       2.888   6.014  19.211  0.00  0.00    +0.000 C 
ATOM      2  C   UNL     1       1.814   6.953  18.646  0.00  0.00    +0.000 C 
ATOM      3  C   UNL     1       2.589   8.056  17.954  0.00  0.00    +0.000 C 
ATOM      4  C   UNL     1       3.923   7.425  17.600  0.00  0.00    +0.000 C 
ATOM      5  N   UNL     1       3.966   6.113  18.216  0.00  0.00    +0.000 N 
ATOM      6  C   UNL     1       5.109   5.320  18.239  0.00  0.00    +0.000 C 
ATOM      7  O   UNL     1       5.287   4.457  19.093  0.00  0.00    +0.000 OA
ENDROOT
BRANCH   1   9
ATOM      8  C   UNL     1       1.854   3.753  18.497  0.00  0.00    +0.000 A 
ATOM      9  C   UNL     1       2.320   4.652  19.457  0.00  0.00    +0.000 A 
ATOM     10  C   UNL     1       2.137   3.956  20.696  0.00  0.00    +0.000 A 
ATOM     11  C   UNL     1       2.488   4.380  22.073  0.00  0.00    +0.000 C 
ATOM     12  N   UNL     1       1.525   2.780  20.525  0.00  0.00    +0.000 NA
ATOM     13  N   UNL     1       1.247   2.753  19.213  0.00  0.00    +0.000 N 
ATOM     14  C   UNL     1       0.365   1.737  18.692  0.00  0.00    +0.000 C 
BRANCH   8  16
ATOM     15  C   UNL     1       2.887   3.077  16.498  0.00  0.00    +0.000 C 
ATOM     16  O   UNL     1       1.807   3.720  17.160  0.00  0.00    +0.000 OA
ENDBRANCH   8  16
ENDBRANCH   1   9
BRANCH   6  17
ATOM     17  C   UNL     1       6.037   5.405  17.102  0.00  0.00    +0.000 A 
ATOM     18  C   UNL     1       6.116   4.449  16.036  0.00  0.00    +0.000 A 
ATOM     19  C   UNL     1       7.126   4.847  15.204  0.00  0.00    +0.000 A 
ATOM     20  O   UNL     1       7.705   5.976  15.683  0.00  0.00    +0.000 OA
ATOM     21  C   UNL     1       7.074   6.297  16.851  0.00  0.00    +0.000 A 
ATOM     22  C   UNL     1       7.679   7.447  17.552  0.00  0.00    +0.000 C 
ENDBRANCH   6  17
TORSDOF 3
ENDMDL
MODEL 2
REMARK VINA RESULT:      -5.9      2.347      5.457
REMARK  Name = 
REMARK  7 active torsions:
REMARK  status: ('A' for Active; 'I' for Inactive)
REMARK    1  A    between atoms: C_1  and  O_2
REMARK    2  A    between atoms: O_2  and  C_3
REMARK    3  A    between atoms: C_4  and  C_5
REMARK    4  A    between atoms: C_10  and  C_12
REMARK    5  A    between atoms: C_16  and  C_17
REMARK    6  A    between atoms: C_18  and  C_19
REMARK    7  A    between atoms: N_21  and  C_22
REMARK                            x       y       z     vdW  Elec       q    Type
REMARK                         _______ _______ _______ _____ _____    ______ ____
ROOT
ATOM      1  C   UNL     1       3.749   4.675  19.651  0.00  0.00    +0.000 C 
ATOM      2  C   UNL     1       2.888   3.512  20.162  0.00  0.00    +0.000 C 
ATOM      3  C   UNL     1       1.906   4.151  21.123  0.00  0.00    +0.000 C 
ATOM      4  C   UNL     1       1.806   5.594  20.668  0.00  0.00    +0.000 C 
ATOM      5  N   UNL     1       2.804   5.801  19.636  0.00  0.00    +0.000 N 
ATOM      6  C   UNL     1       3.107   7.053  19.109  0.00  0.00    +0.000 C 
ATOM      7  O   UNL     1       4.193   7.298  18.595  0.00  0.00    +0.000 OA
ENDROOT
BRANCH   1   9
ATOM      8  C   UNL     1       5.761   4.306  18.069  0.00  0.00    +0.000 A 
ATOM      9  C   UNL     1       4.395   4.320  18.349  0.00  0.00    +0.000 A 
ATOM     10  C   UNL     1       3.788   3.906  17.119  0.00  0.00    +0.000 A 
ATOM     11  C   UNL     1       2.355   3.685  16.805  0.00  0.00    +0.000 C 
ATOM     12  N   UNL     1       4.688   3.746  16.143  0.00  0.00    +0.000 NA
ATOM     13  N   UNL     1       5.842   4.128  16.711  0.00  0.00    +0.000 N 
ATOM     14  C   UNL     1       7.010   4.325  15.887  0.00  0.00    +0.000 C 
BRANCH   8  16
ATOM     15  C   UNL     1       7.279   5.848  18.984  0.00  0.00    +0.000 C 
ATOM     16  O   UNL     1       6.885   4.500  18.770  0.00  0.00    +0.000 OA
ENDBRANCH   8  16
ENDBRANCH   1   9
BRANCH   6  17
ATOM     17  C   UNL     1       2.027   8.045  19.012  0.00  0.00    +0.000 A 
ATOM     18  C   UNL     1       1.567   8.636  17.789  0.00  0.00    +0.000 A 
ATOM     19  C   UNL     1       0.593   9.541  18.113  0.00  0.00    +0.000 A 
ATOM     20  O   UNL     1       0.423   9.579  19.458  0.00  0.00    +0.000 OA
ATOM     21  C   UNL     1       1.314   8.702  20.008  0.00  0.00    +0.000 A 
ATOM     22  C   UNL     1       1.325   8.722  21.485  0.00  0.00    +0.000 C 
ENDBRANCH   6  17
TORSDOF 3
ENDMDL
MODEL 3
REMARK VINA RESULT:      -5.8      2.144      3.724
REMARK  Name = 
REMARK  7 active torsions:
REMARK  status: ('A' for Active; 'I' for Inactive)
REMARK    1  A    between atoms: C_1  and  O_2
REMARK    2  A    between atoms: O_2  and  C_3
REMARK    3  A    between atoms: C_4  and  C_5
REMARK    4  A    between atoms: C_10  and  C_12
REMARK    5  A    between atoms: C_16  and  C_17
REMARK    6  A    between atoms: C_18  and  C_19
REMARK    7  A    between atoms: N_21  and  C_22
REMARK                            x       y       z     vdW  Elec       q    Type
REMARK                         _______ _______ _______ _____ _____    ______ ____
ROOT
ATOM      1  C   UNL     1       5.705   4.382  18.336  0.00  0.00    +0.000 C 
ATOM      2  C   UNL     1       6.396   5.430  19.219  0.00  0.00    +0.000 C 
ATOM      3  C   UNL     1       7.813   5.507  18.689  0.00  0.00    +0.000 C 
ATOM      4  C   UNL     1       7.711   5.048  17.247  0.00  0.00    +0.000 C 
ATOM      5  N   UNL     1       6.359   4.567  17.033  0.00  0.00    +0.000 N 
ATOM      6  C   UNL     1       5.958   3.916  15.871  0.00  0.00    +0.000 C 
ATOM      7  O   UNL     1       5.002   3.147  15.851  0.00  0.00    +0.000 OA
ENDROOT
BRANCH   1   9
ATOM      8  C   UNL     1       3.280   3.637  18.840  0.00  0.00    +0.000 A 
ATOM      9  C   UNL     1       4.219   4.557  18.375  0.00  0.00    +0.000 A 
ATOM     10  C   UNL     1       3.428   5.682  17.973  0.00  0.00    +0.000 A 
ATOM     11  C   UNL     1       3.864   6.994  17.437  0.00  0.00    +0.000 C 
ATOM     12  N   UNL     1       2.118   5.441  18.087  0.00  0.00    +0.000 NA
ATOM     13  N   UNL     1       2.064   4.159  18.478  0.00  0.00    +0.000 N 
ATOM     14  C   UNL     1       0.798   3.464  18.471  0.00  0.00    +0.000 C 
BRANCH   8  16
ATOM     15  C   UNL     1       3.688   1.336  18.599  0.00  0.00    +0.000 C 
ATOM     16  O   UNL     1       3.326   2.433  19.425  0.00  0.00    +0.000 OA
ENDBRANCH   8  16
ENDBRANCH   1   9
BRANCH   6  17
ATOM     17  C   UNL     1       6.591   4.304  14.602  0.00  0.00    +0.000 A 
ATOM     18  C   UNL     1       7.616   5.299  14.470  0.00  0.00    +0.000 A 
ATOM     19  C   UNL     1       7.911   5.408  13.138  0.00  0.00    +0.000 A 
ATOM     20  O   UNL     1       7.127   4.566  12.419  0.00  0.00    +0.000 OA
ATOM     21  C   UNL     1       6.302   3.923  13.297  0.00  0.00    +0.000 A 
ATOM     22  C   UNL     1       5.305   3.054  12.641  0.00  0.00    +0.000 C 
ENDBRANCH   6  17
TORSDOF 3
ENDMDL
MODEL 4
REMARK VINA RESULT:      -5.8      5.987      7.840
REMARK  Name = 
REMARK  7 active torsions:
REMARK  status: ('A' for Active; 'I' for Inactive)
REMARK    1  A    between atoms: C_1  and  O_2
REMARK    2  A    between atoms: O_2  and  C_3
REMARK    3  A    between atoms: C_4  and  C_5
REMARK    4  A    between atoms: C_10  and  C_12
REMARK    5  A    between atoms: C_16  and  C_17
REMARK    6  A    between atoms: C_18  and  C_19
REMARK    7  A    between atoms: N_21  and  C_22
REMARK                            x       y       z     vdW  Elec       q    Type
REMARK                         _______ _______ _______ _____ _____    ______ ____
ROOT
ATOM      1  C   UNL     1      -0.666  10.852  19.849  0.00  0.00    +0.000 C 
ATOM      2  C   UNL     1      -1.527  10.358  18.679  0.00  0.00    +0.000 C 
ATOM      3  C   UNL     1      -1.947  11.618  17.949  0.00  0.00    +0.000 C 
ATOM      4  C   UNL     1      -0.876  12.636  18.291  0.00  0.00    +0.000 C 
ATOM      5  N   UNL     1      -0.011  12.046  19.294  0.00  0.00    +0.000 N 
ATOM      6  C   UNL     1       0.980  12.759  19.960  0.00  0.00    +0.000 C 
ATOM      7  O   UNL     1       1.395  12.423  21.065  0.00  0.00    +0.000 OA
ENDROOT
BRANCH   1   9
ATOM      8  C   UNL     1       1.086   8.969  19.577  0.00  0.00    +0.000 A 
ATOM      9  C   UNL     1       0.229   9.759  20.343  0.00  0.00    +0.000 A 
ATOM     10  C   UNL     1       0.429   9.286  21.680  0.00  0.00    +0.000 A 
ATOM     11  C   UNL     1      -0.171   9.768  22.948  0.00  0.00    +0.000 C 
ATOM     12  N   UNL     1       1.257   8.237  21.723  0.00  0.00    +0.000 NA
ATOM     13  N   UNL     1       1.522   7.988  20.431  0.00  0.00    +0.000 N 
ATOM     14  C   UNL     1       2.194   6.765  20.064  0.00  0.00    +0.000 C 
BRANCH   8  16
ATOM     15  C   UNL     1       2.268   9.995  17.825  0.00  0.00    +0.000 C 
ATOM     16  O   UNL     1       1.456   8.926  18.291  0.00  0.00    +0.000 OA
ENDBRANCH   8  16
ENDBRANCH   1   9
BRANCH   6  17
ATOM     17  C   UNL     1       1.666  13.839  19.236  0.00  0.00    +0.000 A 
ATOM     18  C   UNL     1       2.747  13.646  18.312  0.00  0.00    +0.000 A 
ATOM     19  C   UNL     1       3.146  14.884  17.887  0.00  0.00    +0.000 A 
ATOM     20  O   UNL     1       2.406  15.845  18.495  0.00  0.00    +0.000 OA
ATOM     21  C   UNL     1       1.535  15.218  19.339  0.00  0.00    +0.000 A 
ATOM     22  C   UNL     1       0.739  16.151  20.163  0.00  0.00    +0.000 C 
ENDBRANCH   6  17
TORSDOF 3
ENDMDL
MODEL 5
REMARK VINA RESULT:      -5.7     10.321     12.299
REMARK  Name = 
REMARK  7 active torsions:
REMARK  status: ('A' for Active; 'I' for Inactive)
REMARK    1  A    between atoms: C_1  and  O_2
REMARK    2  A    between atoms: O_2  and  C_3
REMARK    3  A    between atoms: C_4  and  C_5
REMARK    4  A    between atoms: C_10  and  C_12
REMARK    5  A    between atoms: C_16  and  C_17
REMARK    6  A    between atoms: C_18  and  C_19
REMARK    7  A    between atoms: N_21  and  C_22
REMARK                            x       y       z     vdW  Elec       q    Type
REMARK                         _______ _______ _______ _____ _____    ______ ____
ROOT
ATOM      1  C   UNL     1      -6.635  13.338  19.242  0.00  0.00    +0.000 C 
ATOM      2  C   UNL     1      -7.835  13.257  18.289  0.00  0.00    +0.000 C 
ATOM      3  C   UNL     1      -7.227  13.277  16.901  0.00  0.00    +0.000 C 
ATOM      4  C   UNL     1      -5.819  12.744  17.089  0.00  0.00    +0.000 C 
ATOM      5  N   UNL     1      -5.587  12.608  18.515  0.00  0.00    +0.000 N 
ATOM      6  C   UNL     1      -4.343  12.303  19.058  0.00  0.00    +0.000 C 
ATOM      7  O   UNL     1      -4.040  12.610  20.206  0.00  0.00    +0.000 OA
ENDROOT
BRANCH   1   9
ATOM      8  C   UNL     1      -7.154  13.562  21.766  0.00  0.00    +0.000 A 
ATOM      9  C   UNL     1      -7.003  12.818  20.596  0.00  0.00    +0.000 A 
ATOM     10  C   UNL     1      -7.295  11.475  21.003  0.00  0.00    +0.000 A 
ATOM     11  C   UNL     1      -7.344  10.236  20.190  0.00  0.00    +0.000 C 
ATOM     12  N   UNL     1      -7.509  11.384  22.320  0.00  0.00    +0.000 NA
ATOM     13  N   UNL     1      -7.281  12.629  22.765  0.00  0.00    +0.000 N 
ATOM     14  C   UNL     1      -7.177  12.871  24.184  0.00  0.00    +0.000 C 
BRANCH   8  16
ATOM     15  C   UNL     1      -5.841  15.490  22.043  0.00  0.00    +0.000 C 
ATOM     16  O   UNL     1      -7.114  14.860  22.087  0.00  0.00    +0.000 OA
ENDBRANCH   8  16
ENDBRANCH   1   9
BRANCH   6  17
ATOM     17  C   UNL     1      -3.442  11.435  18.287  0.00  0.00    +0.000 A 
ATOM     18  C   UNL     1      -3.792  10.143  17.773  0.00  0.00    +0.000 A 
ATOM     19  C   UNL     1      -2.680   9.631  17.160  0.00  0.00    +0.000 A 
ATOM     20  O   UNL     1      -1.646  10.502  17.272  0.00  0.00    +0.000 OA
ATOM     21  C   UNL     1      -2.092  11.578  17.984  0.00  0.00    +0.000 A 
ATOM     22  C   UNL     1      -1.035  12.564  18.288  0.00  0.00    +0.000 C 
ENDBRANCH   6  17
TORSDOF 3
ENDMDL
MODEL 6
REMARK VINA RESULT:      -5.7      2.160      3.943
REMARK  Name = 
REMARK  7 active torsions:
REMARK  status: ('A' for Active; 'I' for Inactive)
REMARK    1  A    between atoms: C_1  and  O_2
REMARK    2  A    between atoms: O_2  and  C_3
REMARK    3  A    between atoms: C_4  and  C_5
REMARK    4  A    between atoms: C_10  and  C_12
REMARK    5  A    between atoms: C_16  and  C_17
REMARK    6  A    between atoms: C_18  and  C_19
REMARK    7  A    between atoms: N_21  and  C_22
REMARK                            x       y       z     vdW  Elec       q    Type
REMARK                         _______ _______ _______ _____ _____    ______ ____
ROOT
ATOM      1  C   UNL     1       2.389   5.751  17.672  0.00  0.00    +0.000 C 
ATOM      2  C   UNL     1       1.536   4.507  17.952  0.00  0.00    +0.000 C 
ATOM      3  C   UNL     1       2.239   3.382  17.219  0.00  0.00    +0.000 C 
ATOM      4  C   UNL     1       3.683   3.835  17.114  0.00  0.00    +0.000 C 
ATOM      5  N   UNL     1       3.751   5.204  17.590  0.00  0.00    +0.000 N 
ATOM      6  C   UNL     1       4.892   5.992  17.481  0.00  0.00    +0.000 C 
ATOM      7  O   UNL     1       4.838   7.218  17.465  0.00  0.00    +0.000 OA
ENDROOT
BRANCH   1   9
ATOM      8  C   UNL     1       2.115   6.621  20.092  0.00  0.00    +0.000 A 
ATOM      9  C   UNL     1       2.146   6.801  18.710  0.00  0.00    +0.000 A 
ATOM     10  C   UNL     1       1.908   8.204  18.541  0.00  0.00    +0.000 A 
ATOM     11  C   UNL     1       1.868   9.008  17.295  0.00  0.00    +0.000 C 
ATOM     12  N   UNL     1       1.656   8.814  19.704  0.00  0.00    +0.000 NA
ATOM     13  N   UNL     1       1.653   7.811  20.595  0.00  0.00    +0.000 N 
ATOM     14  C   UNL     1       1.172   8.049  21.934  0.00  0.00    +0.000 C 
BRANCH   8  16
ATOM     15  C   UNL     1       1.412   4.523  20.883  0.00  0.00    +0.000 C 
ATOM     16  O   UNL     1       2.337   5.601  20.930  0.00  0.00    +0.000 OA
ENDBRANCH   8  16
ENDBRANCH   1   9
BRANCH   6  17
ATOM     17  C   UNL     1       6.203   5.333  17.566  0.00  0.00    +0.000 A 
ATOM     18  C   UNL     1       7.033   5.310  18.736  0.00  0.00    +0.000 A 
ATOM     19  C   UNL     1       8.185   4.648  18.407  0.00  0.00    +0.000 A 
ATOM     20  O   UNL     1       8.149   4.272  17.104  0.00  0.00    +0.000 OA
ATOM     21  C   UNL     1       6.968   4.717  16.582  0.00  0.00    +0.000 A 
ATOM     22  C   UNL     1       6.839   4.481  15.130  0.00  0.00    +0.000 C 
ENDBRANCH   6  17
TORSDOF 3
ENDMDL
MODEL 7
REMARK VINA RESULT:      -5.5      5.834      8.510
REMARK  Name = 
REMARK  7 active torsions:
REMARK  status: ('A' for Active; 'I' for Inactive)
REMARK    1  A    between atoms: C_1  and  O_2
REMARK    2  A    between atoms: O_2  and  C_3
REMARK    3  A    between atoms: C_4  and  C_5
REMARK    4  A    between atoms: C_10  and  C_12
REMARK    5  A    between atoms: C_16  and  C_17
REMARK    6  A    between atoms: C_18  and  C_19
REMARK    7  A    between atoms: N_21  and  C_22
REMARK                            x       y       z     vdW  Elec       q    Type
REMARK                         _______ _______ _______ _____ _____    ______ ____
ROOT
ATOM      1  C   UNL     1       0.741  11.285  19.013  0.00  0.00    +0.000 C 
ATOM      2  C   UNL     1       1.211  12.571  19.707  0.00  0.00    +0.000 C 
ATOM      3  C   UNL     1       0.588  13.694  18.902  0.00  0.00    +0.000 C 
ATOM      4  C   UNL     1      -0.633  13.071  18.253  0.00  0.00    +0.000 C 
ATOM      5  N   UNL     1      -0.597  11.646  18.524  0.00  0.00    +0.000 N 
ATOM      6  C   UNL     1      -1.473  10.738  17.939  0.00  0.00    +0.000 C 
ATOM      7  O   UNL     1      -1.191   9.551  17.809  0.00  0.00    +0.000 OA
ENDROOT
BRANCH   1   9
ATOM      8  C   UNL     1       1.588   8.966  19.781  0.00  0.00    +0.000 A 
ATOM      9  C   UNL     1       0.826  10.121  19.950  0.00  0.00    +0.000 A 
ATOM     10  C   UNL     1       0.178   9.924  21.212  0.00  0.00    +0.000 A 
ATOM     11  C   UNL     1      -0.731  10.832  21.954  0.00  0.00    +0.000 C 
ATOM     12  N   UNL     1       0.438   8.719  21.728  0.00  0.00    +0.000 NA
ATOM     13  N   UNL     1       1.174   8.120  20.779  0.00  0.00    +0.000 N 
ATOM     14  C   UNL     1       1.443   6.705  20.873  0.00  0.00    +0.000 C 
BRANCH   8  16
ATOM     15  C   UNL     1       1.991   8.242  17.583  0.00  0.00    +0.000 C 
ATOM     16  O   UNL     1       2.481   8.529  18.885  0.00  0.00    +0.000 OA
ENDBRANCH   8  16
ENDBRANCH   1   9
BRANCH   6  17
ATOM     17  C   UNL     1      -2.839  11.187  17.634  0.00  0.00    +0.000 A 
ATOM     18  C   UNL     1      -3.780  11.664  18.606  0.00  0.00    +0.000 A 
ATOM     19  C   UNL     1      -4.947  11.937  17.946  0.00  0.00    +0.000 A 
ATOM     20  O   UNL     1      -4.815  11.644  16.629  0.00  0.00    +0.000 OA
ATOM     21  C   UNL     1      -3.553  11.155  16.442  0.00  0.00    +0.000 A 
ATOM     22  C   UNL     1      -3.303  10.680  15.066  0.00  0.00    +0.000 C 
ENDBRANCH   6  17
TORSDOF 3
ENDMDL
MODEL 8
REMARK VINA RESULT:      -5.4      2.247      6.037
REMARK  Name = 
REMARK  7 active torsions:
REMARK  status: ('A' for Active; 'I' for Inactive)
REMARK    1  A    between atoms: C_1  and  O_2
REMARK    2  A    between atoms: O_2  and  C_3
REMARK    3  A    between atoms: C_4  and  C_5
REMARK    4  A    between atoms: C_10  and  C_12
REMARK    5  A    between atoms: C_16  and  C_17
REMARK    6  A    between atoms: C_18  and  C_19
REMARK    7  A    between atoms: N_21  and  C_22
REMARK                            x       y       z     vdW  Elec       q    Type
REMARK                         _______ _______ _______ _____ _____    ______ ____
ROOT
ATOM      1  C   UNL     1       6.885   4.503  16.976  0.00  0.00    +0.000 C 
ATOM      2  C   UNL     1       6.974   4.643  15.450  0.00  0.00    +0.000 C 
ATOM      3  C   UNL     1       6.048   3.572  14.910  0.00  0.00    +0.000 C 
ATOM      4  C   UNL     1       5.050   3.327  16.026  0.00  0.00    +0.000 C 
ATOM      5  N   UNL     1       5.495   4.075  17.187  0.00  0.00    +0.000 N 
ATOM      6  C   UNL     1       4.910   3.951  18.442  0.00  0.00    +0.000 C 
ATOM      7  O   UNL     1       5.519   4.215  19.474  0.00  0.00    +0.000 OA
ENDROOT
BRANCH   1   9
ATOM      8  C   UNL     1       6.963   7.071  17.273  0.00  0.00    +0.000 A 
ATOM      9  C   UNL     1       7.309   5.773  17.646  0.00  0.00    +0.000 A 
ATOM     10  C   UNL     1       8.132   5.956  18.804  0.00  0.00    +0.000 A 
ATOM     11  C   UNL     1       8.766   4.938  19.677  0.00  0.00    +0.000 C 
ATOM     12  N   UNL     1       8.354   7.248  19.064  0.00  0.00    +0.000 NA
ATOM     13  N   UNL     1       7.753   7.884  18.047  0.00  0.00    +0.000 N 
ATOM     14  C   UNL     1       7.987   9.294  17.850  0.00  0.00    +0.000 C 
BRANCH   8  16
ATOM     15  C   UNL     1       4.777   7.348  16.456  0.00  0.00    +0.000 C 
ATOM     16  O   UNL     1       6.167   7.623  16.349  0.00  0.00    +0.000 OA
ENDBRANCH   8  16
ENDBRANCH   1   9
BRANCH   6  17
ATOM     17  C   UNL     1       3.470   3.666  18.513  0.00  0.00    +0.000 A 
ATOM     18  C   UNL     1       2.897   2.353  18.568  0.00  0.00    +0.000 A 
ATOM     19  C   UNL     1       1.536   2.500  18.576  0.00  0.00    +0.000 A 
ATOM     20  O   UNL     1       1.211   3.815  18.507  0.00  0.00    +0.000 OA
ATOM     21  C   UNL     1       2.377   4.522  18.432  0.00  0.00    +0.000 A 
ATOM     22  C   UNL     1       2.175   5.971  18.233  0.00  0.00    +0.000 C 
ENDBRANCH   6  17
TORSDOF 3
ENDMDL
MODEL 9
REMARK VINA RESULT:      -5.4      6.409      9.143
REMARK  Name = 
REMARK  7 active torsions:
REMARK  status: ('A' for Active; 'I' for Inactive)
REMARK    1  A    between atoms: C_1  and  O_2
REMARK    2  A    between atoms: O_2  and  C_3
REMARK    3  A    between atoms: C_4  and  C_5
REMARK    4  A    between atoms: C_10  and  C_12
REMARK    5  A    between atoms: C_16  and  C_17
REMARK    6  A    between atoms: C_18  and  C_19
REMARK    7  A    between atoms: N_21  and  C_22
REMARK                            x       y       z     vdW  Elec       q    Type
REMARK                         _______ _______ _______ _____ _____    ______ ____
ROOT
ATOM      1  C   UNL     1       0.597  11.493  19.174  0.00  0.00    +0.000 C 
ATOM      2  C   UNL     1       1.043  12.864  19.698  0.00  0.00    +0.000 C 
ATOM      3  C   UNL     1       0.500  13.859  18.692  0.00  0.00    +0.000 C 
ATOM      4  C   UNL     1      -0.685  13.155  18.058  0.00  0.00    +0.000 C 
ATOM      5  N   UNL     1      -0.696  11.788  18.541  0.00  0.00    +0.000 N 
ATOM      6  C   UNL     1      -1.547  10.809  18.038  0.00  0.00    +0.000 C 
ATOM      7  O   UNL     1      -1.280   9.614  18.108  0.00  0.00    +0.000 OA
ENDROOT
BRANCH   1   9
ATOM      8  C   UNL     1       0.044  10.637  21.551  0.00  0.00    +0.000 A 
ATOM      9  C   UNL     1       0.593  10.483  20.278  0.00  0.00    +0.000 A 
ATOM     10  C   UNL     1       1.121   9.151  20.290  0.00  0.00    +0.000 A 
ATOM     11  C   UNL     1       1.788   8.394  19.203  0.00  0.00    +0.000 C 
ATOM     12  N   UNL     1       0.997   8.572  21.489  0.00  0.00    +0.000 NA
ATOM     13  N   UNL     1       0.473   9.540  22.256  0.00  0.00    +0.000 N 
ATOM     14  C   UNL     1       0.421   9.365  23.688  0.00  0.00    +0.000 C 
BRANCH   8  16
ATOM     15  C   UNL     1      -1.979  11.822  21.699  0.00  0.00    +0.000 C 
ATOM     16  O   UNL     1      -0.664  11.581  22.181  0.00  0.00    +0.000 OA
ENDBRANCH   8  16
ENDBRANCH   1   9
BRANCH   6  17
ATOM     17  C   UNL     1      -2.880  11.220  17.572  0.00  0.00    +0.000 A 
ATOM     18  C   UNL     1      -3.913  11.752  18.413  0.00  0.00    +0.000 A 
ATOM     19  C   UNL     1      -5.012  11.964  17.626  0.00  0.00    +0.000 A 
ATOM     20  O   UNL     1      -4.751  11.582  16.351  0.00  0.00    +0.000 OA
ATOM     21  C   UNL     1      -3.475  11.097  16.322  0.00  0.00    +0.000 A 
ATOM     22  C   UNL     1      -3.089  10.531  15.013  0.00  0.00    +0.000 C 
ENDBRANCH   6  17
TORSDOF 3
ENDMDL
