MODEL 1
REMARK VINA RESULT:      -8.1      0.000      0.000
REMARK  Name = 
REMARK  6 active torsions:
REMARK  status: ('A' for Active; 'I' for Inactive)
REMARK    1  A    between atoms: C_5  and  C_6
REMARK    2  A    between atoms: C_6  and  C_7
REMARK    3  A    between atoms: C_6  and  O_13
REMARK    4  A    between atoms: C_7  and  N_8
REMARK    5  A    between atoms: O_13  and  C_14
REMARK    6  A    between atoms: C_14  and  C_15
REMARK                            x       y       z     vdW  Elec       q    Type
REMARK                         _______ _______ _______ _____ _____    ______ ____
ROOT
ATOM      1  C   UNL     1       2.642   5.876  18.523  0.00  0.00    +0.000 C 
ENDROOT
BRANCH   1   6
ATOM      2 CL   UNL     1       7.161   4.841  14.632  0.00  0.00    +0.000 Cl
ATOM      3  C   UNL     1       5.858   5.130  15.714  0.00  0.00    +0.000 A 
ATOM      4  C   UNL     1       5.695   6.393  16.274  0.00  0.00    +0.000 A 
ATOM      5  C   UNL     1       4.655   6.619  17.172  0.00  0.00    +0.000 A 
ATOM      6  C   UNL     1       3.749   5.595  17.505  0.00  0.00    +0.000 A 
ATOM      7  C   UNL     1       3.925   4.329  16.920  0.00  0.00    +0.000 A 
ATOM      8 CL   UNL     1       2.872   3.006  17.271  0.00  0.00    +0.000 Cl
ATOM      9  C   UNL     1       4.979   4.098  16.032  0.00  0.00    +0.000 A 
ENDBRANCH   1   6
BRANCH   1  10
ATOM     10  C   UNL     1       3.161   5.438  19.908  0.00  0.00    +0.000 C 
BRANCH  10  11
ATOM     11  N   UNL     1       2.531   4.238  20.418  0.00  0.00    +0.000 N 
ATOM     12  C   UNL     1       3.158   3.145  20.944  0.00  0.00    +0.000 A 
ATOM     13  C   UNL     1       2.136   2.319  21.363  0.00  0.00    +0.000 A 
ATOM     14  N   UNL     1       0.917   2.894  21.117  0.00  0.00    +0.000 NA
ATOM     15  C   UNL     1       1.186   4.055  20.567  0.00  0.00    +0.000 A 
ENDBRANCH  10  11
ENDBRANCH   1  10
BRANCH   1  16
ATOM     16  O   UNL     1       2.325   7.287  18.525  0.00  0.00    +0.000 OA
BRANCH  16  17
ATOM     17  C   UNL     1       1.997   7.744  19.846  0.00  0.00    +0.000 C 
BRANCH  17  18
ATOM     18  C   UNL     1       1.250   9.047  19.877  0.00  0.00    +0.000 A 
ATOM     19  C   UNL     1       1.067   9.822  18.748  0.00  0.00    +0.000 A 
ATOM     20  S   UNL     1       0.033  11.144  19.002  0.00  0.00    +0.000 S 
ATOM     21  C   UNL     1      -0.216  10.733  20.658  0.00  0.00    +0.000 A 
ATOM     22  C   UNL     1      -1.059  11.372  21.598  0.00  0.00    +0.000 A 
ATOM     23 CL   UNL     1      -2.068  12.703  21.157  0.00  0.00    +0.000 Cl
ATOM     24  C   UNL     1      -1.101  10.911  22.914  0.00  0.00    +0.000 A 
ATOM     25  C   UNL     1      -0.312   9.840  23.303  0.00  0.00    +0.000 A 
ATOM     26  C   UNL     1       0.501   9.189  22.370  0.00  0.00    +0.000 A 
ATOM     27  C   UNL     1       0.554   9.614  21.017  0.00  0.00    +0.000 A 
ENDBRANCH  17  18
ENDBRANCH  16  17
ENDBRANCH   1  16
TORSDOF 6
ENDMDL
MODEL 2
REMARK VINA RESULT:      -7.4      1.203      1.748
REMARK  Name = 
REMARK  6 active torsions:
REMARK  status: ('A' for Active; 'I' for Inactive)
REMARK    1  A    between atoms: C_5  and  C_6
REMARK    2  A    between atoms: C_6  and  C_7
REMARK    3  A    between atoms: C_6  and  O_13
REMARK    4  A    between atoms: C_7  and  N_8
REMARK    5  A    between atoms: O_13  and  C_14
REMARK    6  A    between atoms: C_14  and  C_15
REMARK                            x       y       z     vdW  Elec       q    Type
REMARK                         _______ _______ _______ _____ _____    ______ ____
ROOT
ATOM      1  C   UNL     1       3.177   6.162  18.527  0.00  0.00    +0.000 C 
ENDROOT
BRANCH   1   6
ATOM      2 CL   UNL     1       7.308   4.767  14.330  0.00  0.00    +0.000 Cl
ATOM      3  C   UNL     1       6.114   5.163  15.500  0.00  0.00    +0.000 A 
ATOM      4  C   UNL     1       6.191   6.375  16.178  0.00  0.00    +0.000 A 
ATOM      5  C   UNL     1       5.237   6.684  17.146  0.00  0.00    +0.000 A 
ATOM      6  C   UNL     1       4.182   5.799  17.432  0.00  0.00    +0.000 A 
ATOM      7  C   UNL     1       4.117   4.585  16.729  0.00  0.00    +0.000 A 
ATOM      8 CL   UNL     1       2.866   3.429  17.014  0.00  0.00    +0.000 Cl
ATOM      9  C   UNL     1       5.083   4.267  15.769  0.00  0.00    +0.000 A 
ENDBRANCH   1   6
BRANCH   1  10
ATOM     10  C   UNL     1       3.619   5.446  19.820  0.00  0.00    +0.000 C 
BRANCH  10  11
ATOM     11  N   UNL     1       2.741   4.368  20.223  0.00  0.00    +0.000 N 
ATOM     12  C   UNL     1       3.110   3.100  20.571  0.00  0.00    +0.000 A 
ATOM     13  C   UNL     1       1.937   2.484  20.955  0.00  0.00    +0.000 A 
ATOM     14  N   UNL     1       0.881   3.352  20.862  0.00  0.00    +0.000 NA
ATOM     15  C   UNL     1       1.397   4.483  20.439  0.00  0.00    +0.000 A 
ENDBRANCH  10  11
ENDBRANCH   1  10
BRANCH   1  16
ATOM     16  O   UNL     1       3.161   7.595  18.723  0.00  0.00    +0.000 OA
BRANCH  16  17
ATOM     17  C   UNL     1       1.852   8.137  18.491  0.00  0.00    +0.000 C 
BRANCH  17  18
ATOM     18  C   UNL     1       1.195   8.704  19.717  0.00  0.00    +0.000 A 
ATOM     19  C   UNL     1       1.520   8.282  20.992  0.00  0.00    +0.000 A 
ATOM     20  S   UNL     1       0.782   9.202  22.212  0.00  0.00    +0.000 S 
ATOM     21  C   UNL     1      -0.018  10.219  21.071  0.00  0.00    +0.000 A 
ATOM     22  C   UNL     1      -0.838  11.343  21.329  0.00  0.00    +0.000 A 
ATOM     23 CL   UNL     1      -1.109  11.922  22.934  0.00  0.00    +0.000 Cl
ATOM     24  C   UNL     1      -1.431  12.024  20.266  0.00  0.00    +0.000 A 
ATOM     25  C   UNL     1      -1.230  11.594  18.964  0.00  0.00    +0.000 A 
ATOM     26  C   UNL     1      -0.398  10.500  18.703  0.00  0.00    +0.000 A 
ATOM     27  C   UNL     1       0.241   9.796  19.756  0.00  0.00    +0.000 A 
ENDBRANCH  17  18
ENDBRANCH  16  17
ENDBRANCH   1  16
TORSDOF 6
ENDMDL
MODEL 3
REMARK VINA RESULT:      -7.3      1.645      2.328
REMARK  Name = 
REMARK  6 active torsions:
REMARK  status: ('A' for Active; 'I' for Inactive)
REMARK    1  A    between atoms: C_5  and  C_6
REMARK    2  A    between atoms: C_6  and  C_7
REMARK    3  A    between atoms: C_6  and  O_13
REMARK    4  A    between atoms: C_7  and  N_8
REMARK    5  A    between atoms: O_13  and  C_14
REMARK    6  A    between atoms: C_14  and  C_15
REMARK                            x       y       z     vdW  Elec       q    Type
REMARK                         _______ _______ _______ _____ _____    ______ ____
ROOT
ATOM      1  C   UNL     1       2.620   6.695  18.574  0.00  0.00    +0.000 C 
ENDROOT
BRANCH   1   6
ATOM      2 CL   UNL     1       7.174   4.515  15.238  0.00  0.00    +0.000 Cl
ATOM      3  C   UNL     1       5.864   5.134  16.160  0.00  0.00    +0.000 A 
ATOM      4  C   UNL     1       5.969   6.391  16.747  0.00  0.00    +0.000 A 
ATOM      5  C   UNL     1       4.916   6.881  17.517  0.00  0.00    +0.000 A 
ATOM      6  C   UNL     1       3.737   6.135  17.692  0.00  0.00    +0.000 A 
ATOM      7  C   UNL     1       3.647   4.872  17.082  0.00  0.00    +0.000 A 
ATOM      8 CL   UNL     1       2.245   3.876  17.243  0.00  0.00    +0.000 Cl
ATOM      9  C   UNL     1       4.709   4.373  16.323  0.00  0.00    +0.000 A 
ENDBRANCH   1   6
BRANCH   1  10
ATOM     10  C   UNL     1       2.890   6.227  20.019  0.00  0.00    +0.000 C 
BRANCH  10  11
ATOM     11  N   UNL     1       2.403   4.894  20.304  0.00  0.00    +0.000 N 
ATOM     12  C   UNL     1       3.158   3.789  20.580  0.00  0.00    +0.000 A 
ATOM     13  C   UNL     1       2.242   2.798  20.865  0.00  0.00    +0.000 A 
ATOM     14  N   UNL     1       0.963   3.282  20.783  0.00  0.00    +0.000 NA
ATOM     15  C   UNL     1       1.091   4.549  20.464  0.00  0.00    +0.000 A 
ENDBRANCH  10  11
ENDBRANCH   1  10
BRANCH   1  16
ATOM     16  O   UNL     1       2.617   8.139  18.503  0.00  0.00    +0.000 OA
BRANCH  16  17
ATOM     17  C   UNL     1       1.434   8.626  17.850  0.00  0.00    +0.000 C 
BRANCH  17  18
ATOM     18  C   UNL     1       0.576   9.508  18.711  0.00  0.00    +0.000 A 
ATOM     19  C   UNL     1       0.990   9.965  19.948  0.00  0.00    +0.000 A 
ATOM     20  S   UNL     1      -0.073  11.093  20.637  0.00  0.00    +0.000 S 
ATOM     21  C   UNL     1      -1.152  11.017  19.293  0.00  0.00    +0.000 A 
ATOM     22  C   UNL     1      -2.334  11.765  19.081  0.00  0.00    +0.000 A 
ATOM     23 CL   UNL     1      -2.850  12.984  20.190  0.00  0.00    +0.000 Cl
ATOM     24  C   UNL     1      -3.100  11.536  17.938  0.00  0.00    +0.000 A 
ATOM     25  C   UNL     1      -2.713  10.571  17.021  0.00  0.00    +0.000 A 
ATOM     26  C   UNL     1      -1.531   9.850  17.214  0.00  0.00    +0.000 A 
ATOM     27  C   UNL     1      -0.713  10.071  18.353  0.00  0.00    +0.000 A 
ENDBRANCH  17  18
ENDBRANCH  16  17
ENDBRANCH   1  16
TORSDOF 6
ENDMDL
MODEL 4
REMARK VINA RESULT:      -7.3      2.504      3.746
REMARK  Name = 
REMARK  6 active torsions:
REMARK  status: ('A' for Active; 'I' for Inactive)
REMARK    1  A    between atoms: C_5  and  C_6
REMARK    2  A    between atoms: C_6  and  C_7
REMARK    3  A    between atoms: C_6  and  O_13
REMARK    4  A    between atoms: C_7  and  N_8
REMARK    5  A    between atoms: O_13  and  C_14
REMARK    6  A    between atoms: C_14  and  C_15
REMARK                            x       y       z     vdW  Elec       q    Type
REMARK                         _______ _______ _______ _____ _____    ______ ____
ROOT
ATOM      1  C   UNL     1       1.883   7.628  18.901  0.00  0.00    +0.000 C 
ENDROOT
BRANCH   1   6
ATOM      2 CL   UNL     1       5.826   4.049  16.025  0.00  0.00    +0.000 Cl
ATOM      3  C   UNL     1       4.685   5.056  16.822  0.00  0.00    +0.000 A 
ATOM      4  C   UNL     1       4.862   6.436  16.816  0.00  0.00    +0.000 A 
ATOM      5  C   UNL     1       3.951   7.250  17.485  0.00  0.00    +0.000 A 
ATOM      6  C   UNL     1       2.839   6.700  18.149  0.00  0.00    +0.000 A 
ATOM      7  C   UNL     1       2.673   5.305  18.134  0.00  0.00    +0.000 A 
ATOM      8 CL   UNL     1       1.345   4.534  18.925  0.00  0.00    +0.000 Cl
ATOM      9  C   UNL     1       3.596   4.486  17.476  0.00  0.00    +0.000 A 
ENDBRANCH   1   6
BRANCH   1  10
ATOM     10  C   UNL     1       2.060   7.354  20.408  0.00  0.00    +0.000 C 
BRANCH  10  11
ATOM     11  N   UNL     1       1.222   8.176  21.256  0.00  0.00    +0.000 N 
ATOM     12  C   UNL     1      -0.139   8.127  21.355  0.00  0.00    +0.000 A 
ATOM     13  C   UNL     1      -0.454   9.033  22.347  0.00  0.00    +0.000 A 
ATOM     14  N   UNL     1       0.680   9.609  22.854  0.00  0.00    +0.000 NA
ATOM     15  C   UNL     1       1.674   9.060  22.194  0.00  0.00    +0.000 A 
ENDBRANCH  10  11
ENDBRANCH   1  10
BRANCH   1  16
ATOM     16  O   UNL     1       2.196   9.006  18.597  0.00  0.00    +0.000 OA
BRANCH  16  17
ATOM     17  C   UNL     1       1.156   9.616  17.817  0.00  0.00    +0.000 C 
BRANCH  17  18
ATOM     18  C   UNL     1       0.193  10.445  18.618  0.00  0.00    +0.000 A 
ATOM     19  C   UNL     1       0.610  11.311  19.611  0.00  0.00    +0.000 A 
ATOM     20  S   UNL     1      -0.643  12.269  20.236  0.00  0.00    +0.000 S 
ATOM     21  C   UNL     1      -1.816  11.556  19.192  0.00  0.00    +0.000 A 
ATOM     22  C   UNL     1      -3.186  11.887  19.065  0.00  0.00    +0.000 A 
ATOM     23 CL   UNL     1      -3.895  13.184  19.958  0.00  0.00    +0.000 Cl
ATOM     24  C   UNL     1      -3.992  11.167  18.183  0.00  0.00    +0.000 A 
ATOM     25  C   UNL     1      -3.456  10.125  17.443  0.00  0.00    +0.000 A 
ATOM     26  C   UNL     1      -2.097   9.813  17.545  0.00  0.00    +0.000 A 
ATOM     27  C   UNL     1      -1.241  10.537  18.414  0.00  0.00    +0.000 A 
ENDBRANCH  17  18
ENDBRANCH  16  17
ENDBRANCH   1  16
TORSDOF 6
ENDMDL
MODEL 5
REMARK VINA RESULT:      -7.2      2.333      4.004
REMARK  Name = 
REMARK  6 active torsions:
REMARK  status: ('A' for Active; 'I' for Inactive)
REMARK    1  A    between atoms: C_5  and  C_6
REMARK    2  A    between atoms: C_6  and  C_7
REMARK    3  A    between atoms: C_6  and  O_13
REMARK    4  A    between atoms: C_7  and  N_8
REMARK    5  A    between atoms: O_13  and  C_14
REMARK    6  A    between atoms: C_14  and  C_15
REMARK                            x       y       z     vdW  Elec       q    Type
REMARK                         _______ _______ _______ _____ _____    ______ ____
ROOT
ATOM      1  C   UNL     1       3.434   6.993  18.051  0.00  0.00    +0.000 C 
ENDROOT
BRANCH   1   6
ATOM      2 CL   UNL     1       1.877   1.217  18.969  0.00  0.00    +0.000 Cl
ATOM      3  C   UNL     1       2.319   2.861  18.738  0.00  0.00    +0.000 A 
ATOM      4  C   UNL     1       1.444   3.724  18.086  0.00  0.00    +0.000 A 
ATOM      5  C   UNL     1       1.815   5.050  17.876  0.00  0.00    +0.000 A 
ATOM      6  C   UNL     1       3.052   5.539  18.334  0.00  0.00    +0.000 A 
ATOM      7  C   UNL     1       3.917   4.653  19.000  0.00  0.00    +0.000 A 
ATOM      8 CL   UNL     1       5.460   5.155  19.593  0.00  0.00    +0.000 Cl
ATOM      9  C   UNL     1       3.552   3.318  19.197  0.00  0.00    +0.000 A 
ENDBRANCH   1   6
BRANCH   1  10
ATOM     10  C   UNL     1       3.994   7.055  16.615  0.00  0.00    +0.000 C 
BRANCH  10  11
ATOM     11  N   UNL     1       5.307   6.462  16.470  0.00  0.00    +0.000 N 
ATOM     12  C   UNL     1       5.630   5.362  15.729  0.00  0.00    +0.000 A 
ATOM     13  C   UNL     1       7.000   5.251  15.842  0.00  0.00    +0.000 A 
ATOM     14  N   UNL     1       7.507   6.262  16.615  0.00  0.00    +0.000 NA
ATOM     15  C   UNL     1       6.468   6.986  16.963  0.00  0.00    +0.000 A 
ENDBRANCH  10  11
ENDBRANCH   1  10
BRANCH   1  16
ATOM     16  O   UNL     1       2.268   7.839  18.176  0.00  0.00    +0.000 OA
BRANCH  16  17
ATOM     17  C   UNL     1       1.978   8.124  19.553  0.00  0.00    +0.000 C 
BRANCH  17  18
ATOM     18  C   UNL     1       1.171   9.373  19.765  0.00  0.00    +0.000 A 
ATOM     19  C   UNL     1       0.895  10.259  18.740  0.00  0.00    +0.000 A 
ATOM     20  S   UNL     1      -0.188  11.486  19.188  0.00  0.00    +0.000 S 
ATOM     21  C   UNL     1      -0.337  10.879  20.796  0.00  0.00    +0.000 A 
ATOM     22  C   UNL     1      -1.163  11.363  21.837  0.00  0.00    +0.000 A 
ATOM     23 CL   UNL     1      -2.257  12.677  21.595  0.00  0.00    +0.000 Cl
ATOM     24  C   UNL     1      -1.119  10.755  23.092  0.00  0.00    +0.000 A 
ATOM     25  C   UNL     1      -0.261   9.692  23.322  0.00  0.00    +0.000 A 
ATOM     26  C   UNL     1       0.537   9.194  22.287  0.00  0.00    +0.000 A 
ATOM     27  C   UNL     1       0.503   9.770  20.991  0.00  0.00    +0.000 A 
ENDBRANCH  17  18
ENDBRANCH  16  17
ENDBRANCH   1  16
TORSDOF 6
ENDMDL
MODEL 6
REMARK VINA RESULT:      -7.2      0.772      1.098
REMARK  Name = 
REMARK  6 active torsions:
REMARK  status: ('A' for Active; 'I' for Inactive)
REMARK    1  A    between atoms: C_5  and  C_6
REMARK    2  A    between atoms: C_6  and  C_7
REMARK    3  A    between atoms: C_6  and  O_13
REMARK    4  A    between atoms: C_7  and  N_8
REMARK    5  A    between atoms: O_13  and  C_14
REMARK    6  A    between atoms: C_14  and  C_15
REMARK                            x       y       z     vdW  Elec       q    Type
REMARK                         _______ _______ _______ _____ _____    ______ ____
ROOT
ATOM      1  C   UNL     1       2.698   5.878  18.557  0.00  0.00    +0.000 C 
ENDROOT
BRANCH   1   6
ATOM      2 CL   UNL     1       7.097   4.977  14.499  0.00  0.00    +0.000 Cl
ATOM      3  C   UNL     1       5.828   5.232  15.628  0.00  0.00    +0.000 A 
ATOM      4  C   UNL     1       5.769   6.426  16.340  0.00  0.00    +0.000 A 
ATOM      5  C   UNL     1       4.755   6.621  17.275  0.00  0.00    +0.000 A 
ATOM      6  C   UNL     1       3.773   5.638  17.495  0.00  0.00    +0.000 A 
ATOM      7  C   UNL     1       3.845   4.443  16.758  0.00  0.00    +0.000 A 
ATOM      8 CL   UNL     1       2.692   3.172  16.962  0.00  0.00    +0.000 Cl
ATOM      9  C   UNL     1       4.872   4.240  15.832  0.00  0.00    +0.000 A 
ENDBRANCH   1   6
BRANCH   1  10
ATOM     10  C   UNL     1       3.327   5.577  19.932  0.00  0.00    +0.000 C 
BRANCH  10  11
ATOM     11  N   UNL     1       3.565   4.169  20.174  0.00  0.00    +0.000 N 
ATOM     12  C   UNL     1       2.650   3.244  20.590  0.00  0.00    +0.000 A 
ATOM     13  C   UNL     1       3.332   2.046  20.587  0.00  0.00    +0.000 A 
ATOM     14  N   UNL     1       4.623   2.225  20.165  0.00  0.00    +0.000 NA
ATOM     15  C   UNL     1       4.729   3.507  19.905  0.00  0.00    +0.000 A 
ENDBRANCH  10  11
ENDBRANCH   1  10
BRANCH   1  16
ATOM     16  O   UNL     1       2.247   7.250  18.496  0.00  0.00    +0.000 OA
BRANCH  16  17
ATOM     17  C   UNL     1       1.985   7.770  19.809  0.00  0.00    +0.000 C 
BRANCH  17  18
ATOM     18  C   UNL     1       1.225   9.066  19.816  0.00  0.00    +0.000 A 
ATOM     19  C   UNL     1       1.029   9.815  18.671  0.00  0.00    +0.000 A 
ATOM     20  S   UNL     1      -0.017  11.131  18.902  0.00  0.00    +0.000 S 
ATOM     21  C   UNL     1      -0.255  10.753  20.568  0.00  0.00    +0.000 A 
ATOM     22  C   UNL     1      -1.100  11.403  21.498  0.00  0.00    +0.000 A 
ATOM     23 CL   UNL     1      -2.124  12.714  21.034  0.00  0.00    +0.000 Cl
ATOM     24  C   UNL     1      -1.131  10.970  22.823  0.00  0.00    +0.000 A 
ATOM     25  C   UNL     1      -0.330   9.915  23.231  0.00  0.00    +0.000 A 
ATOM     26  C   UNL     1       0.486   9.252  22.308  0.00  0.00    +0.000 A 
ATOM     27  C   UNL     1       0.528   9.649  20.947  0.00  0.00    +0.000 A 
ENDBRANCH  17  18
ENDBRANCH  16  17
ENDBRANCH   1  16
TORSDOF 6
ENDMDL
MODEL 7
REMARK VINA RESULT:      -7.1      2.362      3.949
REMARK  Name = 
REMARK  6 active torsions:
REMARK  status: ('A' for Active; 'I' for Inactive)
REMARK    1  A    between atoms: C_5  and  C_6
REMARK    2  A    between atoms: C_6  and  C_7
REMARK    3  A    between atoms: C_6  and  O_13
REMARK    4  A    between atoms: C_7  and  N_8
REMARK    5  A    between atoms: O_13  and  C_14
REMARK    6  A    between atoms: C_14  and  C_15
REMARK                            x       y       z     vdW  Elec       q    Type
REMARK                         _______ _______ _______ _____ _____    ______ ____
ROOT
ATOM      1  C   UNL     1       4.035   7.012  17.703  0.00  0.00    +0.000 C 
ENDROOT
BRANCH   1   6
ATOM      2 CL   UNL     1       1.609   1.726  19.377  0.00  0.00    +0.000 Cl
ATOM      3  C   UNL     1       2.298   3.235  18.930  0.00  0.00    +0.000 A 
ATOM      4  C   UNL     1       1.587   4.097  18.100  0.00  0.00    +0.000 A 
ATOM      5  C   UNL     1       2.157   5.309  17.717  0.00  0.00    +0.000 A 
ATOM      6  C   UNL     1       3.432   5.688  18.176  0.00  0.00    +0.000 A 
ATOM      7  C   UNL     1       4.128   4.808  19.023  0.00  0.00    +0.000 A 
ATOM      8 CL   UNL     1       5.701   5.178  19.632  0.00  0.00    +0.000 Cl
ATOM      9  C   UNL     1       3.563   3.584  19.394  0.00  0.00    +0.000 A 
ENDBRANCH   1   6
BRANCH   1  10
ATOM     10  C   UNL     1       4.476   6.824  16.236  0.00  0.00    +0.000 C 
BRANCH  10  11
ATOM     11  N   UNL     1       5.483   5.801  16.052  0.00  0.00    +0.000 N 
ATOM     12  C   UNL     1       6.759   5.813  16.537  0.00  0.00    +0.000 A 
ATOM     13  C   UNL     1       7.287   4.592  16.171  0.00  0.00    +0.000 A 
ATOM     14  N   UNL     1       6.359   3.845  15.497  0.00  0.00    +0.000 NA
ATOM     15  C   UNL     1       5.277   4.589  15.457  0.00  0.00    +0.000 A 
ENDBRANCH  10  11
ENDBRANCH   1  10
BRANCH   1  16
ATOM     16  O   UNL     1       3.049   8.064  17.804  0.00  0.00    +0.000 OA
BRANCH  16  17
ATOM     17  C   UNL     1       2.285   7.946  19.014  0.00  0.00    +0.000 C 
BRANCH  17  18
ATOM     18  C   UNL     1       1.422   9.139  19.314  0.00  0.00    +0.000 A 
ATOM     19  C   UNL     1       0.978   9.998  18.327  0.00  0.00    +0.000 A 
ATOM     20  S   UNL     1      -0.132  11.152  18.892  0.00  0.00    +0.000 S 
ATOM     21  C   UNL     1      -0.062  10.546  20.505  0.00  0.00    +0.000 A 
ATOM     22  C   UNL     1      -0.801  10.979  21.631  0.00  0.00    +0.000 A 
ATOM     23 CL   UNL     1      -2.001  12.215  21.511  0.00  0.00    +0.000 Cl
ATOM     24  C   UNL     1      -0.579  10.383  22.873  0.00  0.00    +0.000 A 
ATOM     25  C   UNL     1       0.369   9.382  23.007  0.00  0.00    +0.000 A 
ATOM     26  C   UNL     1       1.081   8.932  21.890  0.00  0.00    +0.000 A 
ATOM     27  C   UNL     1       0.868   9.497  20.606  0.00  0.00    +0.000 A 
ENDBRANCH  17  18
ENDBRANCH  16  17
ENDBRANCH   1  16
TORSDOF 6
ENDMDL
MODEL 8
REMARK VINA RESULT:      -7.1      1.817      2.142
REMARK  Name = 
REMARK  6 active torsions:
REMARK  status: ('A' for Active; 'I' for Inactive)
REMARK    1  A    between atoms: C_5  and  C_6
REMARK    2  A    between atoms: C_6  and  C_7
REMARK    3  A    between atoms: C_6  and  O_13
REMARK    4  A    between atoms: C_7  and  N_8
REMARK    5  A    between atoms: O_13  and  C_14
REMARK    6  A    between atoms: C_14  and  C_15
REMARK                            x       y       z     vdW  Elec       q    Type
REMARK                         _______ _______ _______ _____ _____    ______ ____
ROOT
ATOM      1  C   UNL     1       2.852   6.735  18.196  0.00  0.00    +0.000 C 
ENDROOT
BRANCH   1   6
ATOM      2 CL   UNL     1       8.425   4.379  18.043  0.00  0.00    +0.000 Cl
ATOM      3  C   UNL     1       6.855   5.076  18.083  0.00  0.00    +0.000 A 
ATOM      4  C   UNL     1       6.082   4.965  19.235  0.00  0.00    +0.000 A 
ATOM      5  C   UNL     1       4.799   5.507  19.258  0.00  0.00    +0.000 A 
ATOM      6  C   UNL     1       4.279   6.186  18.141  0.00  0.00    +0.000 A 
ATOM      7  C   UNL     1       5.080   6.296  16.992  0.00  0.00    +0.000 A 
ATOM      8 CL   UNL     1       4.530   7.105  15.568  0.00  0.00    +0.000 Cl
ATOM      9  C   UNL     1       6.362   5.739  16.963  0.00  0.00    +0.000 A 
ENDBRANCH   1   6
BRANCH   1  10
ATOM     10  C   UNL     1       2.168   6.129  19.439  0.00  0.00    +0.000 C 
BRANCH  10  11
ATOM     11  N   UNL     1       1.660   4.789  19.234  0.00  0.00    +0.000 N 
ATOM     12  C   UNL     1       1.123   3.965  20.180  0.00  0.00    +0.000 A 
ATOM     13  C   UNL     1       0.712   2.848  19.483  0.00  0.00    +0.000 A 
ATOM     14  N   UNL     1       0.973   2.987  18.146  0.00  0.00    +0.000 NA
ATOM     15  C   UNL     1       1.525   4.172  18.022  0.00  0.00    +0.000 A 
ENDBRANCH  10  11
ENDBRANCH   1  10
BRANCH   1  16
ATOM     16  O   UNL     1       2.885   8.178  18.291  0.00  0.00    +0.000 OA
BRANCH  16  17
ATOM     17  C   UNL     1       1.577   8.741  18.111  0.00  0.00    +0.000 C 
BRANCH  17  18
ATOM     18  C   UNL     1       1.286   9.915  19.002  0.00  0.00    +0.000 A 
ATOM     19  C   UNL     1       1.482  11.221  18.593  0.00  0.00    +0.000 A 
ATOM     20  S   UNL     1       0.903  12.366  19.704  0.00  0.00    +0.000 S 
ATOM     21  C   UNL     1       0.360  11.148  20.798  0.00  0.00    +0.000 A 
ATOM     22  C   UNL     1      -0.329  11.319  22.021  0.00  0.00    +0.000 A 
ATOM     23 CL   UNL     1      -0.808  12.880  22.584  0.00  0.00    +0.000 Cl
ATOM     24  C   UNL     1      -0.657  10.204  22.792  0.00  0.00    +0.000 A 
ATOM     25  C   UNL     1      -0.297   8.934  22.368  0.00  0.00    +0.000 A 
ATOM     26  C   UNL     1       0.360   8.759  21.146  0.00  0.00    +0.000 A 
ATOM     27  C   UNL     1       0.690   9.867  20.324  0.00  0.00    +0.000 A 
ENDBRANCH  17  18
ENDBRANCH  16  17
ENDBRANCH   1  16
TORSDOF 6
ENDMDL
MODEL 9
REMARK VINA RESULT:      -6.9      1.654      2.201
REMARK  Name = 
REMARK  6 active torsions:
REMARK  status: ('A' for Active; 'I' for Inactive)
REMARK    1  A    between atoms: C_5  and  C_6
REMARK    2  A    between atoms: C_6  and  C_7
REMARK    3  A    between atoms: C_6  and  O_13
REMARK    4  A    between atoms: C_7  and  N_8
REMARK    5  A    between atoms: O_13  and  C_14
REMARK    6  A    between atoms: C_14  and  C_15
REMARK                            x       y       z     vdW  Elec       q    Type
REMARK                         _______ _______ _______ _____ _____    ______ ____
ROOT
ATOM      1  C   UNL     1       3.982   4.948  17.824  0.00  0.00    +0.000 C 
ENDROOT
BRANCH   1   6
ATOM      2 CL   UNL     1       8.045   4.903  13.338  0.00  0.00    +0.000 Cl
ATOM      3  C   UNL     1       6.909   4.897  14.627  0.00  0.00    +0.000 A 
ATOM      4  C   UNL     1       5.624   4.408  14.410  0.00  0.00    +0.000 A 
ATOM      5  C   UNL     1       4.696   4.427  15.448  0.00  0.00    +0.000 A 
ATOM      6  C   UNL     1       5.043   4.912  16.722  0.00  0.00    +0.000 A 
ATOM      7  C   UNL     1       6.349   5.392  16.923  0.00  0.00    +0.000 A 
ATOM      8 CL   UNL     1       6.869   6.015  18.448  0.00  0.00    +0.000 Cl
ATOM      9  C   UNL     1       7.276   5.387  15.877  0.00  0.00    +0.000 A 
ENDBRANCH   1   6
BRANCH   1  10
ATOM     10  C   UNL     1       4.277   3.784  18.792  0.00  0.00    +0.000 C 
BRANCH  10  11
ATOM     11  N   UNL     1       3.092   3.178  19.360  0.00  0.00    +0.000 N 
ATOM     12  C   UNL     1       2.077   2.570  18.678  0.00  0.00    +0.000 A 
ATOM     13  C   UNL     1       1.236   2.082  19.656  0.00  0.00    +0.000 A 
ATOM     14  N   UNL     1       1.727   2.367  20.903  0.00  0.00    +0.000 NA
ATOM     15  C   UNL     1       2.854   3.008  20.694  0.00  0.00    +0.000 A 
ENDBRANCH  10  11
ENDBRANCH   1  10
BRANCH   1  16
ATOM     16  O   UNL     1       4.043   6.214  18.521  0.00  0.00    +0.000 OA
BRANCH  16  17
ATOM     17  C   UNL     1       2.836   6.459  19.259  0.00  0.00    +0.000 C 
BRANCH  17  18
ATOM     18  C   UNL     1       2.286   7.847  19.093  0.00  0.00    +0.000 A 
ATOM     19  C   UNL     1       2.405   8.554  17.911  0.00  0.00    +0.000 A 
ATOM     20  S   UNL     1       1.541  10.015  17.914  0.00  0.00    +0.000 S 
ATOM     21  C   UNL     1       0.964   9.764  19.520  0.00  0.00    +0.000 A 
ATOM     22  C   UNL     1       0.077  10.576  20.264  0.00  0.00    +0.000 A 
ATOM     23 CL   UNL     1      -0.647  11.991  19.587  0.00  0.00    +0.000 Cl
ATOM     24  C   UNL     1      -0.248  10.223  21.574  0.00  0.00    +0.000 A 
ATOM     25  C   UNL     1       0.305   9.090  22.149  0.00  0.00    +0.000 A 
ATOM     26  C   UNL     1       1.161   8.270  21.406  0.00  0.00    +0.000 A 
ATOM     27  C   UNL     1       1.498   8.584  20.064  0.00  0.00    +0.000 A 
ENDBRANCH  17  18
ENDBRANCH  16  17
ENDBRANCH   1  16
TORSDOF 6
ENDMDL
