MODEL 1
REMARK VINA RESULT:      -7.3      0.000      0.000
REMARK  Name = 
REMARK  8 active torsions:
REMARK  status: ('A' for Active; 'I' for Inactive)
REMARK    1  A    between atoms: C_2  and  S_4
REMARK    2  A    between atoms: S_4  and  C_5
REMARK    3  A    between atoms: C_5  and  C_6
REMARK    4  A    between atoms: C_6  and  O_7
REMARK    5  A    between atoms: O_7  and  C_8
REMARK    6  A    between atoms: C_14  and  N_15
REMARK    7  A    between atoms: C_16  and  C_18
REMARK    8  A    between atoms: C_18  and  C_19
REMARK                            x       y       z     vdW  Elec       q    Type
REMARK                         _______ _______ _______ _____ _____    ______ ____
ROOT
ATOM      1  C   UNL     1       0.087  10.510  20.454  0.00  0.00    +0.000 A 
ATOM      2  O   UNL     1       0.640  10.681  19.163  0.00  0.00    +0.000 OA
ATOM      3  C   UNL     1       1.439   9.752  18.567  0.00  0.00    +0.000 A 
ATOM      4  O   UNL     1       1.944   9.948  17.471  0.00  0.00    +0.000 OA
ATOM      5  C   UNL     1       1.627   8.476  19.299  0.00  0.00    +0.000 A 
ATOM      6  C   UNL     1       2.383   7.462  18.687  0.00  0.00    +0.000 A 
ATOM      7  C   UNL     1       2.547   6.216  19.295  0.00  0.00    +0.000 A 
ATOM      8  C   UNL     1       1.920   5.991  20.522  0.00  0.00    +0.000 A 
ATOM      9  C   UNL     1       1.194   7.017  21.151  0.00  0.00    +0.000 A 
ATOM     10  C   UNL     1       1.039   8.276  20.550  0.00  0.00    +0.000 A 
ATOM     11  C   UNL     1       0.281   9.379  21.157  0.00  0.00    +0.000 A 
ATOM     12 CL   UNL     1      -0.353   9.206  22.757  0.00  0.00    +0.000 Cl
ENDROOT
BRANCH   7  13
ATOM     13  N   UNL     1       3.317   5.175  18.715  0.00  0.00    +0.000 N 
ATOM     14  C   UNL     1       2.829   4.225  17.833  0.00  0.00    +0.000 C 
ATOM     15  O   UNL     1       1.677   4.177  17.400  0.00  0.00    +0.000 OA
ATOM     16  H   UNL     1       4.320   5.217  18.851  0.00  0.00    +0.000 HD
BRANCH  14  17
ATOM     17  C   UNL     1       3.848   3.207  17.359  0.00  0.00    +0.000 C 
BRANCH  17  18
ATOM     18  C   UNL     1       5.059   3.826  16.705  0.00  0.00    +0.000 A 
ATOM     19  C   UNL     1       5.035   4.152  15.342  0.00  0.00    +0.000 A 
ATOM     20  C   UNL     1       6.125   4.790  14.748  0.00  0.00    +0.000 A 
ATOM     21  C   UNL     1       7.249   5.109  15.505  0.00  0.00    +0.000 A 
ATOM     22  C   UNL     1       7.290   4.784  16.859  0.00  0.00    +0.000 A 
ATOM     23  C   UNL     1       6.201   4.146  17.456  0.00  0.00    +0.000 A 
ENDBRANCH  17  18
ENDBRANCH  14  17
ENDBRANCH   7  13
BRANCH   1  24
ATOM     24  O   UNL     1      -0.639  11.556  21.008  0.00  0.00    +0.000 OA
BRANCH  24  25
ATOM     25  C   UNL     1       0.178  12.558  21.633  0.00  0.00    +0.000 C 
BRANCH  25  26
ATOM     26  C   UNL     1       0.069  13.845  20.813  0.00  0.00    +0.000 C 
BRANCH  26  27
ATOM     27  S   UNL     1       1.604  14.170  19.881  0.00  0.00    +0.000 S 
BRANCH  27  29
ATOM     28  N   UNL     1       0.014  13.289  17.971  0.00  0.00    +0.000 NA
ATOM     29  C   UNL     1       1.226  13.444  18.344  0.00  0.00    +0.000 C 
ATOM     30  N   UNL     1       2.288  13.089  17.582  0.00  0.00    +0.000 N 
ATOM     31  H   UNL     1       0.003  12.834  17.056  0.00  0.00    +0.000 HD
ATOM     32  H   UNL     1       2.130  12.990  16.588  0.00  0.00    +0.000 HD
ATOM     33  H   UNL     1       3.163  13.544  17.815  0.00  0.00    +0.000 HD
ENDBRANCH  27  29
ENDBRANCH  26  27
ENDBRANCH  25  26
ENDBRANCH  24  25
ENDBRANCH   1  24
TORSDOF 8
ENDMDL
MODEL 2
REMARK VINA RESULT:      -7.2      3.835      9.729
REMARK  Name = 
REMARK  8 active torsions:
REMARK  status: ('A' for Active; 'I' for Inactive)
REMARK    1  A    between atoms: C_2  and  S_4
REMARK    2  A    between atoms: S_4  and  C_5
REMARK    3  A    between atoms: C_5  and  C_6
REMARK    4  A    between atoms: C_6  and  O_7
REMARK    5  A    between atoms: O_7  and  C_8
REMARK    6  A    between atoms: C_14  and  N_15
REMARK    7  A    between atoms: C_16  and  C_18
REMARK    8  A    between atoms: C_18  and  C_19
REMARK                            x       y       z     vdW  Elec       q    Type
REMARK                         _______ _______ _______ _____ _____    ______ ____
ROOT
ATOM      1  C   UNL     1       2.684   6.769  18.600  0.00  0.00    +0.000 A 
ATOM      2  O   UNL     1       2.659   7.935  17.800  0.00  0.00    +0.000 OA
ATOM      3  C   UNL     1       1.988   9.067  18.155  0.00  0.00    +0.000 A 
ATOM      4  O   UNL     1       1.940  10.043  17.421  0.00  0.00    +0.000 OA
ATOM      5  C   UNL     1       1.356   9.065  19.497  0.00  0.00    +0.000 A 
ATOM      6  C   UNL     1       0.717  10.238  19.934  0.00  0.00    +0.000 A 
ATOM      7  C   UNL     1       0.155  10.322  21.210  0.00  0.00    +0.000 A 
ATOM      8  C   UNL     1       0.263   9.216  22.055  0.00  0.00    +0.000 A 
ATOM      9  C   UNL     1       0.870   8.031  21.605  0.00  0.00    +0.000 A 
ATOM     10  C   UNL     1       1.423   7.937  20.317  0.00  0.00    +0.000 A 
ATOM     11  C   UNL     1       2.080   6.728  19.801  0.00  0.00    +0.000 A 
ATOM     12 CL   UNL     1       2.070   5.277  20.743  0.00  0.00    +0.000 Cl
ENDROOT
BRANCH   7  13
ATOM     13  N   UNL     1      -0.513  11.483  21.678  0.00  0.00    +0.000 N 
ATOM     14  C   UNL     1      -1.556  12.115  21.022  0.00  0.00    +0.000 C 
ATOM     15  O   UNL     1      -2.074  11.736  19.971  0.00  0.00    +0.000 OA
ATOM     16  H   UNL     1      -0.299  11.785  22.621  0.00  0.00    +0.000 HD
BRANCH  14  17
ATOM     17  C   UNL     1      -2.098  13.348  21.720  0.00  0.00    +0.000 C 
BRANCH  17  18
ATOM     18  C   UNL     1      -3.344  13.084  22.529  0.00  0.00    +0.000 A 
ATOM     19  C   UNL     1      -3.244  12.724  23.879  0.00  0.00    +0.000 A 
ATOM     20  C   UNL     1      -4.394  12.549  24.652  0.00  0.00    +0.000 A 
ATOM     21  C   UNL     1      -5.653  12.729  24.085  0.00  0.00    +0.000 A 
ATOM     22  C   UNL     1      -5.768  13.079  22.742  0.00  0.00    +0.000 A 
ATOM     23  C   UNL     1      -4.619  13.255  21.967  0.00  0.00    +0.000 A 
ENDBRANCH  17  18
ENDBRANCH  14  17
ENDBRANCH   7  13
BRANCH   1  24
ATOM     24  O   UNL     1       3.321   5.639  18.104  0.00  0.00    +0.000 OA
BRANCH  24  25
ATOM     25  C   UNL     1       4.701   5.539  18.489  0.00  0.00    +0.000 C 
BRANCH  25  26
ATOM     26  C   UNL     1       5.197   4.135  18.135  0.00  0.00    +0.000 C 
BRANCH  26  27
ATOM     27  S   UNL     1       5.507   3.974  16.344  0.00  0.00    +0.000 S 
BRANCH  27  29
ATOM     28  N   UNL     1       8.017   4.224  17.113  0.00  0.00    +0.000 NA
ATOM     29  C   UNL     1       7.148   4.546  16.233  0.00  0.00    +0.000 C 
ATOM     30  N   UNL     1       7.433   5.319  15.158  0.00  0.00    +0.000 N 
ATOM     31  H   UNL     1       8.907   4.671  16.881  0.00  0.00    +0.000 HD
ATOM     32  H   UNL     1       8.403   5.384  14.880  0.00  0.00    +0.000 HD
ATOM     33  H   UNL     1       6.788   5.238  14.381  0.00  0.00    +0.000 HD
ENDBRANCH  27  29
ENDBRANCH  26  27
ENDBRANCH  25  26
ENDBRANCH  24  25
ENDBRANCH   1  24
TORSDOF 8
ENDMDL
MODEL 3
REMARK VINA RESULT:      -7.2      0.833      1.315
REMARK  Name = 
REMARK  8 active torsions:
REMARK  status: ('A' for Active; 'I' for Inactive)
REMARK    1  A    between atoms: C_2  and  S_4
REMARK    2  A    between atoms: S_4  and  C_5
REMARK    3  A    between atoms: C_5  and  C_6
REMARK    4  A    between atoms: C_6  and  O_7
REMARK    5  A    between atoms: O_7  and  C_8
REMARK    6  A    between atoms: C_14  and  N_15
REMARK    7  A    between atoms: C_16  and  C_18
REMARK    8  A    between atoms: C_18  and  C_19
REMARK                            x       y       z     vdW  Elec       q    Type
REMARK                         _______ _______ _______ _____ _____    ______ ____
ROOT
ATOM      1  C   UNL     1      -0.037  11.112  20.146  0.00  0.00    +0.000 A 
ATOM      2  O   UNL     1       0.573  11.141  18.869  0.00  0.00    +0.000 OA
ATOM      3  C   UNL     1       1.386  10.148  18.411  0.00  0.00    +0.000 A 
ATOM      4  O   UNL     1       1.940  10.222  17.324  0.00  0.00    +0.000 OA
ATOM      5  C   UNL     1       1.528   8.956  19.282  0.00  0.00    +0.000 A 
ATOM      6  C   UNL     1       2.298   7.878  18.815  0.00  0.00    +0.000 A 
ATOM      7  C   UNL     1       2.421   6.703  19.560  0.00  0.00    +0.000 A 
ATOM      8  C   UNL     1       1.740   6.615  20.775  0.00  0.00    +0.000 A 
ATOM      9  C   UNL     1       1.000   7.706  21.258  0.00  0.00    +0.000 A 
ATOM     10  C   UNL     1       0.885   8.895  20.520  0.00  0.00    +0.000 A 
ATOM     11  C   UNL     1       0.114  10.062  20.972  0.00  0.00    +0.000 A 
ATOM     12 CL   UNL     1      -0.589  10.065  22.553  0.00  0.00    +0.000 Cl
ENDROOT
BRANCH   7  13
ATOM     13  N   UNL     1       3.204   5.600  19.127  0.00  0.00    +0.000 N 
ATOM     14  C   UNL     1       2.778   4.626  18.242  0.00  0.00    +0.000 C 
ATOM     15  O   UNL     1       1.683   4.602  17.676  0.00  0.00    +0.000 OA
ATOM     16  H   UNL     1       4.185   5.608  19.381  0.00  0.00    +0.000 HD
BRANCH  14  17
ATOM     17  C   UNL     1       3.796   3.541  17.943  0.00  0.00    +0.000 C 
BRANCH  17  18
ATOM     18  C   UNL     1       4.990   4.035  17.163  0.00  0.00    +0.000 A 
ATOM     19  C   UNL     1       6.196   4.309  17.821  0.00  0.00    +0.000 A 
ATOM     20  C   UNL     1       7.325   4.697  17.096  0.00  0.00    +0.000 A 
ATOM     21  C   UNL     1       7.262   4.815  15.710  0.00  0.00    +0.000 A 
ATOM     22  C   UNL     1       6.067   4.553  15.044  0.00  0.00    +0.000 A 
ATOM     23  C   UNL     1       4.936   4.165  15.767  0.00  0.00    +0.000 A 
ENDBRANCH  17  18
ENDBRANCH  14  17
ENDBRANCH   7  13
BRANCH   1  24
ATOM     24  O   UNL     1      -0.774  12.216  20.553  0.00  0.00    +0.000 OA
BRANCH  24  25
ATOM     25  C   UNL     1      -0.005  13.427  20.631  0.00  0.00    +0.000 C 
BRANCH  25  26
ATOM     26  C   UNL     1      -0.300  14.263  19.383  0.00  0.00    +0.000 C 
BRANCH  26  27
ATOM     27  S   UNL     1       1.126  15.311  18.935  0.00  0.00    +0.000 S 
BRANCH  27  29
ATOM     28  N   UNL     1       2.269  13.357  17.582  0.00  0.00    +0.000 NA
ATOM     29  C   UNL     1       2.342  14.106  18.614  0.00  0.00    +0.000 C 
ATOM     30  N   UNL     1       3.359  14.042  19.506  0.00  0.00    +0.000 N 
ATOM     31  H   UNL     1       3.060  12.711  17.583  0.00  0.00    +0.000 HD
ATOM     32  H   UNL     1       4.223  13.620  19.192  0.00  0.00    +0.000 HD
ATOM     33  H   UNL     1       3.491  14.870  20.076  0.00  0.00    +0.000 HD
ENDBRANCH  27  29
ENDBRANCH  26  27
ENDBRANCH  25  26
ENDBRANCH  24  25
ENDBRANCH   1  24
TORSDOF 8
ENDMDL
MODEL 4
REMARK VINA RESULT:      -7.2      3.490      8.966
REMARK  Name = 
REMARK  8 active torsions:
REMARK  status: ('A' for Active; 'I' for Inactive)
REMARK    1  A    between atoms: C_2  and  S_4
REMARK    2  A    between atoms: S_4  and  C_5
REMARK    3  A    between atoms: C_5  and  C_6
REMARK    4  A    between atoms: C_6  and  O_7
REMARK    5  A    between atoms: O_7  and  C_8
REMARK    6  A    between atoms: C_14  and  N_15
REMARK    7  A    between atoms: C_16  and  C_18
REMARK    8  A    between atoms: C_18  and  C_19
REMARK                            x       y       z     vdW  Elec       q    Type
REMARK                         _______ _______ _______ _____ _____    ______ ____
ROOT
ATOM      1  C   UNL     1       3.351   5.533  18.895  0.00  0.00    +0.000 A 
ATOM      2  O   UNL     1       3.535   6.494  17.874  0.00  0.00    +0.000 OA
ATOM      3  C   UNL     1       2.889   7.694  17.857  0.00  0.00    +0.000 A 
ATOM      4  O   UNL     1       3.028   8.486  16.936  0.00  0.00    +0.000 OA
ATOM      5  C   UNL     1       2.044   8.005  19.036  0.00  0.00    +0.000 A 
ATOM      6  C   UNL     1       1.419   9.262  19.093  0.00  0.00    +0.000 A 
ATOM      7  C   UNL     1       0.659   9.640  20.203  0.00  0.00    +0.000 A 
ATOM      8  C   UNL     1       0.553   8.745  21.268  0.00  0.00    +0.000 A 
ATOM      9  C   UNL     1       1.148   7.475  21.195  0.00  0.00    +0.000 A 
ATOM     10  C   UNL     1       1.901   7.084  20.075  0.00  0.00    +0.000 A 
ATOM     11  C   UNL     1       2.554   5.774  19.952  0.00  0.00    +0.000 A 
ATOM     12 CL   UNL     1       2.294   4.567  21.164  0.00  0.00    +0.000 Cl
ENDROOT
BRANCH   7  13
ATOM     13  N   UNL     1      -0.001  10.894  20.288  0.00  0.00    +0.000 N 
ATOM     14  C   UNL     1      -1.141  11.238  19.582  0.00  0.00    +0.000 C 
ATOM     15  O   UNL     1      -1.762  10.495  18.820  0.00  0.00    +0.000 OA
ATOM     16  H   UNL     1       0.308  11.525  21.017  0.00  0.00    +0.000 HD
BRANCH  14  17
ATOM     17  C   UNL     1      -1.653  12.643  19.836  0.00  0.00    +0.000 C 
BRANCH  17  18
ATOM     18  C   UNL     1      -2.810  12.698  20.803  0.00  0.00    +0.000 A 
ATOM     19  C   UNL     1      -2.577  12.646  22.184  0.00  0.00    +0.000 A 
ATOM     20  C   UNL     1      -3.637  12.769  23.085  0.00  0.00    +0.000 A 
ATOM     21  C   UNL     1      -4.938  12.942  22.618  0.00  0.00    +0.000 A 
ATOM     22  C   UNL     1      -5.185  12.987  21.248  0.00  0.00    +0.000 A 
ATOM     23  C   UNL     1      -4.126  12.865  20.345  0.00  0.00    +0.000 A 
ENDBRANCH  17  18
ENDBRANCH  14  17
ENDBRANCH   7  13
BRANCH   1  24
ATOM     24  O   UNL     1       3.988   4.305  18.771  0.00  0.00    +0.000 OA
BRANCH  24  25
ATOM     25  C   UNL     1       5.336   4.301  19.265  0.00  0.00    +0.000 C 
BRANCH  25  26
ATOM     26  C   UNL     1       6.277   4.586  18.092  0.00  0.00    +0.000 C 
BRANCH  26  27
ATOM     27  S   UNL     1       7.462   5.913  18.499  0.00  0.00    +0.000 S 
BRANCH  27  29
ATOM     28  N   UNL     1       6.054   6.939  16.519  0.00  0.00    +0.000 NA
ATOM     29  C   UNL     1       7.017   7.131  17.337  0.00  0.00    +0.000 C 
ATOM     30  N   UNL     1       7.735   8.278  17.379  0.00  0.00    +0.000 N 
ATOM     31  H   UNL     1       5.963   7.757  15.914  0.00  0.00    +0.000 HD
ATOM     32  H   UNL     1       7.310   9.104  16.980  0.00  0.00    +0.000 HD
ATOM     33  H   UNL     1       8.229   8.450  18.248  0.00  0.00    +0.000 HD
ENDBRANCH  27  29
ENDBRANCH  26  27
ENDBRANCH  25  26
ENDBRANCH  24  25
ENDBRANCH   1  24
TORSDOF 8
ENDMDL
MODEL 5
REMARK VINA RESULT:      -7.2      3.179      3.898
REMARK  Name = 
REMARK  8 active torsions:
REMARK  status: ('A' for Active; 'I' for Inactive)
REMARK    1  A    between atoms: C_2  and  S_4
REMARK    2  A    between atoms: S_4  and  C_5
REMARK    3  A    between atoms: C_5  and  C_6
REMARK    4  A    between atoms: C_6  and  O_7
REMARK    5  A    between atoms: O_7  and  C_8
REMARK    6  A    between atoms: C_14  and  N_15
REMARK    7  A    between atoms: C_16  and  C_18
REMARK    8  A    between atoms: C_18  and  C_19
REMARK                            x       y       z     vdW  Elec       q    Type
REMARK                         _______ _______ _______ _____ _____    ______ ____
ROOT
ATOM      1  C   UNL     1      -0.410  11.615  20.633  0.00  0.00    +0.000 A 
ATOM      2  O   UNL     1      -0.047  10.895  21.795  0.00  0.00    +0.000 OA
ATOM      3  C   UNL     1       0.616   9.704  21.755  0.00  0.00    +0.000 A 
ATOM      4  O   UNL     1       0.873   9.078  22.773  0.00  0.00    +0.000 OA
ATOM      5  C   UNL     1       1.045   9.233  20.416  0.00  0.00    +0.000 A 
ATOM      6  C   UNL     1       1.795   8.047  20.337  0.00  0.00    +0.000 A 
ATOM      7  C   UNL     1       2.281   7.581  19.114  0.00  0.00    +0.000 A 
ATOM      8  C   UNL     1       2.022   8.335  17.968  0.00  0.00    +0.000 A 
ATOM      9  C   UNL     1       1.242   9.501  18.042  0.00  0.00    +0.000 A 
ATOM     10  C   UNL     1       0.739   9.966  19.268  0.00  0.00    +0.000 A 
ATOM     11  C   UNL     1      -0.071  11.184  19.404  0.00  0.00    +0.000 A 
ATOM     12 CL   UNL     1      -0.572  12.045  17.990  0.00  0.00    +0.000 Cl
ENDROOT
BRANCH   7  13
ATOM     13  N   UNL     1       3.027   6.379  18.993  0.00  0.00    +0.000 N 
ATOM     14  C   UNL     1       2.586   5.235  18.350  0.00  0.00    +0.000 C 
ATOM     15  O   UNL     1       1.511   5.115  17.759  0.00  0.00    +0.000 OA
ATOM     16  H   UNL     1       3.998   6.412  19.280  0.00  0.00    +0.000 HD
BRANCH  14  17
ATOM     17  C   UNL     1       3.563   4.074  18.365  0.00  0.00    +0.000 C 
BRANCH  17  18
ATOM     18  C   UNL     1       4.786   4.306  17.513  0.00  0.00    +0.000 A 
ATOM     19  C   UNL     1       4.665   4.426  16.123  0.00  0.00    +0.000 A 
ATOM     20  C   UNL     1       5.783   4.712  15.337  0.00  0.00    +0.000 A 
ATOM     21  C   UNL     1       7.033   4.879  15.929  0.00  0.00    +0.000 A 
ATOM     22  C   UNL     1       7.169   4.754  17.309  0.00  0.00    +0.000 A 
ATOM     23  C   UNL     1       6.052   4.469  18.098  0.00  0.00    +0.000 A 
ENDBRANCH  17  18
ENDBRANCH  14  17
ENDBRANCH   7  13
BRANCH   1  24
ATOM     24  O   UNL     1      -1.163  12.773  20.780  0.00  0.00    +0.000 OA
BRANCH  24  25
ATOM     25  C   UNL     1      -2.575  12.532  20.888  0.00  0.00    +0.000 C 
BRANCH  25  26
ATOM     26  C   UNL     1      -3.170  13.589  21.821  0.00  0.00    +0.000 C 
BRANCH  26  27
ATOM     27  S   UNL     1      -4.775  13.045  22.500  0.00  0.00    +0.000 S 
BRANCH  27  29
ATOM     28  N   UNL     1      -3.650  13.851  24.746  0.00  0.00    +0.000 NA
ATOM     29  C   UNL     1      -4.416  12.983  24.204  0.00  0.00    +0.000 C 
ATOM     30  N   UNL     1      -5.015  11.986  24.897  0.00  0.00    +0.000 N 
ATOM     31  H   UNL     1      -3.552  13.633  25.739  0.00  0.00    +0.000 HD
ATOM     32  H   UNL     1      -5.110  12.111  25.896  0.00  0.00    +0.000 HD
ATOM     33  H   UNL     1      -5.831  11.578  24.455  0.00  0.00    +0.000 HD
ENDBRANCH  27  29
ENDBRANCH  26  27
ENDBRANCH  25  26
ENDBRANCH  24  25
ENDBRANCH   1  24
TORSDOF 8
ENDMDL
MODEL 6
REMARK VINA RESULT:      -7.1      3.371      4.366
REMARK  Name = 
REMARK  8 active torsions:
REMARK  status: ('A' for Active; 'I' for Inactive)
REMARK    1  A    between atoms: C_2  and  S_4
REMARK    2  A    between atoms: S_4  and  C_5
REMARK    3  A    between atoms: C_5  and  C_6
REMARK    4  A    between atoms: C_6  and  O_7
REMARK    5  A    between atoms: O_7  and  C_8
REMARK    6  A    between atoms: C_14  and  N_15
REMARK    7  A    between atoms: C_16  and  C_18
REMARK    8  A    between atoms: C_18  and  C_19
REMARK                            x       y       z     vdW  Elec       q    Type
REMARK                         _______ _______ _______ _____ _____    ______ ____
ROOT
ATOM      1  C   UNL     1      -1.031  11.933  20.922  0.00  0.00    +0.000 A 
ATOM      2  O   UNL     1      -0.663  11.366  22.164  0.00  0.00    +0.000 OA
ATOM      3  C   UNL     1       0.058  10.214  22.272  0.00  0.00    +0.000 A 
ATOM      4  O   UNL     1       0.319   9.719  23.358  0.00  0.00    +0.000 OA
ATOM      5  C   UNL     1       0.545   9.620  21.003  0.00  0.00    +0.000 A 
ATOM      6  C   UNL     1       1.355   8.474  21.073  0.00  0.00    +0.000 A 
ATOM      7  C   UNL     1       1.895   7.901  19.920  0.00  0.00    +0.000 A 
ATOM      8  C   UNL     1       1.630   8.508  18.691  0.00  0.00    +0.000 A 
ATOM      9  C   UNL     1       0.791   9.633  18.619  0.00  0.00    +0.000 A 
ATOM     10  C   UNL     1       0.233  10.204  19.774  0.00  0.00    +0.000 A 
ATOM     11  C   UNL     1      -0.640  11.386  19.757  0.00  0.00    +0.000 A 
ATOM     12 CL   UNL     1      -1.145  12.058  18.244  0.00  0.00    +0.000 Cl
ENDROOT
BRANCH   7  13
ATOM     13  N   UNL     1       2.703   6.733  19.950  0.00  0.00    +0.000 N 
ATOM     14  C   UNL     1       2.241   5.459  20.232  0.00  0.00    +0.000 C 
ATOM     15  O   UNL     1       1.068   5.155  20.453  0.00  0.00    +0.000 OA
ATOM     16  H   UNL     1       3.652   6.824  19.608  0.00  0.00    +0.000 HD
BRANCH  14  17
ATOM     17  C   UNL     1       3.302   4.375  20.215  0.00  0.00    +0.000 C 
BRANCH  17  18
ATOM     18  C   UNL     1       4.173   4.404  18.983  0.00  0.00    +0.000 A 
ATOM     19  C   UNL     1       5.530   4.732  19.087  0.00  0.00    +0.000 A 
ATOM     20  C   UNL     1       6.357   4.691  17.962  0.00  0.00    +0.000 A 
ATOM     21  C   UNL     1       5.837   4.323  16.723  0.00  0.00    +0.000 A 
ATOM     22  C   UNL     1       4.488   4.002  16.604  0.00  0.00    +0.000 A 
ATOM     23  C   UNL     1       3.659   4.042  17.727  0.00  0.00    +0.000 A 
ENDBRANCH  17  18
ENDBRANCH  14  17
ENDBRANCH   7  13
BRANCH   1  24
ATOM     24  O   UNL     1      -1.845  13.058  20.922  0.00  0.00    +0.000 OA
BRANCH  24  25
ATOM     25  C   UNL     1      -2.479  13.311  22.186  0.00  0.00    +0.000 C 
BRANCH  25  26
ATOM     26  C   UNL     1      -3.752  14.121  21.930  0.00  0.00    +0.000 C 
BRANCH  26  27
ATOM     27  S   UNL     1      -5.215  13.303  22.650  0.00  0.00    +0.000 S 
BRANCH  27  29
ATOM     28  N   UNL     1      -4.707  11.850  24.791  0.00  0.00    +0.000 NA
ATOM     29  C   UNL     1      -4.675  13.021  24.281  0.00  0.00    +0.000 C 
ATOM     30  N   UNL     1      -4.207  14.105  24.944  0.00  0.00    +0.000 N 
ATOM     31  H   UNL     1      -4.368  11.896  25.754  0.00  0.00    +0.000 HD
ATOM     32  H   UNL     1      -3.592  13.937  25.729  0.00  0.00    +0.000 HD
ATOM     33  H   UNL     1      -3.924  14.884  24.360  0.00  0.00    +0.000 HD
ENDBRANCH  27  29
ENDBRANCH  26  27
ENDBRANCH  25  26
ENDBRANCH  24  25
ENDBRANCH   1  24
TORSDOF 8
ENDMDL
MODEL 7
REMARK VINA RESULT:      -7.1      3.301      9.015
REMARK  Name = 
REMARK  8 active torsions:
REMARK  status: ('A' for Active; 'I' for Inactive)
REMARK    1  A    between atoms: C_2  and  S_4
REMARK    2  A    between atoms: S_4  and  C_5
REMARK    3  A    between atoms: C_5  and  C_6
REMARK    4  A    between atoms: C_6  and  O_7
REMARK    5  A    between atoms: O_7  and  C_8
REMARK    6  A    between atoms: C_14  and  N_15
REMARK    7  A    between atoms: C_16  and  C_18
REMARK    8  A    between atoms: C_18  and  C_19
REMARK                            x       y       z     vdW  Elec       q    Type
REMARK                         _______ _______ _______ _____ _____    ______ ____
ROOT
ATOM      1  C   UNL     1       3.172   5.664  18.951  0.00  0.00    +0.000 A 
ATOM      2  O   UNL     1       3.333   6.645  17.945  0.00  0.00    +0.000 OA
ATOM      3  C   UNL     1       2.688   7.845  17.965  0.00  0.00    +0.000 A 
ATOM      4  O   UNL     1       2.807   8.654  17.057  0.00  0.00    +0.000 OA
ATOM      5  C   UNL     1       1.870   8.133  19.169  0.00  0.00    +0.000 A 
ATOM      6  C   UNL     1       1.248   9.390  19.265  0.00  0.00    +0.000 A 
ATOM      7  C   UNL     1       0.514   9.746  20.399  0.00  0.00    +0.000 A 
ATOM      8  C   UNL     1       0.431   8.831  21.449  0.00  0.00    +0.000 A 
ATOM      9  C   UNL     1       1.023   7.562  21.337  0.00  0.00    +0.000 A 
ATOM     10  C   UNL     1       1.750   7.193  20.193  0.00  0.00    +0.000 A 
ATOM     11  C   UNL     1       2.399   5.885  20.030  0.00  0.00    +0.000 A 
ATOM     12 CL   UNL     1       2.165   4.655  21.224  0.00  0.00    +0.000 Cl
ENDROOT
BRANCH   7  13
ATOM     13  N   UNL     1      -0.143  10.999  20.523  0.00  0.00    +0.000 N 
ATOM     14  C   UNL     1       0.455  12.164  20.973  0.00  0.00    +0.000 C 
ATOM     15  O   UNL     1       1.640  12.286  21.285  0.00  0.00    +0.000 OA
ATOM     16  H   UNL     1      -1.072  11.070  20.126  0.00  0.00    +0.000 HD
BRANCH  14  17
ATOM     17  C   UNL     1      -0.460  13.373  21.028  0.00  0.00    +0.000 C 
BRANCH  17  18
ATOM     18  C   UNL     1      -1.801  13.086  21.658  0.00  0.00    +0.000 A 
ATOM     19  C   UNL     1      -1.886  12.767  23.020  0.00  0.00    +0.000 A 
ATOM     20  C   UNL     1      -3.129  12.572  23.624  0.00  0.00    +0.000 A 
ATOM     21  C   UNL     1      -4.299  12.690  22.877  0.00  0.00    +0.000 A 
ATOM     22  C   UNL     1      -4.229  12.998  21.521  0.00  0.00    +0.000 A 
ATOM     23  C   UNL     1      -2.986  13.195  20.914  0.00  0.00    +0.000 A 
ENDBRANCH  17  18
ENDBRANCH  14  17
ENDBRANCH   7  13
BRANCH   1  24
ATOM     24  O   UNL     1       3.804   4.438  18.788  0.00  0.00    +0.000 OA
BRANCH  24  25
ATOM     25  C   UNL     1       5.120   4.387  19.360  0.00  0.00    +0.000 C 
BRANCH  25  26
ATOM     26  C   UNL     1       6.139   4.578  18.235  0.00  0.00    +0.000 C 
BRANCH  26  27
ATOM     27  S   UNL     1       7.407   5.809  18.691  0.00  0.00    +0.000 S 
BRANCH  27  29
ATOM     28  N   UNL     1       7.649   8.056  17.332  0.00  0.00    +0.000 NA
ATOM     29  C   UNL     1       7.449   6.797  17.257  0.00  0.00    +0.000 C 
ATOM     30  N   UNL     1       7.281   6.142  16.083  0.00  0.00    +0.000 N 
ATOM     31  H   UNL     1       7.620   8.455  16.392  0.00  0.00    +0.000 HD
ATOM     32  H   UNL     1       7.627   6.595  15.248  0.00  0.00    +0.000 HD
ATOM     33  H   UNL     1       7.459   5.144  16.112  0.00  0.00    +0.000 HD
ENDBRANCH  27  29
ENDBRANCH  26  27
ENDBRANCH  25  26
ENDBRANCH  24  25
ENDBRANCH   1  24
TORSDOF 8
ENDMDL
MODEL 8
REMARK VINA RESULT:      -7.0      2.270      2.657
REMARK  Name = 
REMARK  8 active torsions:
REMARK  status: ('A' for Active; 'I' for Inactive)
REMARK    1  A    between atoms: C_2  and  S_4
REMARK    2  A    between atoms: S_4  and  C_5
REMARK    3  A    between atoms: C_5  and  C_6
REMARK    4  A    between atoms: C_6  and  O_7
REMARK    5  A    between atoms: O_7  and  C_8
REMARK    6  A    between atoms: C_14  and  N_15
REMARK    7  A    between atoms: C_16  and  C_18
REMARK    8  A    between atoms: C_18  and  C_19
REMARK                            x       y       z     vdW  Elec       q    Type
REMARK                         _______ _______ _______ _____ _____    ______ ____
ROOT
ATOM      1  C   UNL     1       0.280  10.770  20.474  0.00  0.00    +0.000 A 
ATOM      2  O   UNL     1       0.809  10.924  19.171  0.00  0.00    +0.000 OA
ATOM      3  C   UNL     1       1.552   9.964  18.551  0.00  0.00    +0.000 A 
ATOM      4  O   UNL     1       2.039  10.143  17.445  0.00  0.00    +0.000 OA
ATOM      5  C   UNL     1       1.701   8.677  19.273  0.00  0.00    +0.000 A 
ATOM      6  C   UNL     1       2.397   7.634  18.638  0.00  0.00    +0.000 A 
ATOM      7  C   UNL     1       2.521   6.379  19.238  0.00  0.00    +0.000 A 
ATOM      8  C   UNL     1       1.915   6.175  20.479  0.00  0.00    +0.000 A 
ATOM      9  C   UNL     1       1.250   7.228  21.129  0.00  0.00    +0.000 A 
ATOM     10  C   UNL     1       1.135   8.497  20.537  0.00  0.00    +0.000 A 
ATOM     11  C   UNL     1       0.441   9.628  21.167  0.00  0.00    +0.000 A 
ATOM     12 CL   UNL     1      -0.161   9.475  22.782  0.00  0.00    +0.000 Cl
ENDROOT
BRANCH   7  13
ATOM     13  N   UNL     1       3.231   5.308  18.634  0.00  0.00    +0.000 N 
ATOM     14  C   UNL     1       2.667   4.348  17.812  0.00  0.00    +0.000 C 
ATOM     15  O   UNL     1       1.487   4.313  17.458  0.00  0.00    +0.000 OA
ATOM     16  H   UNL     1       4.242   5.333  18.703  0.00  0.00    +0.000 HD
BRANCH  14  17
ATOM     17  C   UNL     1       3.632   3.297  17.297  0.00  0.00    +0.000 C 
BRANCH  17  18
ATOM     18  C   UNL     1       4.891   3.877  16.700  0.00  0.00    +0.000 A 
ATOM     19  C   UNL     1       4.921   4.254  15.351  0.00  0.00    +0.000 A 
ATOM     20  C   UNL     1       6.058   4.858  14.810  0.00  0.00    +0.000 A 
ATOM     21  C   UNL     1       7.176   5.089  15.609  0.00  0.00    +0.000 A 
ATOM     22  C   UNL     1       7.163   4.712  16.949  0.00  0.00    +0.000 A 
ATOM     23  C   UNL     1       6.026   4.108  17.492  0.00  0.00    +0.000 A 
ENDBRANCH  17  18
ENDBRANCH  14  17
ENDBRANCH   7  13
BRANCH   1  24
ATOM     24  O   UNL     1      -0.386  11.844  21.050  0.00  0.00    +0.000 OA
BRANCH  24  25
ATOM     25  C   UNL     1      -1.705  12.054  20.522  0.00  0.00    +0.000 C 
BRANCH  25  26
ATOM     26  C   UNL     1      -2.137  13.481  20.867  0.00  0.00    +0.000 C 
BRANCH  26  27
ATOM     27  S   UNL     1      -2.301  13.708  22.670  0.00  0.00    +0.000 S 
BRANCH  27  29
ATOM     28  N   UNL     1      -3.811  11.989  23.981  0.00  0.00    +0.000 NA
ATOM     29  C   UNL     1      -3.750  12.798  22.994  0.00  0.00    +0.000 C 
ATOM     30  N   UNL     1      -4.790  13.025  22.156  0.00  0.00    +0.000 N 
ATOM     31  H   UNL     1      -4.731  11.543  23.990  0.00  0.00    +0.000 HD
ATOM     32  H   UNL     1      -5.714  12.794  22.494  0.00  0.00    +0.000 HD
ATOM     33  H   UNL     1      -4.748  13.895  21.637  0.00  0.00    +0.000 HD
ENDBRANCH  27  29
ENDBRANCH  26  27
ENDBRANCH  25  26
ENDBRANCH  24  25
ENDBRANCH   1  24
TORSDOF 8
ENDMDL
MODEL 9
REMARK VINA RESULT:      -7.0      3.444      9.402
REMARK  Name = 
REMARK  8 active torsions:
REMARK  status: ('A' for Active; 'I' for Inactive)
REMARK    1  A    between atoms: C_2  and  S_4
REMARK    2  A    between atoms: S_4  and  C_5
REMARK    3  A    between atoms: C_5  and  C_6
REMARK    4  A    between atoms: C_6  and  O_7
REMARK    5  A    between atoms: O_7  and  C_8
REMARK    6  A    between atoms: C_14  and  N_15
REMARK    7  A    between atoms: C_16  and  C_18
REMARK    8  A    between atoms: C_18  and  C_19
REMARK                            x       y       z     vdW  Elec       q    Type
REMARK                         _______ _______ _______ _____ _____    ______ ____
ROOT
ATOM      1  C   UNL     1       3.091   6.282  18.879  0.00  0.00    +0.000 A 
ATOM      2  O   UNL     1       3.160   7.308  17.908  0.00  0.00    +0.000 OA
ATOM      3  C   UNL     1       2.398   8.437  17.963  0.00  0.00    +0.000 A 
ATOM      4  O   UNL     1       2.441   9.285  17.084  0.00  0.00    +0.000 OA
ATOM      5  C   UNL     1       1.550   8.601  19.169  0.00  0.00    +0.000 A 
ATOM      6  C   UNL     1       0.805   9.785  19.302  0.00  0.00    +0.000 A 
ATOM      7  C   UNL     1       0.033  10.028  20.441  0.00  0.00    +0.000 A 
ATOM      8  C   UNL     1       0.037   9.074  21.459  0.00  0.00    +0.000 A 
ATOM      9  C   UNL     1       0.753   7.874  21.310  0.00  0.00    +0.000 A 
ATOM     10  C   UNL     1       1.518   7.618  20.160  0.00  0.00    +0.000 A 
ATOM     11  C   UNL     1       2.295   6.388  19.958  0.00  0.00    +0.000 A 
ATOM     12 CL   UNL     1       2.179   5.101  21.108  0.00  0.00    +0.000 Cl
ENDROOT
BRANCH   7  13
ATOM     13  N   UNL     1      -0.745  11.204  20.602  0.00  0.00    +0.000 N 
ATOM     14  C   UNL     1      -0.342  12.331  21.299  0.00  0.00    +0.000 C 
ATOM     15  O   UNL     1       0.756  12.486  21.836  0.00  0.00    +0.000 OA
ATOM     16  H   UNL     1      -1.595  11.270  20.054  0.00  0.00    +0.000 HD
BRANCH  14  17
ATOM     17  C   UNL     1      -1.358  13.457  21.340  0.00  0.00    +0.000 C 
BRANCH  17  18
ATOM     18  C   UNL     1      -2.185  13.477  22.601  0.00  0.00    +0.000 A 
ATOM     19  C   UNL     1      -2.215  14.624  23.406  0.00  0.00    +0.000 A 
ATOM     20  C   UNL     1      -3.034  14.675  24.535  0.00  0.00    +0.000 A 
ATOM     21  C   UNL     1      -3.829  13.582  24.874  0.00  0.00    +0.000 A 
ATOM     22  C   UNL     1      -3.802  12.432  24.089  0.00  0.00    +0.000 A 
ATOM     23  C   UNL     1      -2.984  12.380  22.958  0.00  0.00    +0.000 A 
ENDBRANCH  17  18
ENDBRANCH  14  17
ENDBRANCH   7  13
BRANCH   1  24
ATOM     24  O   UNL     1       3.843   5.131  18.681  0.00  0.00    +0.000 OA
BRANCH  24  25
ATOM     25  C   UNL     1       5.228   5.279  19.031  0.00  0.00    +0.000 C 
BRANCH  25  26
ATOM     26  C   UNL     1       6.031   4.224  18.267  0.00  0.00    +0.000 C 
BRANCH  26  27
ATOM     27  S   UNL     1       5.660   4.274  16.481  0.00  0.00    +0.000 S 
BRANCH  27  29
ATOM     28  N   UNL     1       7.386   6.243  16.168  0.00  0.00    +0.000 NA
ATOM     29  C   UNL     1       6.161   5.893  16.077  0.00  0.00    +0.000 C 
ATOM     30  N   UNL     1       5.182   6.724  15.648  0.00  0.00    +0.000 N 
ATOM     31  H   UNL     1       7.471   7.227  15.906  0.00  0.00    +0.000 HD
ATOM     32  H   UNL     1       5.464   7.526  15.100  0.00  0.00    +0.000 HD
ATOM     33  H   UNL     1       4.343   6.269  15.307  0.00  0.00    +0.000 HD
ENDBRANCH  27  29
ENDBRANCH  26  27
ENDBRANCH  25  26
ENDBRANCH  24  25
ENDBRANCH   1  24
TORSDOF 8
ENDMDL
