MODEL 1
REMARK VINA RESULT:      -6.6      0.000      0.000
REMARK  Name = 
REMARK  8 active torsions:
REMARK  status: ('A' for Active; 'I' for Inactive)
REMARK    1  A    between atoms: C_1  and  C_2
REMARK    2  A    between atoms: C_4  and  N_5
REMARK    3  A    between atoms: C_14  and  O_15
REMARK    4  A    between atoms: C_16  and  O_17
REMARK    5  A    between atoms: O_17  and  C_18
REMARK    6  A    between atoms: C_18  and  P_19
REMARK    7  A    between atoms: P_19  and  O_21
REMARK    8  A    between atoms: P_19  and  O_22
REMARK                            x       y       z     vdW  Elec       q    Type
REMARK                         _______ _______ _______ _____ _____    ______ ____
ROOT
ATOM      1  C   UNL     1       2.641   8.930  18.083  0.00  0.00    +0.000 C 
ATOM      2  C   UNL     1       1.770   7.691  18.295  0.00  0.00    +0.000 C 
ATOM      3  O   UNL     1       2.408   6.562  17.685  0.00  0.00    +0.000 OA
ATOM      4  C   UNL     1       2.940   5.716  18.724  0.00  0.00    +0.000 C 
ATOM      5  C   UNL     1       2.745   6.442  20.069  0.00  0.00    +0.000 C 
ATOM      6  C   UNL     1       1.537   7.322  19.763  0.00  0.00    +0.000 C 
ENDROOT
BRANCH   4   7
ATOM      7  N   UNL     1       4.327   5.385  18.419  0.00  0.00    +0.000 N 
ATOM      8  C   UNL     1       5.229   6.371  18.054  0.00  0.00    +0.000 A 
ATOM      9  C   UNL     1       6.495   6.105  17.714  0.00  0.00    +0.000 A 
ATOM     10 CL   UNL     1       7.587   7.333  17.239  0.00  0.00    +0.000 Cl
ATOM     11  C   UNL     1       6.941   4.691  17.737  0.00  0.00    +0.000 A 
ATOM     12  O   UNL     1       8.050   4.332  17.357  0.00  0.00    +0.000 OA
ATOM     13  N   UNL     1       6.017   3.789  18.200  0.00  0.00    +0.000 N 
ATOM     14  C   UNL     1       4.708   4.055  18.520  0.00  0.00    +0.000 A 
ATOM     15  O   UNL     1       3.948   3.146  18.843  0.00  0.00    +0.000 OA
ATOM     16  H   UNL     1       6.297   2.821  18.215  0.00  0.00    +0.000 HD
ENDBRANCH   4   7
BRANCH   5  17
ATOM     17  O   UNL     1       2.515   5.575  21.180  0.00  0.00    +0.000 OA
ATOM     18  H   UNL     1       2.803   6.007  22.004  0.00  0.00    +0.000 HD
ENDBRANCH   5  17
BRANCH   6  19
ATOM     19  O   UNL     1       1.458   8.454  20.625  0.00  0.00    +0.000 OA
BRANCH  19  20
ATOM     20  C   UNL     1       0.343   8.343  21.524  0.00  0.00    +0.000 C 
BRANCH  20  21
ATOM     21  P   UNL     1      -0.079   9.968  22.253  0.00  0.00    +0.000 P 
ATOM     22  O   UNL     1       0.483   9.560  23.617  0.00  0.00    +0.000 OA
BRANCH  21  23
ATOM     23  O   UNL     1       1.167  10.680  21.461  0.00  0.00    +0.000 OA
ATOM     24  H   UNL     1       1.507  11.415  22.015  0.00  0.00    +0.000 HD
ENDBRANCH  21  23
BRANCH  21  25
ATOM     25  O   UNL     1      -0.478  11.505  22.941  0.00  0.00    +0.000 OA
ATOM     26  H   UNL     1       0.304  11.737  23.482  0.00  0.00    +0.000 HD
ENDBRANCH  21  25
ENDBRANCH  20  21
ENDBRANCH  19  20
ENDBRANCH   6  19
TORSDOF 7
ENDMDL
MODEL 2
REMARK VINA RESULT:      -6.4      3.946      7.647
REMARK  Name = 
REMARK  8 active torsions:
REMARK  status: ('A' for Active; 'I' for Inactive)
REMARK    1  A    between atoms: C_1  and  C_2
REMARK    2  A    between atoms: C_4  and  N_5
REMARK    3  A    between atoms: C_14  and  O_15
REMARK    4  A    between atoms: C_16  and  O_17
REMARK    5  A    between atoms: O_17  and  C_18
REMARK    6  A    between atoms: C_18  and  P_19
REMARK    7  A    between atoms: P_19  and  O_21
REMARK    8  A    between atoms: P_19  and  O_22
REMARK                            x       y       z     vdW  Elec       q    Type
REMARK                         _______ _______ _______ _____ _____    ______ ____
ROOT
ATOM      1  C   UNL     1       7.226   6.957  17.440  0.00  0.00    +0.000 C 
ATOM      2  C   UNL     1       7.536   5.504  17.801  0.00  0.00    +0.000 C 
ATOM      3  O   UNL     1       6.760   5.133  18.948  0.00  0.00    +0.000 OA
ATOM      4  C   UNL     1       5.704   4.248  18.523  0.00  0.00    +0.000 C 
ATOM      5  C   UNL     1       5.739   4.177  16.985  0.00  0.00    +0.000 C 
ATOM      6  C   UNL     1       7.204   4.491  16.702  0.00  0.00    +0.000 C 
ENDROOT
BRANCH   4   7
ATOM      7  N   UNL     1       4.434   4.707  19.072  0.00  0.00    +0.000 N 
ATOM      8  C   UNL     1       3.939   5.963  18.763  0.00  0.00    +0.000 A 
ATOM      9  C   UNL     1       2.806   6.445  19.286  0.00  0.00    +0.000 A 
ATOM     10 CL   UNL     1       2.224   8.010  18.914  0.00  0.00    +0.000 Cl
ATOM     11  C   UNL     1       2.056   5.586  20.234  0.00  0.00    +0.000 A 
ATOM     12  O   UNL     1       1.058   5.966  20.837  0.00  0.00    +0.000 OA
ATOM     13  N   UNL     1       2.562   4.323  20.414  0.00  0.00    +0.000 N 
ATOM     14  C   UNL     1       3.740   3.837  19.902  0.00  0.00    +0.000 A 
ATOM     15  O   UNL     1       4.135   2.714  20.202  0.00  0.00    +0.000 OA
ATOM     16  H   UNL     1       2.071   3.726  21.061  0.00  0.00    +0.000 HD
ENDBRANCH   4   7
BRANCH   5  17
ATOM     17  O   UNL     1       5.341   2.918  16.442  0.00  0.00    +0.000 OA
ATOM     18  H   UNL     1       4.411   2.736  16.669  0.00  0.00    +0.000 HD
ENDBRANCH   5  17
BRANCH   6  19
ATOM     19  O   UNL     1       7.407   4.998  15.385  0.00  0.00    +0.000 OA
BRANCH  19  20
ATOM     20  C   UNL     1       6.214   4.879  14.595  0.00  0.00    +0.000 C 
BRANCH  20  21
ATOM     21  P   UNL     1       6.449   3.688  13.224  0.00  0.00    +0.000 P 
ATOM     22  O   UNL     1       5.021   3.910  12.720  0.00  0.00    +0.000 OA
BRANCH  21  23
ATOM     23  O   UNL     1       7.374   4.767  12.407  0.00  0.00    +0.000 OA
ATOM     24  H   UNL     1       7.984   4.271  11.821  0.00  0.00    +0.000 HD
ENDBRANCH  21  23
BRANCH  21  25
ATOM     25  O   UNL     1       6.672   2.564  11.929  0.00  0.00    +0.000 OA
ATOM     26  H   UNL     1       7.593   2.251  12.037  0.00  0.00    +0.000 HD
ENDBRANCH  21  25
ENDBRANCH  20  21
ENDBRANCH  19  20
ENDBRANCH   6  19
TORSDOF 7
ENDMDL
MODEL 3
REMARK VINA RESULT:      -6.4      3.830      4.962
REMARK  Name = 
REMARK  8 active torsions:
REMARK  status: ('A' for Active; 'I' for Inactive)
REMARK    1  A    between atoms: C_1  and  C_2
REMARK    2  A    between atoms: C_4  and  N_5
REMARK    3  A    between atoms: C_14  and  O_15
REMARK    4  A    between atoms: C_16  and  O_17
REMARK    5  A    between atoms: O_17  and  C_18
REMARK    6  A    between atoms: C_18  and  P_19
REMARK    7  A    between atoms: P_19  and  O_21
REMARK    8  A    between atoms: P_19  and  O_22
REMARK                            x       y       z     vdW  Elec       q    Type
REMARK                         _______ _______ _______ _____ _____    ______ ____
ROOT
ATOM      1  C   UNL     1       2.038   3.639  17.026  0.00  0.00    +0.000 C 
ATOM      2  C   UNL     1       3.033   3.267  18.126  0.00  0.00    +0.000 C 
ATOM      3  O   UNL     1       4.292   2.939  17.526  0.00  0.00    +0.000 OA
ATOM      4  C   UNL     1       5.218   4.014  17.784  0.00  0.00    +0.000 C 
ATOM      5  C   UNL     1       4.440   5.152  18.470  0.00  0.00    +0.000 C 
ATOM      6  C   UNL     1       3.306   4.382  19.139  0.00  0.00    +0.000 C 
ENDROOT
BRANCH   4   7
ATOM      7  N   UNL     1       5.874   4.401  16.541  0.00  0.00    +0.000 N 
ATOM      8  C   UNL     1       5.388   3.968  15.318  0.00  0.00    +0.000 A 
ATOM      9  C   UNL     1       5.989   4.254  14.157  0.00  0.00    +0.000 A 
ATOM     10 CL   UNL     1       5.390   3.687  12.658  0.00  0.00    +0.000 Cl
ATOM     11  C   UNL     1       7.223   5.074  14.195  0.00  0.00    +0.000 A 
ATOM     12  O   UNL     1       7.898   5.316  13.199  0.00  0.00    +0.000 OA
ATOM     13  N   UNL     1       7.583   5.542  15.434  0.00  0.00    +0.000 N 
ATOM     14  C   UNL     1       6.987   5.224  16.629  0.00  0.00    +0.000 A 
ATOM     15  O   UNL     1       7.452   5.637  17.688  0.00  0.00    +0.000 OA
ATOM     16  H   UNL     1       8.425   6.095  15.482  0.00  0.00    +0.000 HD
ENDBRANCH   4   7
BRANCH   5  17
ATOM     17  O   UNL     1       5.205   5.910  19.407  0.00  0.00    +0.000 OA
ATOM     18  H   UNL     1       5.368   5.382  20.209  0.00  0.00    +0.000 HD
ENDBRANCH   5  17
BRANCH   6  19
ATOM     19  O   UNL     1       2.170   5.203  19.398  0.00  0.00    +0.000 OA
BRANCH  19  20
ATOM     20  C   UNL     1       1.451   4.742  20.552  0.00  0.00    +0.000 C 
BRANCH  20  21
ATOM     21  P   UNL     1       2.273   3.289  21.303  0.00  0.00    +0.000 P 
ATOM     22  O   UNL     1       2.556   4.054  22.598  0.00  0.00    +0.000 OA
BRANCH  21  23
ATOM     23  O   UNL     1       0.826   2.554  21.536  0.00  0.00    +0.000 OA
ATOM     24  H   UNL     1       0.260   2.730  20.755  0.00  0.00    +0.000 HD
ENDBRANCH  21  23
BRANCH  21  25
ATOM     25  O   UNL     1       3.049   1.915  22.013  0.00  0.00    +0.000 OA
ATOM     26  H   UNL     1       2.690   1.152  21.515  0.00  0.00    +0.000 HD
ENDBRANCH  21  25
ENDBRANCH  20  21
ENDBRANCH  19  20
ENDBRANCH   6  19
TORSDOF 7
ENDMDL
MODEL 4
REMARK VINA RESULT:      -6.4      4.886      7.670
REMARK  Name = 
REMARK  8 active torsions:
REMARK  status: ('A' for Active; 'I' for Inactive)
REMARK    1  A    between atoms: C_1  and  C_2
REMARK    2  A    between atoms: C_4  and  N_5
REMARK    3  A    between atoms: C_14  and  O_15
REMARK    4  A    between atoms: C_16  and  O_17
REMARK    5  A    between atoms: O_17  and  C_18
REMARK    6  A    between atoms: C_18  and  P_19
REMARK    7  A    between atoms: P_19  and  O_21
REMARK    8  A    between atoms: P_19  and  O_22
REMARK                            x       y       z     vdW  Elec       q    Type
REMARK                         _______ _______ _______ _____ _____    ______ ____
ROOT
ATOM      1  C   UNL     1       4.716   7.009  17.058  0.00  0.00    +0.000 C 
ATOM      2  C   UNL     1       5.898   6.064  17.278  0.00  0.00    +0.000 C 
ATOM      3  O   UNL     1       5.816   5.515  18.599  0.00  0.00    +0.000 OA
ATOM      4  C   UNL     1       5.413   4.134  18.499  0.00  0.00    +0.000 C 
ATOM      5  C   UNL     1       5.084   3.845  17.023  0.00  0.00    +0.000 C 
ATOM      6  C   UNL     1       5.953   4.877  16.312  0.00  0.00    +0.000 C 
ENDROOT
BRANCH   4   7
ATOM      7  N   UNL     1       4.310   3.881  19.419  0.00  0.00    +0.000 N 
ATOM      8  C   UNL     1       3.384   4.870  19.707  0.00  0.00    +0.000 A 
ATOM      9  C   UNL     1       2.390   4.699  20.584  0.00  0.00    +0.000 A 
ATOM     10 CL   UNL     1       1.272   5.941  20.948  0.00  0.00    +0.000 Cl
ATOM     11  C   UNL     1       2.283   3.388  21.269  0.00  0.00    +0.000 A 
ATOM     12  O   UNL     1       1.466   3.159  22.155  0.00  0.00    +0.000 OA
ATOM     13  N   UNL     1       3.179   2.433  20.859  0.00  0.00    +0.000 N 
ATOM     14  C   UNL     1       4.219   2.616  19.982  0.00  0.00    +0.000 A 
ATOM     15  O   UNL     1       5.012   1.706  19.755  0.00  0.00    +0.000 OA
ATOM     16  H   UNL     1       3.128   1.537  21.319  0.00  0.00    +0.000 HD
ENDBRANCH   4   7
BRANCH   5  17
ATOM     17  O   UNL     1       5.375   2.512  16.602  0.00  0.00    +0.000 OA
ATOM     18  H   UNL     1       6.187   2.195  17.036  0.00  0.00    +0.000 HD
ENDBRANCH   5  17
BRANCH   6  19
ATOM     19  O   UNL     1       5.471   5.188  15.007  0.00  0.00    +0.000 OA
BRANCH  19  20
ATOM     20  C   UNL     1       6.516   5.072  14.029  0.00  0.00    +0.000 C 
BRANCH  20  21
ATOM     21  P   UNL     1       6.306   3.561  13.017  0.00  0.00    +0.000 P 
ATOM     22  O   UNL     1       4.850   3.911  12.704  0.00  0.00    +0.000 OA
BRANCH  21  23
ATOM     23  O   UNL     1       7.187   4.218  11.800  0.00  0.00    +0.000 OA
ATOM     24  H   UNL     1       7.835   3.551  11.491  0.00  0.00    +0.000 HD
ENDBRANCH  21  23
BRANCH  21  25
ATOM     25  O   UNL     1       6.109   2.133  12.060  0.00  0.00    +0.000 OA
ATOM     26  H   UNL     1       5.260   2.272  11.593  0.00  0.00    +0.000 HD
ENDBRANCH  21  25
ENDBRANCH  20  21
ENDBRANCH  19  20
ENDBRANCH   6  19
TORSDOF 7
ENDMDL
MODEL 5
REMARK VINA RESULT:      -6.4      4.229      7.576
REMARK  Name = 
REMARK  8 active torsions:
REMARK  status: ('A' for Active; 'I' for Inactive)
REMARK    1  A    between atoms: C_1  and  C_2
REMARK    2  A    between atoms: C_4  and  N_5
REMARK    3  A    between atoms: C_14  and  O_15
REMARK    4  A    between atoms: C_16  and  O_17
REMARK    5  A    between atoms: O_17  and  C_18
REMARK    6  A    between atoms: C_18  and  P_19
REMARK    7  A    between atoms: P_19  and  O_21
REMARK    8  A    between atoms: P_19  and  O_22
REMARK                            x       y       z     vdW  Elec       q    Type
REMARK                         _______ _______ _______ _____ _____    ______ ____
ROOT
ATOM      1  C   UNL     1       6.931   7.220  17.861  0.00  0.00    +0.000 C 
ATOM      2  C   UNL     1       7.437   5.794  18.084  0.00  0.00    +0.000 C 
ATOM      3  O   UNL     1       6.676   5.188  19.136  0.00  0.00    +0.000 OA
ATOM      4  C   UNL     1       5.783   4.216  18.557  0.00  0.00    +0.000 C 
ATOM      5  C   UNL     1       5.894   4.326  17.025  0.00  0.00    +0.000 C 
ATOM      6  C   UNL     1       7.308   4.876  16.865  0.00  0.00    +0.000 C 
ENDROOT
BRANCH   4   7
ATOM      7  N   UNL     1       4.436   4.423  19.076  0.00  0.00    +0.000 N 
ATOM      8  C   UNL     1       3.904   5.698  19.182  0.00  0.00    +0.000 A 
ATOM      9  C   UNL     1       2.695   5.938  19.701  0.00  0.00    +0.000 A 
ATOM     10 CL   UNL     1       2.066   7.522  19.850  0.00  0.00    +0.000 Cl
ATOM     11  C   UNL     1       1.898   4.782  20.177  0.00  0.00    +0.000 A 
ATOM     12  O   UNL     1       0.821   4.900  20.750  0.00  0.00    +0.000 OA
ATOM     13  N   UNL     1       2.455   3.548  19.950  0.00  0.00    +0.000 N 
ATOM     14  C   UNL     1       3.708   3.301  19.445  0.00  0.00    +0.000 A 
ATOM     15  O   UNL     1       4.134   2.152  19.366  0.00  0.00    +0.000 OA
ATOM     16  H   UNL     1       1.933   2.749  20.273  0.00  0.00    +0.000 HD
ENDBRANCH   4   7
BRANCH   5  17
ATOM     17  O   UNL     1       5.711   3.094  16.329  0.00  0.00    +0.000 OA
ATOM     18  H   UNL     1       6.547   2.594  16.311  0.00  0.00    +0.000 HD
ENDBRANCH   5  17
BRANCH   6  19
ATOM     19  O   UNL     1       7.490   5.554  15.625  0.00  0.00    +0.000 OA
BRANCH  19  20
ATOM     20  C   UNL     1       6.316   5.454  14.803  0.00  0.00    +0.000 C 
BRANCH  20  21
ATOM     21  P   UNL     1       6.730   4.812  13.139  0.00  0.00    +0.000 P 
ATOM     22  O   UNL     1       8.183   5.278  13.265  0.00  0.00    +0.000 OA
BRANCH  21  23
ATOM     23  O   UNL     1       6.716   3.271  13.698  0.00  0.00    +0.000 OA
ATOM     24  H   UNL     1       7.497   2.801  13.335  0.00  0.00    +0.000 HD
ENDBRANCH  21  23
BRANCH  21  25
ATOM     25  O   UNL     1       7.121   4.204  11.567  0.00  0.00    +0.000 OA
ATOM     26  H   UNL     1       7.239   3.241  11.704  0.00  0.00    +0.000 HD
ENDBRANCH  21  25
ENDBRANCH  20  21
ENDBRANCH  19  20
ENDBRANCH   6  19
TORSDOF 7
ENDMDL
MODEL 6
REMARK VINA RESULT:      -6.3      3.825      4.839
REMARK  Name = 
REMARK  8 active torsions:
REMARK  status: ('A' for Active; 'I' for Inactive)
REMARK    1  A    between atoms: C_1  and  C_2
REMARK    2  A    between atoms: C_4  and  N_5
REMARK    3  A    between atoms: C_14  and  O_15
REMARK    4  A    between atoms: C_16  and  O_17
REMARK    5  A    between atoms: O_17  and  C_18
REMARK    6  A    between atoms: C_18  and  P_19
REMARK    7  A    between atoms: P_19  and  O_21
REMARK    8  A    between atoms: P_19  and  O_22
REMARK                            x       y       z     vdW  Elec       q    Type
REMARK                         _______ _______ _______ _____ _____    ______ ____
ROOT
ATOM      1  C   UNL     1       2.702   6.514  17.863  0.00  0.00    +0.000 C 
ATOM      2  C   UNL     1       2.659   4.987  17.925  0.00  0.00    +0.000 C 
ATOM      3  O   UNL     1       3.229   4.455  16.722  0.00  0.00    +0.000 OA
ATOM      4  C   UNL     1       4.525   3.903  17.032  0.00  0.00    +0.000 C 
ATOM      5  C   UNL     1       4.843   4.243  18.500  0.00  0.00    +0.000 C 
ATOM      6  C   UNL     1       3.443   4.375  19.090  0.00  0.00    +0.000 C 
ENDROOT
BRANCH   4   7
ATOM      7  N   UNL     1       5.506   4.401  16.076  0.00  0.00    +0.000 N 
ATOM      8  C   UNL     1       5.572   3.886  14.792  0.00  0.00    +0.000 A 
ATOM      9  C   UNL     1       6.490   4.274  13.901  0.00  0.00    +0.000 A 
ATOM     10 CL   UNL     1       6.573   3.606  12.328  0.00  0.00    +0.000 Cl
ATOM     11  C   UNL     1       7.473   5.304  14.316  0.00  0.00    +0.000 A 
ATOM     12  O   UNL     1       8.408   5.663  13.608  0.00  0.00    +0.000 OA
ATOM     13  N   UNL     1       7.281   5.831  15.569  0.00  0.00    +0.000 N 
ATOM     14  C   UNL     1       6.358   5.412  16.496  0.00  0.00    +0.000 A 
ATOM     15  O   UNL     1       6.337   5.904  17.621  0.00  0.00    +0.000 OA
ATOM     16  H   UNL     1       7.943   6.527  15.873  0.00  0.00    +0.000 HD
ENDBRANCH   4   7
BRANCH   5  17
ATOM     17  O   UNL     1       5.625   3.260  19.179  0.00  0.00    +0.000 OA
ATOM     18  H   UNL     1       6.048   2.667  18.532  0.00  0.00    +0.000 HD
ENDBRANCH   5  17
BRANCH   6  19
ATOM     19  O   UNL     1       3.422   5.177  20.268  0.00  0.00    +0.000 OA
BRANCH  19  20
ATOM     20  C   UNL     1       2.503   4.649  21.237  0.00  0.00    +0.000 C 
BRANCH  20  21
ATOM     21  P   UNL     1       1.759   3.081  20.653  0.00  0.00    +0.000 P 
ATOM     22  O   UNL     1       1.632   2.549  22.083  0.00  0.00    +0.000 OA
BRANCH  21  23
ATOM     23  O   UNL     1       0.339   3.838  20.340  0.00  0.00    +0.000 OA
ATOM     24  H   UNL     1      -0.365   3.409  20.871  0.00  0.00    +0.000 HD
ENDBRANCH  21  23
BRANCH  21  25
ATOM     25  O   UNL     1       1.055   1.601  20.101  0.00  0.00    +0.000 OA
ATOM     26  H   UNL     1       0.461   1.330  20.830  0.00  0.00    +0.000 HD
ENDBRANCH  21  25
ENDBRANCH  20  21
ENDBRANCH  19  20
ENDBRANCH   6  19
TORSDOF 7
ENDMDL
MODEL 7
REMARK VINA RESULT:      -6.3      0.809      1.108
REMARK  Name = 
REMARK  8 active torsions:
REMARK  status: ('A' for Active; 'I' for Inactive)
REMARK    1  A    between atoms: C_1  and  C_2
REMARK    2  A    between atoms: C_4  and  N_5
REMARK    3  A    between atoms: C_14  and  O_15
REMARK    4  A    between atoms: C_16  and  O_17
REMARK    5  A    between atoms: O_17  and  C_18
REMARK    6  A    between atoms: C_18  and  P_19
REMARK    7  A    between atoms: P_19  and  O_21
REMARK    8  A    between atoms: P_19  and  O_22
REMARK                            x       y       z     vdW  Elec       q    Type
REMARK                         _______ _______ _______ _____ _____    ______ ____
ROOT
ATOM      1  C   UNL     1       2.612   8.852  17.992  0.00  0.00    +0.000 C 
ATOM      2  C   UNL     1       1.776   7.594  18.230  0.00  0.00    +0.000 C 
ATOM      3  O   UNL     1       2.338   6.512  17.477  0.00  0.00    +0.000 OA
ATOM      4  C   UNL     1       2.995   5.608  18.389  0.00  0.00    +0.000 C 
ATOM      5  C   UNL     1       2.963   6.246  19.790  0.00  0.00    +0.000 C 
ATOM      6  C   UNL     1       1.725   7.132  19.689  0.00  0.00    +0.000 C 
ENDROOT
BRANCH   4   7
ATOM      7  N   UNL     1       4.335   5.311  17.897  0.00  0.00    +0.000 N 
ATOM      8  C   UNL     1       5.327   6.278  17.908  0.00  0.00    +0.000 A 
ATOM      9  C   UNL     1       6.553   6.065  17.418  0.00  0.00    +0.000 A 
ATOM     10 CL   UNL     1       7.756   7.281  17.414  0.00  0.00    +0.000 Cl
ATOM     11  C   UNL     1       6.852   4.731  16.845  0.00  0.00    +0.000 A 
ATOM     12  O   UNL     1       7.913   4.462  16.290  0.00  0.00    +0.000 OA
ATOM     13  N   UNL     1       5.849   3.801  16.959  0.00  0.00    +0.000 N 
ATOM     14  C   UNL     1       4.580   4.026  17.434  0.00  0.00    +0.000 A 
ATOM     15  O   UNL     1       3.737   3.134  17.408  0.00  0.00    +0.000 OA
ATOM     16  H   UNL     1       6.030   2.890  16.568  0.00  0.00    +0.000 HD
ENDBRANCH   4   7
BRANCH   5  17
ATOM     17  O   UNL     1       2.872   5.310  20.864  0.00  0.00    +0.000 OA
ATOM     18  H   UNL     1       3.747   4.920  21.041  0.00  0.00    +0.000 HD
ENDBRANCH   5  17
BRANCH   6  19
ATOM     19  O   UNL     1       1.748   8.207  20.624  0.00  0.00    +0.000 OA
BRANCH  19  20
ATOM     20  C   UNL     1       0.628   8.138  21.520  0.00  0.00    +0.000 C 
BRANCH  20  21
ATOM     21  P   UNL     1       0.210   9.794  22.181  0.00  0.00    +0.000 P 
ATOM     22  O   UNL     1      -0.574  10.156  20.918  0.00  0.00    +0.000 OA
BRANCH  21  23
ATOM     23  O   UNL     1      -0.889   9.139  23.206  0.00  0.00    +0.000 OA
ATOM     24  H   UNL     1      -0.987   8.188  22.989  0.00  0.00    +0.000 HD
ENDBRANCH  21  23
BRANCH  21  25
ATOM     25  O   UNL     1      -0.185  11.357  22.806  0.00  0.00    +0.000 OA
ATOM     26  H   UNL     1      -0.851  11.178  23.501  0.00  0.00    +0.000 HD
ENDBRANCH  21  25
ENDBRANCH  20  21
ENDBRANCH  19  20
ENDBRANCH   6  19
TORSDOF 7
ENDMDL
MODEL 8
REMARK VINA RESULT:      -6.1      3.998      5.340
REMARK  Name = 
REMARK  8 active torsions:
REMARK  status: ('A' for Active; 'I' for Inactive)
REMARK    1  A    between atoms: C_1  and  C_2
REMARK    2  A    between atoms: C_4  and  N_5
REMARK    3  A    between atoms: C_14  and  O_15
REMARK    4  A    between atoms: C_16  and  O_17
REMARK    5  A    between atoms: O_17  and  C_18
REMARK    6  A    between atoms: C_18  and  P_19
REMARK    7  A    between atoms: P_19  and  O_21
REMARK    8  A    between atoms: P_19  and  O_22
REMARK                            x       y       z     vdW  Elec       q    Type
REMARK                         _______ _______ _______ _____ _____    ______ ____
ROOT
ATOM      1  C   UNL     1       3.783   2.258  17.787  0.00  0.00    +0.000 C 
ATOM      2  C   UNL     1       4.393   3.410  18.586  0.00  0.00    +0.000 C 
ATOM      3  O   UNL     1       5.627   3.802  17.972  0.00  0.00    +0.000 OA
ATOM      4  C   UNL     1       5.430   5.067  17.308  0.00  0.00    +0.000 C 
ATOM      5  C   UNL     1       3.932   5.416  17.395  0.00  0.00    +0.000 C 
ATOM      6  C   UNL     1       3.521   4.667  18.658  0.00  0.00    +0.000 C 
ENDROOT
BRANCH   4   7
ATOM      7  N   UNL     1       5.948   4.988  15.948  0.00  0.00    +0.000 N 
ATOM      8  C   UNL     1       5.253   4.310  14.961  0.00  0.00    +0.000 A 
ATOM      9  C   UNL     1       5.717   4.167  13.714  0.00  0.00    +0.000 A 
ATOM     10 CL   UNL     1       4.856   3.302  12.515  0.00  0.00    +0.000 Cl
ATOM     11  C   UNL     1       7.032   4.769  13.387  0.00  0.00    +0.000 A 
ATOM     12  O   UNL     1       7.587   4.619  12.304  0.00  0.00    +0.000 OA
ATOM     13  N   UNL     1       7.611   5.503  14.392  0.00  0.00    +0.000 N 
ATOM     14  C   UNL     1       7.152   5.625  15.680  0.00  0.00    +0.000 A 
ATOM     15  O   UNL     1       7.803   6.242  16.519  0.00  0.00    +0.000 OA
ATOM     16  H   UNL     1       8.510   5.913  14.192  0.00  0.00    +0.000 HD
ENDBRANCH   4   7
BRANCH   5  17
ATOM     17  O   UNL     1       3.655   6.814  17.481  0.00  0.00    +0.000 OA
ATOM     18  H   UNL     1       3.032   6.986  18.209  0.00  0.00    +0.000 HD
ENDBRANCH   5  17
BRANCH   6  19
ATOM     19  O   UNL     1       2.124   4.385  18.692  0.00  0.00    +0.000 OA
BRANCH  19  20
ATOM     20  C   UNL     1       1.533   4.844  19.917  0.00  0.00    +0.000 C 
BRANCH  20  21
ATOM     21  P   UNL     1       1.353   3.473  21.116  0.00  0.00    +0.000 P 
ATOM     22  O   UNL     1       1.286   2.433  19.995  0.00  0.00    +0.000 OA
BRANCH  21  23
ATOM     23  O   UNL     1       2.939   3.579  21.520  0.00  0.00    +0.000 OA
ATOM     24  H   UNL     1       3.388   4.151  20.862  0.00  0.00    +0.000 HD
ENDBRANCH  21  23
BRANCH  21  25
ATOM     25  O   UNL     1       1.185   2.177  22.250  0.00  0.00    +0.000 OA
ATOM     26  H   UNL     1       2.101   1.992  22.543  0.00  0.00    +0.000 HD
ENDBRANCH  21  25
ENDBRANCH  20  21
ENDBRANCH  19  20
ENDBRANCH   6  19
TORSDOF 7
ENDMDL
MODEL 9
REMARK VINA RESULT:      -6.1      3.950      5.389
REMARK  Name = 
REMARK  8 active torsions:
REMARK  status: ('A' for Active; 'I' for Inactive)
REMARK    1  A    between atoms: C_1  and  C_2
REMARK    2  A    between atoms: C_4  and  N_5
REMARK    3  A    between atoms: C_14  and  O_15
REMARK    4  A    between atoms: C_16  and  O_17
REMARK    5  A    between atoms: O_17  and  C_18
REMARK    6  A    between atoms: C_18  and  P_19
REMARK    7  A    between atoms: P_19  and  O_21
REMARK    8  A    between atoms: P_19  and  O_22
REMARK                            x       y       z     vdW  Elec       q    Type
REMARK                         _______ _______ _______ _____ _____    ______ ____
ROOT
ATOM      1  C   UNL     1       2.841   2.920  16.813  0.00  0.00    +0.000 C 
ATOM      2  C   UNL     1       3.930   3.330  17.805  0.00  0.00    +0.000 C 
ATOM      3  O   UNL     1       5.209   3.208  17.171  0.00  0.00    +0.000 OA
ATOM      4  C   UNL     1       5.710   4.530  16.886  0.00  0.00    +0.000 C 
ATOM      5  C   UNL     1       4.602   5.540  17.239  0.00  0.00    +0.000 C 
ATOM      6  C   UNL     1       3.824   4.774  18.304  0.00  0.00    +0.000 C 
ENDROOT
BRANCH   4   7
ATOM      7  N   UNL     1       6.158   4.592  15.500  0.00  0.00    +0.000 N 
ATOM      8  C   UNL     1       5.579   3.792  14.530  0.00  0.00    +0.000 A 
ATOM      9  C   UNL     1       5.994   3.777  13.259  0.00  0.00    +0.000 A 
ATOM     10 CL   UNL     1       5.285   2.761  12.080  0.00  0.00    +0.000 Cl
ATOM     11  C   UNL     1       7.122   4.665  12.884  0.00  0.00    +0.000 A 
ATOM     12  O   UNL     1       7.636   4.661  11.771  0.00  0.00    +0.000 OA
ATOM     13  N   UNL     1       7.576   5.493  13.879  0.00  0.00    +0.000 N 
ATOM     14  C   UNL     1       7.172   5.488  15.192  0.00  0.00    +0.000 A 
ATOM     15  O   UNL     1       7.713   6.221  16.014  0.00  0.00    +0.000 OA
ATOM     16  H   UNL     1       8.348   6.099  13.647  0.00  0.00    +0.000 HD
ENDBRANCH   4   7
BRANCH   5  17
ATOM     17  O   UNL     1       5.079   6.797  17.717  0.00  0.00    +0.000 OA
ATOM     18  H   UNL     1       4.473   7.509  17.445  0.00  0.00    +0.000 HD
ENDBRANCH   5  17
BRANCH   6  19
ATOM     19  O   UNL     1       2.480   5.232  18.430  0.00  0.00    +0.000 OA
BRANCH  19  20
ATOM     20  C   UNL     1       2.093   5.325  19.810  0.00  0.00    +0.000 C 
BRANCH  20  21
ATOM     21  P   UNL     1       1.944   3.665  20.566  0.00  0.00    +0.000 P 
ATOM     22  O   UNL     1       2.223   4.220  21.964  0.00  0.00    +0.000 OA
BRANCH  21  23
ATOM     23  O   UNL     1       0.313   3.703  20.397  0.00  0.00    +0.000 OA
ATOM     24  H   UNL     1      -0.090   3.295  21.193  0.00  0.00    +0.000 HD
ENDBRANCH  21  23
BRANCH  21  25
ATOM     25  O   UNL     1       1.801   2.096  21.280  0.00  0.00    +0.000 OA
ATOM     26  H   UNL     1       2.524   2.065  21.940  0.00  0.00    +0.000 HD
ENDBRANCH  21  25
ENDBRANCH  20  21
ENDBRANCH  19  20
ENDBRANCH   6  19
TORSDOF 7
ENDMDL
