MODEL 1
REMARK VINA RESULT:      -8.5      0.000      0.000
REMARK  Name = 
REMARK  2 active torsions:
REMARK  status: ('A' for Active; 'I' for Inactive)
REMARK    1  A    between atoms: C_9  and  C_10
REMARK    2  A    between atoms: C_16  and  C_18
REMARK                            x       y       z     vdW  Elec       q    Type
REMARK                         _______ _______ _______ _____ _____    ______ ____
ROOT
ATOM      1  O   UNL     1       0.143  13.132  20.237  0.00  0.00    +0.000 OA
ATOM      2  C   UNL     1      -0.190  12.149  20.892  0.00  0.00    +0.000 C 
ATOM      3  N   UNL     1      -1.338  12.191  21.649  0.00  0.00    +0.000 N 
ATOM      4  C   UNL     1      -1.408  11.706  23.014  0.00  0.00    +0.000 C 
ATOM      5  C   UNL     1      -0.969  10.266  23.220  0.00  0.00    +0.000 C 
ATOM      6  O   UNL     1       0.441  10.138  23.026  0.00  0.00    +0.000 OA
ATOM      7  C   UNL     1       0.722   9.917  21.707  0.00  0.00    +0.000 A 
ATOM      8  C   UNL     1       1.299   8.680  21.399  0.00  0.00    +0.000 A 
ATOM      9  C   UNL     1       1.605   8.318  20.073  0.00  0.00    +0.000 A 
ATOM     10  C   UNL     1       1.402   9.287  19.078  0.00  0.00    +0.000 A 
ATOM     11  C   UNL     1       0.877  10.545  19.391  0.00  0.00    +0.000 A 
ATOM     12  C   UNL     1       0.498  10.854  20.703  0.00  0.00    +0.000 A 
ATOM     13  H   UNL     1      -1.785  13.090  21.513  0.00  0.00    +0.000 HD
ENDROOT
BRANCH   9  14
ATOM     14  C   UNL     1       2.080   6.957  19.739  0.00  0.00    +0.000 A 
ATOM     15  C   UNL     1       1.795   5.876  20.582  0.00  0.00    +0.000 A 
ATOM     16  C   UNL     1       2.246   4.619  20.237  0.00  0.00    +0.000 A 
ATOM     17  N   UNL     1       2.955   4.367  19.126  0.00  0.00    +0.000 NA
ATOM     18  C   UNL     1       3.242   5.388  18.304  0.00  0.00    +0.000 A 
ATOM     19  N   UNL     1       4.020   5.159  17.159  0.00  0.00    +0.000 N 
ATOM     20  C   UNL     1       4.561   3.936  16.828  0.00  0.00    +0.000 C 
ATOM     21  O   UNL     1       4.412   2.870  17.416  0.00  0.00    +0.000 OA
ATOM     22  C   UNL     1       2.812   6.685  18.568  0.00  0.00    +0.000 A 
ATOM     23  H   UNL     1       4.234   5.953  16.572  0.00  0.00    +0.000 HD
BRANCH  20  24
ATOM     24  C   UNL     1       5.452   3.967  15.631  0.00  0.00    +0.000 C 
ATOM     25  C   UNL     1       5.811   5.307  15.028  0.00  0.00    +0.000 C 
ATOM     26  C   UNL     1       6.859   4.515  15.750  0.00  0.00    +0.000 C 
ENDBRANCH  20  24
ENDBRANCH   9  14
TORSDOF 2
ENDMDL
MODEL 2
REMARK VINA RESULT:      -8.0      2.830      8.296
REMARK  Name = 
REMARK  2 active torsions:
REMARK  status: ('A' for Active; 'I' for Inactive)
REMARK    1  A    between atoms: C_9  and  C_10
REMARK    2  A    between atoms: C_16  and  C_18
REMARK                            x       y       z     vdW  Elec       q    Type
REMARK                         _______ _______ _______ _____ _____    ______ ____
ROOT
ATOM      1  O   UNL     1       5.141   3.186  19.658  0.00  0.00    +0.000 OA
ATOM      2  C   UNL     1       4.833   3.860  18.680  0.00  0.00    +0.000 C 
ATOM      3  N   UNL     1       4.988   3.338  17.416  0.00  0.00    +0.000 N 
ATOM      4  C   UNL     1       5.575   4.080  16.316  0.00  0.00    +0.000 C 
ATOM      5  C   UNL     1       4.924   5.417  16.008  0.00  0.00    +0.000 C 
ATOM      6  O   UNL     1       5.183   6.356  17.054  0.00  0.00    +0.000 OA
ATOM      7  C   UNL     1       4.238   6.249  18.035  0.00  0.00    +0.000 A 
ATOM      8  C   UNL     1       3.416   7.366  18.223  0.00  0.00    +0.000 A 
ATOM      9  C   UNL     1       2.382   7.369  19.179  0.00  0.00    +0.000 A 
ATOM     10  C   UNL     1       2.270   6.244  20.010  0.00  0.00    +0.000 A 
ATOM     11  C   UNL     1       3.126   5.147  19.861  0.00  0.00    +0.000 A 
ATOM     12  C   UNL     1       4.092   5.128  18.847  0.00  0.00    +0.000 A 
ATOM     13  H   UNL     1       5.331   2.388  17.496  0.00  0.00    +0.000 HD
ENDROOT
BRANCH   9  14
ATOM     14  C   UNL     1       1.428   8.495  19.274  0.00  0.00    +0.000 A 
ATOM     15  C   UNL     1       1.264   9.191  20.479  0.00  0.00    +0.000 A 
ATOM     16  C   UNL     1       0.371  10.241  20.531  0.00  0.00    +0.000 A 
ATOM     17  N   UNL     1      -0.362  10.641  19.481  0.00  0.00    +0.000 NA
ATOM     18  C   UNL     1      -0.223   9.988  18.317  0.00  0.00    +0.000 A 
ATOM     19  N   UNL     1      -1.011  10.358  17.217  0.00  0.00    +0.000 N 
ATOM     20  C   UNL     1      -1.974  11.343  17.256  0.00  0.00    +0.000 C 
ATOM     21  O   UNL     1      -2.254  12.077  18.198  0.00  0.00    +0.000 OA
ATOM     22  C   UNL     1       0.667   8.929  18.172  0.00  0.00    +0.000 A 
ATOM     23  H   UNL     1      -0.896   9.834  16.361  0.00  0.00    +0.000 HD
BRANCH  20  24
ATOM     24  C   UNL     1      -2.767  11.472  15.997  0.00  0.00    +0.000 C 
ATOM     25  C   UNL     1      -2.883  10.269  15.087  0.00  0.00    +0.000 C 
ATOM     26  C   UNL     1      -4.083  10.735  15.854  0.00  0.00    +0.000 C 
ENDBRANCH  20  24
ENDBRANCH   9  14
TORSDOF 2
ENDMDL
MODEL 3
REMARK VINA RESULT:      -7.9      1.611      8.962
REMARK  Name = 
REMARK  2 active torsions:
REMARK  status: ('A' for Active; 'I' for Inactive)
REMARK    1  A    between atoms: C_9  and  C_10
REMARK    2  A    between atoms: C_16  and  C_18
REMARK                            x       y       z     vdW  Elec       q    Type
REMARK                         _______ _______ _______ _____ _____    ______ ____
ROOT
ATOM      1  O   UNL     1       4.949   2.946  19.500  0.00  0.00    +0.000 OA
ATOM      2  C   UNL     1       4.719   3.643  18.516  0.00  0.00    +0.000 C 
ATOM      3  N   UNL     1       4.863   3.112  17.256  0.00  0.00    +0.000 N 
ATOM      4  C   UNL     1       5.533   3.806  16.172  0.00  0.00    +0.000 C 
ATOM      5  C   UNL     1       4.997   5.190  15.851  0.00  0.00    +0.000 C 
ATOM      6  O   UNL     1       5.305   6.105  16.906  0.00  0.00    +0.000 OA
ATOM      7  C   UNL     1       4.331   6.072  17.864  0.00  0.00    +0.000 A 
ATOM      8  C   UNL     1       3.596   7.251  18.035  0.00  0.00    +0.000 A 
ATOM      9  C   UNL     1       2.543   7.335  18.967  0.00  0.00    +0.000 A 
ATOM     10  C   UNL     1       2.322   6.221  19.792  0.00  0.00    +0.000 A 
ATOM     11  C   UNL     1       3.092   5.061  19.660  0.00  0.00    +0.000 A 
ATOM     12  C   UNL     1       4.077   4.966  18.669  0.00  0.00    +0.000 A 
ATOM     13  H   UNL     1       5.127   2.138  17.341  0.00  0.00    +0.000 HD
ENDROOT
BRANCH   9  14
ATOM     14  C   UNL     1       1.679   8.534  19.042  0.00  0.00    +0.000 A 
ATOM     15  C   UNL     1       1.437   9.311  17.902  0.00  0.00    +0.000 A 
ATOM     16  C   UNL     1       0.620  10.417  18.006  0.00  0.00    +0.000 A 
ATOM     17  N   UNL     1       0.036  10.800  19.151  0.00  0.00    +0.000 NA
ATOM     18  C   UNL     1       0.255  10.073  20.258  0.00  0.00    +0.000 A 
ATOM     19  N   UNL     1      -0.307  10.478  21.477  0.00  0.00    +0.000 N 
ATOM     20  C   UNL     1      -1.056  11.624  21.636  0.00  0.00    +0.000 C 
ATOM     21  O   UNL     1      -1.397  12.420  20.767  0.00  0.00    +0.000 OA
ATOM     22  C   UNL     1       1.052   8.932  20.238  0.00  0.00    +0.000 A 
ATOM     23  H   UNL     1      -0.107   9.919  22.294  0.00  0.00    +0.000 HD
BRANCH  20  24
ATOM     24  C   UNL     1      -1.442  11.909  23.050  0.00  0.00    +0.000 C 
ATOM     25  C   UNL     1      -1.997  13.275  23.390  0.00  0.00    +0.000 C 
ATOM     26  C   UNL     1      -2.902  12.081  23.415  0.00  0.00    +0.000 C 
ENDBRANCH  20  24
ENDBRANCH   9  14
TORSDOF 2
ENDMDL
MODEL 4
REMARK VINA RESULT:      -7.9      1.135      2.180
REMARK  Name = 
REMARK  2 active torsions:
REMARK  status: ('A' for Active; 'I' for Inactive)
REMARK    1  A    between atoms: C_9  and  C_10
REMARK    2  A    between atoms: C_16  and  C_18
REMARK                            x       y       z     vdW  Elec       q    Type
REMARK                         _______ _______ _______ _____ _____    ______ ____
ROOT
ATOM      1  O   UNL     1      -0.518  12.403  22.329  0.00  0.00    +0.000 OA
ATOM      2  C   UNL     1       0.281  12.243  21.411  0.00  0.00    +0.000 C 
ATOM      3  N   UNL     1       1.043  13.304  20.978  0.00  0.00    +0.000 N 
ATOM      4  C   UNL     1       1.243  13.620  19.577  0.00  0.00    +0.000 C 
ATOM      5  C   UNL     1       1.793  12.491  18.723  0.00  0.00    +0.000 C 
ATOM      6  O   UNL     1       0.818  11.457  18.566  0.00  0.00    +0.000 OA
ATOM      7  C   UNL     1       0.899  10.566  19.599  0.00  0.00    +0.000 A 
ATOM      8  C   UNL     1       1.277   9.262  19.259  0.00  0.00    +0.000 A 
ATOM      9  C   UNL     1       1.428   8.259  20.235  0.00  0.00    +0.000 A 
ATOM     10  C   UNL     1       1.088   8.590  21.556  0.00  0.00    +0.000 A 
ATOM     11  C   UNL     1       0.658   9.878  21.891  0.00  0.00    +0.000 A 
ATOM     12  C   UNL     1       0.597  10.885  20.919  0.00  0.00    +0.000 A 
ATOM     13  H   UNL     1       0.833  14.111  21.552  0.00  0.00    +0.000 HD
ENDROOT
BRANCH   9  14
ATOM     14  C   UNL     1       1.965   6.925  19.889  0.00  0.00    +0.000 A 
ATOM     15  C   UNL     1       1.762   5.832  20.741  0.00  0.00    +0.000 A 
ATOM     16  C   UNL     1       2.269   4.599  20.384  0.00  0.00    +0.000 A 
ATOM     17  N   UNL     1       2.958   4.383  19.253  0.00  0.00    +0.000 NA
ATOM     18  C   UNL     1       3.167   5.416  18.422  0.00  0.00    +0.000 A 
ATOM     19  N   UNL     1       3.923   5.226  17.256  0.00  0.00    +0.000 N 
ATOM     20  C   UNL     1       4.518   4.032  16.911  0.00  0.00    +0.000 C 
ATOM     21  O   UNL     1       4.443   2.961  17.504  0.00  0.00    +0.000 OA
ATOM     22  C   UNL     1       2.676   6.688  18.697  0.00  0.00    +0.000 A 
ATOM     23  H   UNL     1       4.078   6.028  16.662  0.00  0.00    +0.000 HD
BRANCH  20  24
ATOM     24  C   UNL     1       5.373   4.107  15.688  0.00  0.00    +0.000 C 
ATOM     25  C   UNL     1       5.725   5.469  15.132  0.00  0.00    +0.000 C 
ATOM     26  C   UNL     1       6.787   4.639  15.786  0.00  0.00    +0.000 C 
ENDBRANCH  20  24
ENDBRANCH   9  14
TORSDOF 2
ENDMDL
MODEL 5
REMARK VINA RESULT:      -7.9      1.807      8.636
REMARK  Name = 
REMARK  2 active torsions:
REMARK  status: ('A' for Active; 'I' for Inactive)
REMARK    1  A    between atoms: C_9  and  C_10
REMARK    2  A    between atoms: C_16  and  C_18
REMARK                            x       y       z     vdW  Elec       q    Type
REMARK                         _______ _______ _______ _____ _____    ______ ____
ROOT
ATOM      1  O   UNL     1       4.968   3.383  16.843  0.00  0.00    +0.000 OA
ATOM      2  C   UNL     1       4.496   3.671  17.939  0.00  0.00    +0.000 C 
ATOM      3  N   UNL     1       4.871   2.955  19.052  0.00  0.00    +0.000 N 
ATOM      4  C   UNL     1       3.929   2.477  20.045  0.00  0.00    +0.000 C 
ATOM      5  C   UNL     1       3.033   3.538  20.662  0.00  0.00    +0.000 C 
ATOM      6  O   UNL     1       2.094   4.024  19.700  0.00  0.00    +0.000 OA
ATOM      7  C   UNL     1       2.635   5.056  18.985  0.00  0.00    +0.000 A 
ATOM      8  C   UNL     1       2.020   6.303  19.143  0.00  0.00    +0.000 A 
ATOM      9  C   UNL     1       2.503   7.452  18.487  0.00  0.00    +0.000 A 
ATOM     10  C   UNL     1       3.567   7.281  17.588  0.00  0.00    +0.000 A 
ATOM     11  C   UNL     1       4.148   6.025  17.387  0.00  0.00    +0.000 A 
ATOM     12  C   UNL     1       3.710   4.911  18.113  0.00  0.00    +0.000 A 
ATOM     13  H   UNL     1       5.561   2.265  18.778  0.00  0.00    +0.000 HD
ENDROOT
BRANCH   9  14
ATOM     14  C   UNL     1       1.940   8.791  18.769  0.00  0.00    +0.000 A 
ATOM     15  C   UNL     1       2.158   9.856  17.885  0.00  0.00    +0.000 A 
ATOM     16  C   UNL     1       1.611  11.089  18.174  0.00  0.00    +0.000 A 
ATOM     17  N   UNL     1       0.874  11.333  19.267  0.00  0.00    +0.000 NA
ATOM     18  C   UNL     1       0.653  10.329  20.130  0.00  0.00    +0.000 A 
ATOM     19  N   UNL     1      -0.077  10.569  21.303  0.00  0.00    +0.000 N 
ATOM     20  C   UNL     1      -0.563  11.806  21.667  0.00  0.00    +0.000 C 
ATOM     21  O   UNL     1      -0.499  12.852  21.028  0.00  0.00    +0.000 OA
ATOM     22  C   UNL     1       1.153   9.049  19.907  0.00  0.00    +0.000 A 
ATOM     23  H   UNL     1      -0.209   9.796  21.940  0.00  0.00    +0.000 HD
BRANCH  20  24
ATOM     24  C   UNL     1      -1.200  11.838  23.017  0.00  0.00    +0.000 C 
ATOM     25  C   UNL     1      -1.821  13.133  23.496  0.00  0.00    +0.000 C 
ATOM     26  C   UNL     1      -2.703  11.975  23.140  0.00  0.00    +0.000 C 
ENDBRANCH  20  24
ENDBRANCH   9  14
TORSDOF 2
ENDMDL
MODEL 6
REMARK VINA RESULT:      -7.9      1.045      1.159
REMARK  Name = 
REMARK  2 active torsions:
REMARK  status: ('A' for Active; 'I' for Inactive)
REMARK    1  A    between atoms: C_9  and  C_10
REMARK    2  A    between atoms: C_16  and  C_18
REMARK                            x       y       z     vdW  Elec       q    Type
REMARK                         _______ _______ _______ _____ _____    ______ ____
ROOT
ATOM      1  O   UNL     1      -1.452  13.294  19.667  0.00  0.00    +0.000 OA
ATOM      2  C   UNL     1      -1.378  12.376  20.478  0.00  0.00    +0.000 C 
ATOM      3  N   UNL     1      -2.339  12.251  21.455  0.00  0.00    +0.000 N 
ATOM      4  C   UNL     1      -2.028  11.986  22.847  0.00  0.00    +0.000 C 
ATOM      5  C   UNL     1      -1.179  10.753  23.105  0.00  0.00    +0.000 C 
ATOM      6  O   UNL     1       0.154  10.951  22.628  0.00  0.00    +0.000 OA
ATOM      7  C   UNL     1       0.245  10.601  21.310  0.00  0.00    +0.000 A 
ATOM      8  C   UNL     1       1.077   9.514  21.018  0.00  0.00    +0.000 A 
ATOM      9  C   UNL     1       1.229   9.034  19.703  0.00  0.00    +0.000 A 
ATOM     10  C   UNL     1       0.593   9.750  18.678  0.00  0.00    +0.000 A 
ATOM     11  C   UNL     1      -0.195  10.871  18.961  0.00  0.00    +0.000 A 
ATOM     12  C   UNL     1      -0.405  11.280  20.284  0.00  0.00    +0.000 A 
ATOM     13  H   UNL     1      -3.034  12.976  21.323  0.00  0.00    +0.000 HD
ENDROOT
BRANCH   9  14
ATOM     14  C   UNL     1       1.994   7.799  19.420  0.00  0.00    +0.000 A 
ATOM     15  C   UNL     1       2.031   6.755  20.353  0.00  0.00    +0.000 A 
ATOM     16  C   UNL     1       2.748   5.614  20.054  0.00  0.00    +0.000 A 
ATOM     17  N   UNL     1       3.423   5.444  18.907  0.00  0.00    +0.000 NA
ATOM     18  C   UNL     1       3.404   6.433  18.000  0.00  0.00    +0.000 A 
ATOM     19  N   UNL     1       4.138   6.298  16.812  0.00  0.00    +0.000 N 
ATOM     20  C   UNL     1       4.934   5.212  16.519  0.00  0.00    +0.000 C 
ATOM     21  O   UNL     1       5.083   4.194  17.185  0.00  0.00    +0.000 OA
ATOM     22  C   UNL     1       2.693   7.610  18.213  0.00  0.00    +0.000 A 
ATOM     23  H   UNL     1       4.118   7.069  16.159  0.00  0.00    +0.000 HD
BRANCH  20  24
ATOM     24  C   UNL     1       5.714   5.352  15.252  0.00  0.00    +0.000 C 
ATOM     25  C   UNL     1       7.131   4.825  15.211  0.00  0.00    +0.000 C 
ATOM     26  C   UNL     1       6.057   4.123  14.437  0.00  0.00    +0.000 C 
ENDBRANCH  20  24
ENDBRANCH   9  14
TORSDOF 2
ENDMDL
MODEL 7
REMARK VINA RESULT:      -7.7      1.922      8.887
REMARK  Name = 
REMARK  2 active torsions:
REMARK  status: ('A' for Active; 'I' for Inactive)
REMARK    1  A    between atoms: C_9  and  C_10
REMARK    2  A    between atoms: C_16  and  C_18
REMARK                            x       y       z     vdW  Elec       q    Type
REMARK                         _______ _______ _______ _____ _____    ______ ____
ROOT
ATOM      1  O   UNL     1       3.402   2.165  21.207  0.00  0.00    +0.000 OA
ATOM      2  C   UNL     1       3.239   2.693  20.111  0.00  0.00    +0.000 C 
ATOM      3  N   UNL     1       3.094   1.908  18.991  0.00  0.00    +0.000 N 
ATOM      4  C   UNL     1       3.783   2.170  17.741  0.00  0.00    +0.000 C 
ATOM      5  C   UNL     1       3.578   3.559  17.160  0.00  0.00    +0.000 C 
ATOM      6  O   UNL     1       4.229   4.543  17.967  0.00  0.00    +0.000 OA
ATOM      7  C   UNL     1       3.400   4.962  18.969  0.00  0.00    +0.000 A 
ATOM      8  C   UNL     1       3.010   6.305  18.924  0.00  0.00    +0.000 A 
ATOM      9  C   UNL     1       2.131   6.851  19.879  0.00  0.00    +0.000 A 
ATOM     10  C   UNL     1       1.737   6.021  20.940  0.00  0.00    +0.000 A 
ATOM     11  C   UNL     1       2.169   4.693  21.018  0.00  0.00    +0.000 A 
ATOM     12  C   UNL     1       2.973   4.144  20.011  0.00  0.00    +0.000 A 
ATOM     13  H   UNL     1       3.113   0.935  19.271  0.00  0.00    +0.000 HD
ENDROOT
BRANCH   9  14
ATOM     14  C   UNL     1       1.611   8.230  19.745  0.00  0.00    +0.000 A 
ATOM     15  C   UNL     1       1.812   8.955  18.563  0.00  0.00    +0.000 A 
ATOM     16  C   UNL     1       1.307  10.235  18.469  0.00  0.00    +0.000 A 
ATOM     17  N   UNL     1       0.627  10.837  19.456  0.00  0.00    +0.000 NA
ATOM     18  C   UNL     1       0.424  10.162  20.599  0.00  0.00    +0.000 A 
ATOM     19  N   UNL     1      -0.245  10.785  21.662  0.00  0.00    +0.000 N 
ATOM     20  C   UNL     1      -0.685  12.091  21.635  0.00  0.00    +0.000 C 
ATOM     21  O   UNL     1      -0.628  12.879  20.698  0.00  0.00    +0.000 OA
ATOM     22  C   UNL     1       0.885   8.861  20.772  0.00  0.00    +0.000 A 
ATOM     23  H   UNL     1      -0.364  10.256  22.515  0.00  0.00    +0.000 HD
BRANCH  20  24
ATOM     24  C   UNL     1      -1.258  12.568  22.929  0.00  0.00    +0.000 C 
ATOM     25  C   UNL     1      -2.294  13.671  22.902  0.00  0.00    +0.000 C 
ATOM     26  C   UNL     1      -2.706  12.278  23.268  0.00  0.00    +0.000 C 
ENDBRANCH  20  24
ENDBRANCH   9  14
TORSDOF 2
ENDMDL
MODEL 8
REMARK VINA RESULT:      -7.5      2.046      8.429
REMARK  Name = 
REMARK  2 active torsions:
REMARK  status: ('A' for Active; 'I' for Inactive)
REMARK    1  A    between atoms: C_9  and  C_10
REMARK    2  A    between atoms: C_16  and  C_18
REMARK                            x       y       z     vdW  Elec       q    Type
REMARK                         _______ _______ _______ _____ _____    ______ ____
ROOT
ATOM      1  O   UNL     1       4.934   3.816  15.918  0.00  0.00    +0.000 OA
ATOM      2  C   UNL     1       4.301   3.663  16.958  0.00  0.00    +0.000 C 
ATOM      3  N   UNL     1       4.483   2.521  17.704  0.00  0.00    +0.000 N 
ATOM      4  C   UNL     1       3.387   1.755  18.266  0.00  0.00    +0.000 C 
ATOM      5  C   UNL     1       2.427   2.535  19.147  0.00  0.00    +0.000 C 
ATOM      6  O   UNL     1       1.660   3.454  18.365  0.00  0.00    +0.000 OA
ATOM      7  C   UNL     1       2.327   4.639  18.232  0.00  0.00    +0.000 A 
ATOM      8  C   UNL     1       1.720   5.755  18.819  0.00  0.00    +0.000 A 
ATOM      9  C   UNL     1       2.322   7.028  18.782  0.00  0.00    +0.000 A 
ATOM     10  C   UNL     1       3.510   7.157  18.046  0.00  0.00    +0.000 A 
ATOM     11  C   UNL     1       4.091   6.053  17.412  0.00  0.00    +0.000 A 
ATOM     12  C   UNL     1       3.522   4.779  17.534  0.00  0.00    +0.000 A 
ATOM     13  H   UNL     1       5.193   1.951  17.259  0.00  0.00    +0.000 HD
ENDROOT
BRANCH   9  14
ATOM     14  C   UNL     1       1.747   8.171  19.525  0.00  0.00    +0.000 A 
ATOM     15  C   UNL     1       1.368   8.031  20.866  0.00  0.00    +0.000 A 
ATOM     16  C   UNL     1       0.843   9.120  21.531  0.00  0.00    +0.000 A 
ATOM     17  N   UNL     1       0.670  10.322  20.961  0.00  0.00    +0.000 NA
ATOM     18  C   UNL     1       1.024  10.479  19.676  0.00  0.00    +0.000 A 
ATOM     19  N   UNL     1       0.811  11.713  19.044  0.00  0.00    +0.000 N 
ATOM     20  C   UNL     1       0.210  12.794  19.651  0.00  0.00    +0.000 C 
ATOM     21  O   UNL     1      -0.170  12.883  20.813  0.00  0.00    +0.000 OA
ATOM     22  C   UNL     1       1.576   9.438  18.936  0.00  0.00    +0.000 A 
ATOM     23  H   UNL     1       1.071  11.792  18.071  0.00  0.00    +0.000 HD
BRANCH  20  24
ATOM     24  C   UNL     1      -0.019  13.956  18.740  0.00  0.00    +0.000 C 
ATOM     25  C   UNL     1      -0.398  15.290  19.345  0.00  0.00    +0.000 C 
ATOM     26  C   UNL     1       0.958  15.113  18.731  0.00  0.00    +0.000 C 
ENDBRANCH  20  24
ENDBRANCH   9  14
TORSDOF 2
ENDMDL
MODEL 9
REMARK VINA RESULT:      -7.5      2.924      8.518
REMARK  Name = 
REMARK  2 active torsions:
REMARK  status: ('A' for Active; 'I' for Inactive)
REMARK    1  A    between atoms: C_9  and  C_10
REMARK    2  A    between atoms: C_16  and  C_18
REMARK                            x       y       z     vdW  Elec       q    Type
REMARK                         _______ _______ _______ _____ _____    ______ ____
ROOT
ATOM      1  O   UNL     1       5.993   4.252  16.609  0.00  0.00    +0.000 OA
ATOM      2  C   UNL     1       5.261   4.374  17.587  0.00  0.00    +0.000 C 
ATOM      3  N   UNL     1       5.511   3.636  18.721  0.00  0.00    +0.000 N 
ATOM      4  C   UNL     1       4.476   2.938  19.460  0.00  0.00    +0.000 C 
ATOM      5  C   UNL     1       3.306   3.794  19.914  0.00  0.00    +0.000 C 
ATOM      6  O   UNL     1       2.520   4.207  18.793  0.00  0.00    +0.000 OA
ATOM      7  C   UNL     1       3.017   5.364  18.263  0.00  0.00    +0.000 A 
ATOM      8  C   UNL     1       2.182   6.485  18.340  0.00  0.00    +0.000 A 
ATOM      9  C   UNL     1       2.590   7.744  17.860  0.00  0.00    +0.000 A 
ATOM     10  C   UNL     1       3.831   7.813  17.209  0.00  0.00    +0.000 A 
ATOM     11  C   UNL     1       4.645   6.683  17.082  0.00  0.00    +0.000 A 
ATOM     12  C   UNL     1       4.258   5.458  17.642  0.00  0.00    +0.000 A 
ATOM     13  H   UNL     1       6.348   3.085  18.573  0.00  0.00    +0.000 HD
ENDROOT
BRANCH   9  14
ATOM     14  C   UNL     1       1.763   8.952  18.073  0.00  0.00    +0.000 A 
ATOM     15  C   UNL     1       2.348  10.149  18.506  0.00  0.00    +0.000 A 
ATOM     16  C   UNL     1       1.549  11.258  18.687  0.00  0.00    +0.000 A 
ATOM     17  N   UNL     1       0.225  11.260  18.472  0.00  0.00    +0.000 NA
ATOM     18  C   UNL     1      -0.358  10.123  18.058  0.00  0.00    +0.000 A 
ATOM     19  N   UNL     1      -1.748  10.086  17.869  0.00  0.00    +0.000 N 
ATOM     20  C   UNL     1      -2.588  11.149  18.123  0.00  0.00    +0.000 C 
ATOM     21  O   UNL     1      -2.275  12.279  18.483  0.00  0.00    +0.000 OA
ATOM     22  C   UNL     1       0.376   8.963  17.834  0.00  0.00    +0.000 A 
ATOM     23  H   UNL     1      -2.157   9.210  17.576  0.00  0.00    +0.000 HD
BRANCH  20  24
ATOM     24  C   UNL     1      -4.038  10.831  17.964  0.00  0.00    +0.000 C 
ATOM     25  C   UNL     1      -5.050  11.940  18.155  0.00  0.00    +0.000 C 
ATOM     26  C   UNL     1      -4.809  11.384  16.784  0.00  0.00    +0.000 C 
ENDBRANCH  20  24
ENDBRANCH   9  14
TORSDOF 2
ENDMDL
