MODEL 1
REMARK VINA RESULT:      -5.6      0.000      0.000
REMARK  Name = 
REMARK  11 active torsions:
REMARK  status: ('A' for Active; 'I' for Inactive)
REMARK    1  A    between atoms: C_1  and  C_2
REMARK    2  A    between atoms: C_2  and  C_3
REMARK    3  A    between atoms: C_3  and  S_4
REMARK    4  A    between atoms: S_4  and  C_5
REMARK    5  A    between atoms: C_5  and  C_6
REMARK    6  A    between atoms: C_6  and  P_7
REMARK    7  A    between atoms: C_6  and  P_11
REMARK    8  A    between atoms: P_7  and  O_9
REMARK    9  A    between atoms: P_7  and  O_10
REMARK   10  A    between atoms: P_11  and  O_13
REMARK   11  A    between atoms: P_11  and  O_14
REMARK                            x       y       z     vdW  Elec       q    Type
REMARK                         _______ _______ _______ _____ _____    ______ ____
ROOT
ATOM      1  C   UNL     1       5.692   5.462  17.591  0.00  0.00    +0.000 C 
ENDROOT
BRANCH   1   2
ATOM      2  P   UNL     1       6.842   5.471  19.015  0.00  0.00    +0.000 P 
ATOM      3  O   UNL     1       5.904   4.583  19.831  0.00  0.00    +0.000 OA
BRANCH   2   4
ATOM      4  O   UNL     1       7.915   4.465  18.288  0.00  0.00    +0.000 OA
ATOM      5  H   UNL     1       7.479   3.609  18.086  0.00  0.00    +0.000 HD
ENDBRANCH   2   4
BRANCH   2   6
ATOM      6  O   UNL     1       7.928   5.480  20.362  0.00  0.00    +0.000 OA
ATOM      7  H   UNL     1       8.619   4.822  20.124  0.00  0.00    +0.000 HD
ENDBRANCH   2   6
ENDBRANCH   1   2
BRANCH   1   8
ATOM      8  P   UNL     1       6.652   5.408  16.033  0.00  0.00    +0.000 P 
ATOM      9  O   UNL     1       5.512   6.065  15.248  0.00  0.00    +0.000 OA
BRANCH   8  10
ATOM     10  O   UNL     1       7.628   6.641  16.504  0.00  0.00    +0.000 OA
ATOM     11  H   UNL     1       8.426   6.291  16.956  0.00  0.00    +0.000 HD
ENDBRANCH   8  10
BRANCH   8  12
ATOM     12  O   UNL     1       7.558   5.358  14.561  0.00  0.00    +0.000 OA
ATOM     13  H   UNL     1       8.380   5.840  14.789  0.00  0.00    +0.000 HD
ENDBRANCH   8  12
ENDBRANCH   1   8
BRANCH   1  14
ATOM     14  C   UNL     1       4.535   4.510  17.768  0.00  0.00    +0.000 C 
BRANCH  14  15
ATOM     15  S   UNL     1       3.015   5.507  18.066  0.00  0.00    +0.000 S 
BRANCH  15  16
ATOM     16  C   UNL     1       1.892   4.172  18.597  0.00  0.00    +0.000 C 
BRANCH  16  18
ATOM     17  C   UNL     1       1.255   3.134  20.823  0.00  0.00    +0.000 C 
ATOM     18  C   UNL     1       1.445   4.411  20.027  0.00  0.00    +0.000 C 
ENDBRANCH  16  18
ENDBRANCH  15  16
ENDBRANCH  14  15
ENDBRANCH   1  14
TORSDOF 10
ENDMDL
MODEL 2
REMARK VINA RESULT:      -5.5      1.083      3.485
REMARK  Name = 
REMARK  11 active torsions:
REMARK  status: ('A' for Active; 'I' for Inactive)
REMARK    1  A    between atoms: C_1  and  C_2
REMARK    2  A    between atoms: C_2  and  C_3
REMARK    3  A    between atoms: C_3  and  S_4
REMARK    4  A    between atoms: S_4  and  C_5
REMARK    5  A    between atoms: C_5  and  C_6
REMARK    6  A    between atoms: C_6  and  P_7
REMARK    7  A    between atoms: C_6  and  P_11
REMARK    8  A    between atoms: P_7  and  O_9
REMARK    9  A    between atoms: P_7  and  O_10
REMARK   10  A    between atoms: P_11  and  O_13
REMARK   11  A    between atoms: P_11  and  O_14
REMARK                            x       y       z     vdW  Elec       q    Type
REMARK                         _______ _______ _______ _____ _____    ______ ____
ROOT
ATOM      1  C   UNL     1       5.730   5.482  17.556  0.00  0.00    +0.000 C 
ENDROOT
BRANCH   1   2
ATOM      2  P   UNL     1       6.702   5.425  16.006  0.00  0.00    +0.000 P 
ATOM      3  O   UNL     1       5.550   6.041  15.213  0.00  0.00    +0.000 OA
BRANCH   2   4
ATOM      4  O   UNL     1       7.675   6.669  16.449  0.00  0.00    +0.000 OA
ATOM      5  H   UNL     1       8.567   6.546  16.056  0.00  0.00    +0.000 HD
ENDBRANCH   2   4
BRANCH   2   6
ATOM      6  O   UNL     1       7.620   5.371  14.540  0.00  0.00    +0.000 OA
ATOM      7  H   UNL     1       7.229   6.077  13.980  0.00  0.00    +0.000 HD
ENDBRANCH   2   6
ENDBRANCH   1   2
BRANCH   1   8
ATOM      8  P   UNL     1       6.869   5.486  18.989  0.00  0.00    +0.000 P 
ATOM      9  O   UNL     1       5.930   4.589  19.802  0.00  0.00    +0.000 OA
BRANCH   8  10
ATOM     10  O   UNL     1       7.922   4.465  18.252  0.00  0.00    +0.000 OA
ATOM     11  H   UNL     1       8.748   4.390  18.777  0.00  0.00    +0.000 HD
ENDBRANCH   8  10
BRANCH   8  12
ATOM     12  O   UNL     1       7.944   5.489  20.344  0.00  0.00    +0.000 OA
ATOM     13  H   UNL     1       7.956   4.549  20.620  0.00  0.00    +0.000 HD
ENDBRANCH   8  12
ENDBRANCH   1   8
BRANCH   1  14
ATOM     14  C   UNL     1       4.605   6.486  17.515  0.00  0.00    +0.000 C 
BRANCH  14  15
ATOM     15  S   UNL     1       3.058   5.633  18.037  0.00  0.00    +0.000 S 
BRANCH  15  16
ATOM     16  C   UNL     1       3.417   3.964  17.396  0.00  0.00    +0.000 C 
BRANCH  16  18
ATOM     17  C   UNL     1       2.287   2.244  18.880  0.00  0.00    +0.000 C 
ATOM     18  C   UNL     1       2.217   3.062  17.604  0.00  0.00    +0.000 C 
ENDBRANCH  16  18
ENDBRANCH  15  16
ENDBRANCH  14  15
ENDBRANCH   1  14
TORSDOF 10
ENDMDL
MODEL 3
REMARK VINA RESULT:      -5.5      1.226      1.538
REMARK  Name = 
REMARK  11 active torsions:
REMARK  status: ('A' for Active; 'I' for Inactive)
REMARK    1  A    between atoms: C_1  and  C_2
REMARK    2  A    between atoms: C_2  and  C_3
REMARK    3  A    between atoms: C_3  and  S_4
REMARK    4  A    between atoms: S_4  and  C_5
REMARK    5  A    between atoms: C_5  and  C_6
REMARK    6  A    between atoms: C_6  and  P_7
REMARK    7  A    between atoms: C_6  and  P_11
REMARK    8  A    between atoms: P_7  and  O_9
REMARK    9  A    between atoms: P_7  and  O_10
REMARK   10  A    between atoms: P_11  and  O_13
REMARK   11  A    between atoms: P_11  and  O_14
REMARK                            x       y       z     vdW  Elec       q    Type
REMARK                         _______ _______ _______ _____ _____    ______ ____
ROOT
ATOM      1  C   UNL     1       5.942   5.872  17.689  0.00  0.00    +0.000 C 
ENDROOT
BRANCH   1   2
ATOM      2  P   UNL     1       7.239   5.598  18.951  0.00  0.00    +0.000 P 
ATOM      3  O   UNL     1       7.853   4.463  18.133  0.00  0.00    +0.000 OA
BRANCH   2   4
ATOM      4  O   UNL     1       8.064   6.957  18.548  0.00  0.00    +0.000 OA
ATOM      5  H   UNL     1       8.803   6.727  17.944  0.00  0.00    +0.000 HD
ENDBRANCH   2   4
BRANCH   2   6
ATOM      6  O   UNL     1       8.464   5.338  20.144  0.00  0.00    +0.000 OA
ATOM      7  H   UNL     1       8.518   4.360  20.231  0.00  0.00    +0.000 HD
ENDBRANCH   2   6
ENDBRANCH   1   2
BRANCH   1   8
ATOM      8  P   UNL     1       6.409   5.018  16.139  0.00  0.00    +0.000 P 
ATOM      9  O   UNL     1       5.196   5.589  15.398  0.00  0.00    +0.000 OA
BRANCH   8  10
ATOM     10  O   UNL     1       7.638   6.065  15.843  0.00  0.00    +0.000 OA
ATOM     11  H   UNL     1       8.421   5.582  15.500  0.00  0.00    +0.000 HD
ENDBRANCH   8  10
BRANCH   8  12
ATOM     12  O   UNL     1       6.849   4.211  14.674  0.00  0.00    +0.000 OA
ATOM     13  H   UNL     1       6.406   3.341  14.757  0.00  0.00    +0.000 HD
ENDBRANCH   8  12
ENDBRANCH   1   8
BRANCH   1  14
ATOM     14  C   UNL     1       4.543   5.695  18.226  0.00  0.00    +0.000 C 
BRANCH  14  15
ATOM     15  S   UNL     1       4.267   3.899  18.522  0.00  0.00    +0.000 S 
BRANCH  15  16
ATOM     16  C   UNL     1       2.918   3.612  17.329  0.00  0.00    +0.000 C 
BRANCH  16  18
ATOM     17  C   UNL     1       1.302   3.585  19.285  0.00  0.00    +0.000 C 
ATOM     18  C   UNL     1       1.607   4.119  17.899  0.00  0.00    +0.000 C 
ENDBRANCH  16  18
ENDBRANCH  15  16
ENDBRANCH  14  15
ENDBRANCH   1  14
TORSDOF 10
ENDMDL
MODEL 4
REMARK VINA RESULT:      -5.4      1.643      1.841
REMARK  Name = 
REMARK  11 active torsions:
REMARK  status: ('A' for Active; 'I' for Inactive)
REMARK    1  A    between atoms: C_1  and  C_2
REMARK    2  A    between atoms: C_2  and  C_3
REMARK    3  A    between atoms: C_3  and  S_4
REMARK    4  A    between atoms: S_4  and  C_5
REMARK    5  A    between atoms: C_5  and  C_6
REMARK    6  A    between atoms: C_6  and  P_7
REMARK    7  A    between atoms: C_6  and  P_11
REMARK    8  A    between atoms: P_7  and  O_9
REMARK    9  A    between atoms: P_7  and  O_10
REMARK   10  A    between atoms: P_11  and  O_13
REMARK   11  A    between atoms: P_11  and  O_14
REMARK                            x       y       z     vdW  Elec       q    Type
REMARK                         _______ _______ _______ _____ _____    ______ ____
ROOT
ATOM      1  C   UNL     1       6.112   6.110  17.853  0.00  0.00    +0.000 C 
ENDROOT
BRANCH   1   2
ATOM      2  P   UNL     1       7.247   5.651  19.214  0.00  0.00    +0.000 P 
ATOM      3  O   UNL     1       7.841   4.511  18.389  0.00  0.00    +0.000 OA
BRANCH   2   4
ATOM      4  O   UNL     1       8.221   6.949  18.978  0.00  0.00    +0.000 OA
ATOM      5  H   UNL     1       7.755   7.767  19.257  0.00  0.00    +0.000 HD
ENDBRANCH   2   4
BRANCH   2   6
ATOM      6  O   UNL     1       8.319   5.217  20.500  0.00  0.00    +0.000 OA
ATOM      7  H   UNL     1       8.396   6.033  21.042  0.00  0.00    +0.000 HD
ENDBRANCH   2   6
ENDBRANCH   1   2
BRANCH   1   8
ATOM      8  P   UNL     1       6.749   5.436  16.275  0.00  0.00    +0.000 P 
ATOM      9  O   UNL     1       5.562   6.009  15.493  0.00  0.00    +0.000 OA
BRANCH   8  10
ATOM     10  O   UNL     1       7.929   6.573  16.178  0.00  0.00    +0.000 OA
ATOM     11  H   UNL     1       7.614   7.348  15.663  0.00  0.00    +0.000 HD
ENDBRANCH   8  10
BRANCH   8  12
ATOM     12  O   UNL     1       7.350   4.800  14.783  0.00  0.00    +0.000 OA
ATOM     13  H   UNL     1       6.759   4.038  14.612  0.00  0.00    +0.000 HD
ENDBRANCH   8  12
ENDBRANCH   1   8
BRANCH   1  14
ATOM     14  C   UNL     1       4.657   5.907  18.199  0.00  0.00    +0.000 C 
BRANCH  14  15
ATOM     15  S   UNL     1       4.403   4.122  18.577  0.00  0.00    +0.000 S 
BRANCH  15  16
ATOM     16  C   UNL     1       2.979   3.794  17.486  0.00  0.00    +0.000 C 
BRANCH  16  18
ATOM     17  C   UNL     1       3.481   1.496  18.437  0.00  0.00    +0.000 C 
ATOM     18  C   UNL     1       2.502   2.368  17.674  0.00  0.00    +0.000 C 
ENDBRANCH  16  18
ENDBRANCH  15  16
ENDBRANCH  14  15
ENDBRANCH   1  14
TORSDOF 10
ENDMDL
MODEL 5
REMARK VINA RESULT:      -5.4      1.020      1.328
REMARK  Name = 
REMARK  11 active torsions:
REMARK  status: ('A' for Active; 'I' for Inactive)
REMARK    1  A    between atoms: C_1  and  C_2
REMARK    2  A    between atoms: C_2  and  C_3
REMARK    3  A    between atoms: C_3  and  S_4
REMARK    4  A    between atoms: S_4  and  C_5
REMARK    5  A    between atoms: C_5  and  C_6
REMARK    6  A    between atoms: C_6  and  P_7
REMARK    7  A    between atoms: C_6  and  P_11
REMARK    8  A    between atoms: P_7  and  O_9
REMARK    9  A    between atoms: P_7  and  O_10
REMARK   10  A    between atoms: P_11  and  O_13
REMARK   11  A    between atoms: P_11  and  O_14
REMARK                            x       y       z     vdW  Elec       q    Type
REMARK                         _______ _______ _______ _____ _____    ______ ____
ROOT
ATOM      1  C   UNL     1       5.567   5.164  17.569  0.00  0.00    +0.000 C 
ENDROOT
BRANCH   1   2
ATOM      2  P   UNL     1       6.983   5.441  18.695  0.00  0.00    +0.000 P 
ATOM      3  O   UNL     1       6.175   4.958  19.897  0.00  0.00    +0.000 OA
BRANCH   2   4
ATOM      4  O   UNL     1       7.812   4.139  18.141  0.00  0.00    +0.000 OA
ATOM      5  H   UNL     1       7.257   3.642  17.501  0.00  0.00    +0.000 HD
ENDBRANCH   2   4
BRANCH   2   6
ATOM      6  O   UNL     1       8.322   5.704  19.759  0.00  0.00    +0.000 OA
ATOM      7  H   UNL     1       8.920   4.942  19.593  0.00  0.00    +0.000 HD
ENDBRANCH   2   6
ENDBRANCH   1   2
BRANCH   1   8
ATOM      8  P   UNL     1       6.140   5.264  15.833  0.00  0.00    +0.000 P 
ATOM      9  O   UNL     1       7.410   6.017  16.242  0.00  0.00    +0.000 OA
BRANCH   8  10
ATOM     10  O   UNL     1       6.560   3.678  15.800  0.00  0.00    +0.000 OA
ATOM     11  H   UNL     1       6.540   3.301  16.707  0.00  0.00    +0.000 HD
ENDBRANCH   8  10
BRANCH   8  12
ATOM     12  O   UNL     1       6.682   5.359  14.193  0.00  0.00    +0.000 OA
ATOM     13  H   UNL     1       6.094   4.729  13.728  0.00  0.00    +0.000 HD
ENDBRANCH   8  12
ENDBRANCH   1   8
BRANCH   1  14
ATOM     14  C   UNL     1       4.696   4.004  17.984  0.00  0.00    +0.000 C 
BRANCH  14  15
ATOM     15  S   UNL     1       2.937   4.502  17.763  0.00  0.00    +0.000 S 
BRANCH  15  16
ATOM     16  C   UNL     1       2.774   5.631  19.185  0.00  0.00    +0.000 C 
BRANCH  16  18
ATOM     17  C   UNL     1       1.081   4.159  20.370  0.00  0.00    +0.000 C 
ATOM     18  C   UNL     1       2.433   4.843  20.435  0.00  0.00    +0.000 C 
ENDBRANCH  16  18
ENDBRANCH  15  16
ENDBRANCH  14  15
ENDBRANCH   1  14
TORSDOF 10
ENDMDL
MODEL 6
REMARK VINA RESULT:      -5.4      0.793      1.065
REMARK  Name = 
REMARK  11 active torsions:
REMARK  status: ('A' for Active; 'I' for Inactive)
REMARK    1  A    between atoms: C_1  and  C_2
REMARK    2  A    between atoms: C_2  and  C_3
REMARK    3  A    between atoms: C_3  and  S_4
REMARK    4  A    between atoms: S_4  and  C_5
REMARK    5  A    between atoms: C_5  and  C_6
REMARK    6  A    between atoms: C_6  and  P_7
REMARK    7  A    between atoms: C_6  and  P_11
REMARK    8  A    between atoms: P_7  and  O_9
REMARK    9  A    between atoms: P_7  and  O_10
REMARK   10  A    between atoms: P_11  and  O_13
REMARK   11  A    between atoms: P_11  and  O_14
REMARK                            x       y       z     vdW  Elec       q    Type
REMARK                         _______ _______ _______ _____ _____    ______ ____
ROOT
ATOM      1  C   UNL     1       5.736   5.496  17.570  0.00  0.00    +0.000 C 
ENDROOT
BRANCH   1   2
ATOM      2  P   UNL     1       6.903   5.448  18.979  0.00  0.00    +0.000 P 
ATOM      3  O   UNL     1       5.915   4.645  19.823  0.00  0.00    +0.000 OA
BRANCH   2   4
ATOM      4  O   UNL     1       7.891   4.355  18.258  0.00  0.00    +0.000 OA
ATOM      5  H   UNL     1       8.746   4.781  18.033  0.00  0.00    +0.000 HD
ENDBRANCH   2   4
BRANCH   2   6
ATOM      6  O   UNL     1       8.006   5.403  20.312  0.00  0.00    +0.000 OA
ATOM      7  H   UNL     1       7.733   4.613  20.829  0.00  0.00    +0.000 HD
ENDBRANCH   2   6
ENDBRANCH   1   2
BRANCH   1   8
ATOM      8  P   UNL     1       6.671   5.371  16.001  0.00  0.00    +0.000 P 
ATOM      9  O   UNL     1       6.278   3.901  15.824  0.00  0.00    +0.000 OA
BRANCH   8  10
ATOM     10  O   UNL     1       5.543   6.230  15.173  0.00  0.00    +0.000 OA
ATOM     11  H   UNL     1       5.709   6.167  14.207  0.00  0.00    +0.000 HD
ENDBRANCH   8  10
BRANCH   8  12
ATOM     12  O   UNL     1       7.553   5.252  14.518  0.00  0.00    +0.000 OA
ATOM     13  H   UNL     1       7.459   6.147  14.130  0.00  0.00    +0.000 HD
ENDBRANCH   8  12
ENDBRANCH   1   8
BRANCH   1  14
ATOM     14  C   UNL     1       4.526   4.617  17.770  0.00  0.00    +0.000 C 
BRANCH  14  15
ATOM     15  S   UNL     1       3.054   5.707  17.960  0.00  0.00    +0.000 S 
BRANCH  15  16
ATOM     16  C   UNL     1       1.744   4.440  17.889  0.00  0.00    +0.000 C 
BRANCH  16  18
ATOM     17  C   UNL     1       0.906   3.374  20.033  0.00  0.00    +0.000 C 
ATOM     18  C   UNL     1       1.978   3.394  18.960  0.00  0.00    +0.000 C 
ENDBRANCH  16  18
ENDBRANCH  15  16
ENDBRANCH  14  15
ENDBRANCH   1  14
TORSDOF 10
ENDMDL
MODEL 7
REMARK VINA RESULT:      -5.4      1.021      3.424
REMARK  Name = 
REMARK  11 active torsions:
REMARK  status: ('A' for Active; 'I' for Inactive)
REMARK    1  A    between atoms: C_1  and  C_2
REMARK    2  A    between atoms: C_2  and  C_3
REMARK    3  A    between atoms: C_3  and  S_4
REMARK    4  A    between atoms: S_4  and  C_5
REMARK    5  A    between atoms: C_5  and  C_6
REMARK    6  A    between atoms: C_6  and  P_7
REMARK    7  A    between atoms: C_6  and  P_11
REMARK    8  A    between atoms: P_7  and  O_9
REMARK    9  A    between atoms: P_7  and  O_10
REMARK   10  A    between atoms: P_11  and  O_13
REMARK   11  A    between atoms: P_11  and  O_14
REMARK                            x       y       z     vdW  Elec       q    Type
REMARK                         _______ _______ _______ _____ _____    ______ ____
ROOT
ATOM      1  C   UNL     1       5.746   4.479  17.012  0.00  0.00    +0.000 C 
ENDROOT
BRANCH   1   2
ATOM      2  P   UNL     1       6.796   4.935  15.584  0.00  0.00    +0.000 P 
ATOM      3  O   UNL     1       5.578   5.387  14.780  0.00  0.00    +0.000 OA
BRANCH   2   4
ATOM      4  O   UNL     1       7.391   6.277  16.317  0.00  0.00    +0.000 OA
ATOM      5  H   UNL     1       6.703   6.665  16.901  0.00  0.00    +0.000 HD
ENDBRANCH   2   4
BRANCH   2   6
ATOM      6  O   UNL     1       7.789   5.366  14.233  0.00  0.00    +0.000 OA
ATOM      7  H   UNL     1       8.709   5.234  14.553  0.00  0.00    +0.000 HD
ENDBRANCH   2   6
ENDBRANCH   1   2
BRANCH   1   8
ATOM      8  P   UNL     1       6.582   4.971  18.564  0.00  0.00    +0.000 P 
ATOM      9  O   UNL     1       5.799   3.932  19.375  0.00  0.00    +0.000 OA
BRANCH   8  10
ATOM     10  O   UNL     1       7.982   4.229  18.135  0.00  0.00    +0.000 OA
ATOM     11  H   UNL     1       8.391   4.689  17.370  0.00  0.00    +0.000 HD
ENDBRANCH   8  10
BRANCH   8  12
ATOM     12  O   UNL     1       7.371   5.435  20.031  0.00  0.00    +0.000 OA
ATOM     13  H   UNL     1       7.612   4.576  20.436  0.00  0.00    +0.000 HD
ENDBRANCH   8  12
ENDBRANCH   1   8
BRANCH   1  14
ATOM     14  C   UNL     1       4.293   4.838  16.820  0.00  0.00    +0.000 C 
BRANCH  14  15
ATOM     15  S   UNL     1       3.967   6.406  17.729  0.00  0.00    +0.000 S 
BRANCH  15  16
ATOM     16  C   UNL     1       2.327   6.006  18.419  0.00  0.00    +0.000 C 
BRANCH  16  18
ATOM     17  C   UNL     1       1.578   4.799  20.522  0.00  0.00    +0.000 C 
ATOM     18  C   UNL     1       2.408   5.923  19.931  0.00  0.00    +0.000 C 
ENDBRANCH  16  18
ENDBRANCH  15  16
ENDBRANCH  14  15
ENDBRANCH   1  14
TORSDOF 10
ENDMDL
MODEL 8
REMARK VINA RESULT:      -5.3      1.445      1.754
REMARK  Name = 
REMARK  11 active torsions:
REMARK  status: ('A' for Active; 'I' for Inactive)
REMARK    1  A    between atoms: C_1  and  C_2
REMARK    2  A    between atoms: C_2  and  C_3
REMARK    3  A    between atoms: C_3  and  S_4
REMARK    4  A    between atoms: S_4  and  C_5
REMARK    5  A    between atoms: C_5  and  C_6
REMARK    6  A    between atoms: C_6  and  P_7
REMARK    7  A    between atoms: C_6  and  P_11
REMARK    8  A    between atoms: P_7  and  O_9
REMARK    9  A    between atoms: P_7  and  O_10
REMARK   10  A    between atoms: P_11  and  O_13
REMARK   11  A    between atoms: P_11  and  O_14
REMARK                            x       y       z     vdW  Elec       q    Type
REMARK                         _______ _______ _______ _____ _____    ______ ____
ROOT
ATOM      1  C   UNL     1       5.978   5.967  17.242  0.00  0.00    +0.000 C 
ENDROOT
BRANCH   1   2
ATOM      2  P   UNL     1       7.116   5.674  18.646  0.00  0.00    +0.000 P 
ATOM      3  O   UNL     1       7.718   4.452  17.955  0.00  0.00    +0.000 OA
BRANCH   2   4
ATOM      4  O   UNL     1       8.081   6.944  18.263  0.00  0.00    +0.000 OA
ATOM      5  H   UNL     1       8.790   7.034  18.937  0.00  0.00    +0.000 HD
ENDBRANCH   2   4
BRANCH   2   6
ATOM      6  O   UNL     1       8.191   5.396  19.973  0.00  0.00    +0.000 OA
ATOM      7  H   UNL     1       8.975   5.954  19.774  0.00  0.00    +0.000 HD
ENDBRANCH   2   6
ENDBRANCH   1   2
BRANCH   1   8
ATOM      8  P   UNL     1       6.344   4.776  15.902  0.00  0.00    +0.000 P 
ATOM      9  O   UNL     1       5.186   5.303  15.047  0.00  0.00    +0.000 OA
BRANCH   8  10
ATOM     10  O   UNL     1       7.668   5.614  15.414  0.00  0.00    +0.000 OA
ATOM     11  H   UNL     1       8.445   5.374  15.964  0.00  0.00    +0.000 HD
ENDBRANCH   8  10
BRANCH   8  12
ATOM     12  O   UNL     1       6.689   3.651  14.635  0.00  0.00    +0.000 OA
ATOM     13  H   UNL     1       7.041   2.874  15.116  0.00  0.00    +0.000 HD
ENDBRANCH   8  12
ENDBRANCH   1   8
BRANCH   1  14
ATOM     14  C   UNL     1       4.544   6.166  17.671  0.00  0.00    +0.000 C 
BRANCH  14  15
ATOM     15  S   UNL     1       4.351   5.462  19.362  0.00  0.00    +0.000 S 
BRANCH  15  16
ATOM     16  C   UNL     1       2.535   5.307  19.406  0.00  0.00    +0.000 C 
BRANCH  16  18
ATOM     17  C   UNL     1       1.435   3.579  17.909  0.00  0.00    +0.000 C 
ATOM     18  C   UNL     1       2.010   4.977  18.022  0.00  0.00    +0.000 C 
ENDBRANCH  16  18
ENDBRANCH  15  16
ENDBRANCH  14  15
ENDBRANCH   1  14
TORSDOF 10
ENDMDL
MODEL 9
REMARK VINA RESULT:      -5.3      1.535      3.359
REMARK  Name = 
REMARK  11 active torsions:
REMARK  status: ('A' for Active; 'I' for Inactive)
REMARK    1  A    between atoms: C_1  and  C_2
REMARK    2  A    between atoms: C_2  and  C_3
REMARK    3  A    between atoms: C_3  and  S_4
REMARK    4  A    between atoms: S_4  and  C_5
REMARK    5  A    between atoms: C_5  and  C_6
REMARK    6  A    between atoms: C_6  and  P_7
REMARK    7  A    between atoms: C_6  and  P_11
REMARK    8  A    between atoms: P_7  and  O_9
REMARK    9  A    between atoms: P_7  and  O_10
REMARK   10  A    between atoms: P_11  and  O_13
REMARK   11  A    between atoms: P_11  and  O_14
REMARK                            x       y       z     vdW  Elec       q    Type
REMARK                         _______ _______ _______ _____ _____    ______ ____
ROOT
ATOM      1  C   UNL     1       5.628   4.439  17.772  0.00  0.00    +0.000 C 
ENDROOT
BRANCH   1   2
ATOM      2  P   UNL     1       5.517   4.590  15.951  0.00  0.00    +0.000 P 
ATOM      3  O   UNL     1       6.559   5.707  15.938  0.00  0.00    +0.000 OA
BRANCH   2   4
ATOM      4  O   UNL     1       6.334   3.192  15.682  0.00  0.00    +0.000 OA
ATOM      5  H   UNL     1       7.174   3.387  15.213  0.00  0.00    +0.000 HD
ENDBRANCH   2   4
BRANCH   2   6
ATOM      6  O   UNL     1       5.412   4.732  14.230  0.00  0.00    +0.000 OA
ATOM      7  H   UNL     1       6.089   5.406  13.998  0.00  0.00    +0.000 HD
ENDBRANCH   2   6
ENDBRANCH   1   2
BRANCH   1   8
ATOM      8  P   UNL     1       6.974   5.515  18.391  0.00  0.00    +0.000 P 
ATOM      9  O   UNL     1       6.652   5.164  19.848  0.00  0.00    +0.000 OA
BRANCH   8  10
ATOM     10  O   UNL     1       8.138   4.453  17.930  0.00  0.00    +0.000 OA
ATOM     11  H   UNL     1       8.428   4.644  17.012  0.00  0.00    +0.000 HD
ENDBRANCH   8  10
BRANCH   8  12
ATOM     12  O   UNL     1       8.244   6.530  18.978  0.00  0.00    +0.000 OA
ATOM     13  H   UNL     1       8.946   6.420  18.303  0.00  0.00    +0.000 HD
ENDBRANCH   8  12
ENDBRANCH   1   8
BRANCH   1  14
ATOM     14  C   UNL     1       4.283   4.486  18.455  0.00  0.00    +0.000 C 
BRANCH  14  15
ATOM     15  S   UNL     1       3.924   2.809  19.125  0.00  0.00    +0.000 S 
BRANCH  15  16
ATOM     16  C   UNL     1       2.233   2.593  18.476  0.00  0.00    +0.000 C 
BRANCH  16  18
ATOM     17  C   UNL     1       0.927   3.893  20.220  0.00  0.00    +0.000 C 
ATOM     18  C   UNL     1       1.402   3.824  18.782  0.00  0.00    +0.000 C 
ENDBRANCH  16  18
ENDBRANCH  15  16
ENDBRANCH  14  15
ENDBRANCH   1  14
TORSDOF 10
ENDMDL
