MODEL 1
REMARK VINA RESULT:      -6.7      0.000      0.000
REMARK  Name = 
REMARK  6 active torsions:
REMARK  status: ('A' for Active; 'I' for Inactive)
REMARK    1  A    between atoms: C_1  and  C_2
REMARK    2  A    between atoms: C_6  and  C_7
REMARK    3  A    between atoms: C_7  and  C_8
REMARK    4  A    between atoms: C_7  and  N_13
REMARK    5  A    between atoms: N_16  and  C_17
REMARK    6  A    between atoms: C_26  and  O_27
REMARK                            x       y       z     vdW  Elec       q    Type
REMARK                         _______ _______ _______ _____ _____    ______ ____
ROOT
ATOM      1  C   UNL     1      -0.540  11.482  21.109  0.00  0.00    +0.000 C 
ENDROOT
BRANCH   1   7
ATOM      2  C   UNL     1       2.536  17.144  17.823  0.00  0.00    +0.000 C 
ATOM      3  C   UNL     1       1.962  15.942  18.463  0.00  0.00    +0.000 A 
ATOM      4  N   UNL     1       2.710  15.180  19.333  0.00  0.00    +0.000 NA
ATOM      5  C   UNL     1       1.851  14.257  19.651  0.00  0.00    +0.000 A 
ATOM      6  S   UNL     1       1.884  12.898  20.703  0.00  0.00    +0.000 S 
ATOM      7  C   UNL     1       0.147  12.585  20.314  0.00  0.00    +0.000 A 
ATOM      8  C   UNL     1      -0.333  13.479  19.413  0.00  0.00    +0.000 A 
ATOM      9  N   UNL     1       0.635  14.418  19.039  0.00  0.00    +0.000 N 
ATOM     10  N   UNL     1       0.701  15.518  18.242  0.00  0.00    +0.000 NA
BRANCH   8  11
ATOM     11  O   UNL     1      -1.607  13.535  18.901  0.00  0.00    +0.000 OA
ATOM     12  H   UNL     1      -1.572  13.462  17.929  0.00  0.00    +0.000 HD
ENDBRANCH   8  11
ENDBRANCH   1   7
BRANCH   1  13
ATOM     13  N   UNL     1      -0.657  10.167  20.445  0.00  0.00    +0.000 NA
ATOM     14  C   UNL     1      -0.107  10.111  19.071  0.00  0.00    +0.000 C 
ATOM     15  C   UNL     1       1.396   9.764  18.967  0.00  0.00    +0.000 C 
ATOM     16  N   UNL     1       1.708   8.563  19.746  0.00  0.00    +0.000 N 
ATOM     17  C   UNL     1       1.207   8.521  21.125  0.00  0.00    +0.000 C 
ATOM     18  C   UNL     1      -0.279   8.951  21.180  0.00  0.00    +0.000 C 
BRANCH  16  19
ATOM     19  C   UNL     1       2.351   7.487  19.171  0.00  0.00    +0.000 A 
ATOM     20  C   UNL     1       2.308   6.208  19.747  0.00  0.00    +0.000 A 
ATOM     21  C   UNL     1       2.988   5.128  19.172  0.00  0.00    +0.000 A 
ATOM     22  C   UNL     1       3.710   5.317  18.003  0.00  0.00    +0.000 A 
ATOM     23  F   UNL     1       4.370   4.289  17.454  0.00  0.00    +0.000 F 
ATOM     24  C   UNL     1       3.759   6.562  17.400  0.00  0.00    +0.000 A 
ATOM     25  C   UNL     1       3.084   7.635  17.981  0.00  0.00    +0.000 A 
ENDBRANCH  16  19
ENDBRANCH   1  13
BRANCH   1  26
ATOM     26  C   UNL     1      -1.698  11.918  21.969  0.00  0.00    +0.000 A 
ATOM     27  C   UNL     1      -1.871  11.869  23.342  0.00  0.00    +0.000 A 
ATOM     28  C   UNL     1      -3.175  12.340  23.603  0.00  0.00    +0.000 A 
ATOM     29  C   UNL     1      -3.706  12.673  22.380  0.00  0.00    +0.000 A 
ATOM     30  O   UNL     1      -2.816  12.430  21.377  0.00  0.00    +0.000 OA
ENDBRANCH   1  26
TORSDOF 5
ENDMDL
MODEL 2
REMARK VINA RESULT:      -6.7      2.596      4.061
REMARK  Name = 
REMARK  6 active torsions:
REMARK  status: ('A' for Active; 'I' for Inactive)
REMARK    1  A    between atoms: C_1  and  C_2
REMARK    2  A    between atoms: C_6  and  C_7
REMARK    3  A    between atoms: C_7  and  C_8
REMARK    4  A    between atoms: C_7  and  N_13
REMARK    5  A    between atoms: N_16  and  C_17
REMARK    6  A    between atoms: C_26  and  O_27
REMARK                            x       y       z     vdW  Elec       q    Type
REMARK                         _______ _______ _______ _____ _____    ______ ____
ROOT
ATOM      1  C   UNL     1      -0.755  10.933  19.983  0.00  0.00    +0.000 C 
ENDROOT
BRANCH   1   7
ATOM      2  C   UNL     1      -3.488  16.080  24.268  0.00  0.00    +0.000 C 
ATOM      3  C   UNL     1      -2.869  15.025  23.440  0.00  0.00    +0.000 A 
ATOM      4  N   UNL     1      -2.579  13.788  23.972  0.00  0.00    +0.000 NA
ATOM      5  C   UNL     1      -2.065  13.190  22.939  0.00  0.00    +0.000 A 
ATOM      6  S   UNL     1      -1.451  11.611  22.649  0.00  0.00    +0.000 S 
ATOM      7  C   UNL     1      -1.197  12.055  20.915  0.00  0.00    +0.000 A 
ATOM      8  C   UNL     1      -1.549  13.342  20.672  0.00  0.00    +0.000 A 
ATOM      9  N   UNL     1      -2.035  13.979  21.818  0.00  0.00    +0.000 N 
ATOM     10  N   UNL     1      -2.549  15.196  22.140  0.00  0.00    +0.000 NA
BRANCH   8  11
ATOM     11  O   UNL     1      -1.489  14.004  19.468  0.00  0.00    +0.000 OA
ATOM     12  H   UNL     1      -0.558  14.193  19.246  0.00  0.00    +0.000 HD
ENDBRANCH   8  11
ENDBRANCH   1   7
BRANCH   1  13
ATOM     13  N   UNL     1       0.701  10.691  19.889  0.00  0.00    +0.000 NA
ATOM     14  C   UNL     1       1.227   9.680  20.835  0.00  0.00    +0.000 C 
ATOM     15  C   UNL     1       1.192   8.217  20.336  0.00  0.00    +0.000 C 
ATOM     16  N   UNL     1       1.793   8.108  19.004  0.00  0.00    +0.000 N 
ATOM     17  C   UNL     1       1.335   9.067  17.991  0.00  0.00    +0.000 C 
ATOM     18  C   UNL     1       1.317  10.503  18.568  0.00  0.00    +0.000 C 
BRANCH  16  19
ATOM     19  C   UNL     1       2.811   7.212  18.752  0.00  0.00    +0.000 A 
ATOM     20  C   UNL     1       3.623   7.319  17.613  0.00  0.00    +0.000 A 
ATOM     21  C   UNL     1       4.636   6.389  17.352  0.00  0.00    +0.000 A 
ATOM     22  C   UNL     1       4.853   5.345  18.238  0.00  0.00    +0.000 A 
ATOM     23  F   UNL     1       5.814   4.447  17.987  0.00  0.00    +0.000 F 
ATOM     24  C   UNL     1       4.081   5.219  19.380  0.00  0.00    +0.000 A 
ATOM     25  C   UNL     1       3.070   6.148  19.632  0.00  0.00    +0.000 A 
ENDBRANCH  16  19
ENDBRANCH   1  13
BRANCH   1  26
ATOM     26  C   UNL     1      -1.556  10.779  18.717  0.00  0.00    +0.000 A 
ATOM     27  C   UNL     1      -2.294   9.708  18.241  0.00  0.00    +0.000 A 
ATOM     28  C   UNL     1      -2.776  10.081  16.969  0.00  0.00    +0.000 A 
ATOM     29  C   UNL     1      -2.328  11.365  16.759  0.00  0.00    +0.000 A 
ATOM     30  O   UNL     1      -1.592  11.806  17.818  0.00  0.00    +0.000 OA
ENDBRANCH   1  26
TORSDOF 5
ENDMDL
MODEL 3
REMARK VINA RESULT:      -6.7      2.761      3.927
REMARK  Name = 
REMARK  6 active torsions:
REMARK  status: ('A' for Active; 'I' for Inactive)
REMARK    1  A    between atoms: C_1  and  C_2
REMARK    2  A    between atoms: C_6  and  C_7
REMARK    3  A    between atoms: C_7  and  C_8
REMARK    4  A    between atoms: C_7  and  N_13
REMARK    5  A    between atoms: N_16  and  C_17
REMARK    6  A    between atoms: C_26  and  O_27
REMARK                            x       y       z     vdW  Elec       q    Type
REMARK                         _______ _______ _______ _____ _____    ______ ____
ROOT
ATOM      1  C   UNL     1      -0.409  11.053  20.452  0.00  0.00    +0.000 C 
ENDROOT
BRANCH   1   7
ATOM      2  C   UNL     1      -2.046  16.370  25.074  0.00  0.00    +0.000 C 
ATOM      3  C   UNL     1      -1.725  15.234  24.186  0.00  0.00    +0.000 A 
ATOM      4  N   UNL     1      -2.658  14.255  23.928  0.00  0.00    +0.000 NA
ATOM      5  C   UNL     1      -1.985  13.478  23.131  0.00  0.00    +0.000 A 
ATOM      6  S   UNL     1      -2.347  12.030  22.279  0.00  0.00    +0.000 S 
ATOM      7  C   UNL     1      -0.703  12.090  21.529  0.00  0.00    +0.000 A 
ATOM      8  C   UNL     1       0.013  13.151  21.978  0.00  0.00    +0.000 A 
ATOM      9  N   UNL     1      -0.714  13.929  22.885  0.00  0.00    +0.000 N 
ATOM     10  N   UNL     1      -0.527  15.079  23.587  0.00  0.00    +0.000 NA
BRANCH   8  11
ATOM     11  O   UNL     1       1.292  13.500  21.614  0.00  0.00    +0.000 OA
ATOM     12  H   UNL     1       1.921  12.839  21.959  0.00  0.00    +0.000 HD
ENDBRANCH   8  11
ENDBRANCH   1   7
BRANCH   1  13
ATOM     13  N   UNL     1       1.014  10.716  20.234  0.00  0.00    +0.000 NA
ATOM     14  C   UNL     1       1.538   9.636  21.102  0.00  0.00    +0.000 C 
ATOM     15  C   UNL     1       1.360   8.199  20.560  0.00  0.00    +0.000 C 
ATOM     16  N   UNL     1       1.848   8.100  19.181  0.00  0.00    +0.000 N 
ATOM     17  C   UNL     1       1.383   9.126  18.240  0.00  0.00    +0.000 C 
ATOM     18  C   UNL     1       1.512  10.537  18.863  0.00  0.00    +0.000 C 
BRANCH  16  19
ATOM     19  C   UNL     1       2.777   7.147  18.820  0.00  0.00    +0.000 A 
ATOM     20  C   UNL     1       3.003   6.004  19.601  0.00  0.00    +0.000 A 
ATOM     21  C   UNL     1       3.968   5.056  19.242  0.00  0.00    +0.000 A 
ATOM     22  C   UNL     1       4.711   5.239  18.084  0.00  0.00    +0.000 A 
ATOM     23  F   UNL     1       5.642   4.340  17.741  0.00  0.00    +0.000 F 
ATOM     24  C   UNL     1       4.501   6.347  17.282  0.00  0.00    +0.000 A 
ATOM     25  C   UNL     1       3.541   7.290  17.649  0.00  0.00    +0.000 A 
ENDBRANCH  16  19
ENDBRANCH   1  13
BRANCH   1  26
ATOM     26  C   UNL     1      -1.293  11.106  19.232  0.00  0.00    +0.000 A 
ATOM     27  C   UNL     1      -1.670  12.174  18.437  0.00  0.00    +0.000 A 
ATOM     28  C   UNL     1      -2.569  11.667  17.476  0.00  0.00    +0.000 A 
ATOM     29  C   UNL     1      -2.662  10.317  17.725  0.00  0.00    +0.000 A 
ATOM     30  O   UNL     1      -1.885   9.960  18.785  0.00  0.00    +0.000 OA
ENDBRANCH   1  26
TORSDOF 5
ENDMDL
MODEL 4
REMARK VINA RESULT:      -6.7      4.200      6.844
REMARK  Name = 
REMARK  6 active torsions:
REMARK  status: ('A' for Active; 'I' for Inactive)
REMARK    1  A    between atoms: C_1  and  C_2
REMARK    2  A    between atoms: C_6  and  C_7
REMARK    3  A    between atoms: C_7  and  C_8
REMARK    4  A    between atoms: C_7  and  N_13
REMARK    5  A    between atoms: N_16  and  C_17
REMARK    6  A    between atoms: C_26  and  O_27
REMARK                            x       y       z     vdW  Elec       q    Type
REMARK                         _______ _______ _______ _____ _____    ______ ____
ROOT
ATOM      1  C   UNL     1      -1.526  12.269  20.853  0.00  0.00    +0.000 C 
ENDROOT
BRANCH   1   7
ATOM      2  C   UNL     1      -3.968  10.053  14.416  0.00  0.00    +0.000 C 
ATOM      3  C   UNL     1      -3.495  10.576  15.714  0.00  0.00    +0.000 A 
ATOM      4  N   UNL     1      -4.376  11.137  16.612  0.00  0.00    +0.000 NA
ATOM      5  C   UNL     1      -3.569  11.453  17.582  0.00  0.00    +0.000 A 
ATOM      6  S   UNL     1      -3.778  12.167  19.132  0.00  0.00    +0.000 S 
ATOM      7  C   UNL     1      -2.014  11.933  19.449  0.00  0.00    +0.000 A 
ATOM      8  C   UNL     1      -1.383  11.376  18.385  0.00  0.00    +0.000 A 
ATOM      9  N   UNL     1      -2.266  11.111  17.333  0.00  0.00    +0.000 N 
ATOM     10  N   UNL     1      -2.202  10.545  16.098  0.00  0.00    +0.000 NA
BRANCH   8  11
ATOM     11  O   UNL     1      -0.049  11.059  18.287  0.00  0.00    +0.000 OA
ATOM     12  H   UNL     1       0.445  11.502  19.001  0.00  0.00    +0.000 HD
ENDBRANCH   8  11
ENDBRANCH   1   7
BRANCH   1  13
ATOM     13  N   UNL     1      -0.853  13.575  21.021  0.00  0.00    +0.000 NA
ATOM     14  C   UNL     1       0.477  13.512  21.669  0.00  0.00    +0.000 C 
ATOM     15  C   UNL     1       1.673  13.287  20.715  0.00  0.00    +0.000 C 
ATOM     16  N   UNL     1       1.635  14.238  19.600  0.00  0.00    +0.000 N 
ATOM     17  C   UNL     1       0.357  14.372  18.890  0.00  0.00    +0.000 C 
ATOM     18  C   UNL     1      -0.813  14.516  19.893  0.00  0.00    +0.000 C 
BRANCH  16  19
ATOM     19  C   UNL     1       2.720  15.036  19.305  0.00  0.00    +0.000 A 
ATOM     20  C   UNL     1       3.491  14.835  18.150  0.00  0.00    +0.000 A 
ATOM     21  C   UNL     1       4.608  15.632  17.873  0.00  0.00    +0.000 A 
ATOM     22  C   UNL     1       4.957  16.650  18.748  0.00  0.00    +0.000 A 
ATOM     23  F   UNL     1       6.030  17.409  18.493  0.00  0.00    +0.000 F 
ATOM     24  C   UNL     1       4.208  16.886  19.888  0.00  0.00    +0.000 A 
ATOM     25  C   UNL     1       3.099  16.085  20.160  0.00  0.00    +0.000 A 
ENDBRANCH  16  19
ENDBRANCH   1  13
BRANCH   1  26
ATOM     26  C   UNL     1      -0.982  11.113  21.652  0.00  0.00    +0.000 A 
ATOM     27  C   UNL     1      -1.136  10.789  22.989  0.00  0.00    +0.000 A 
ATOM     28  C   UNL     1      -0.348   9.642  23.222  0.00  0.00    +0.000 A 
ATOM     29  C   UNL     1       0.215   9.321  22.009  0.00  0.00    +0.000 A 
ATOM     30  O   UNL     1      -0.169  10.201  21.042  0.00  0.00    +0.000 OA
ENDBRANCH   1  26
TORSDOF 5
ENDMDL
MODEL 5
REMARK VINA RESULT:      -6.7      2.470      3.658
REMARK  Name = 
REMARK  6 active torsions:
REMARK  status: ('A' for Active; 'I' for Inactive)
REMARK    1  A    between atoms: C_1  and  C_2
REMARK    2  A    between atoms: C_6  and  C_7
REMARK    3  A    between atoms: C_7  and  C_8
REMARK    4  A    between atoms: C_7  and  N_13
REMARK    5  A    between atoms: N_16  and  C_17
REMARK    6  A    between atoms: C_26  and  O_27
REMARK                            x       y       z     vdW  Elec       q    Type
REMARK                         _______ _______ _______ _____ _____    ______ ____
ROOT
ATOM      1  C   UNL     1      -0.858  11.452  19.804  0.00  0.00    +0.000 C 
ENDROOT
BRANCH   1   7
ATOM      2  C   UNL     1      -3.284  17.738  22.436  0.00  0.00    +0.000 C 
ATOM      3  C   UNL     1      -2.744  16.447  21.961  0.00  0.00    +0.000 A 
ATOM      4  N   UNL     1      -2.901  15.299  22.705  0.00  0.00    +0.000 NA
ATOM      5  C   UNL     1      -2.299  14.431  21.948  0.00  0.00    +0.000 A 
ATOM      6  S   UNL     1      -2.025  12.737  22.048  0.00  0.00    +0.000 S 
ATOM      7  C   UNL     1      -1.242  12.792  20.420  0.00  0.00    +0.000 A 
ATOM      8  C   UNL     1      -1.205  14.055  19.925  0.00  0.00    +0.000 A 
ATOM      9  N   UNL     1      -1.800  14.976  20.794  0.00  0.00    +0.000 N 
ATOM     10  N   UNL     1      -2.075  16.308  20.798  0.00  0.00    +0.000 NA
BRANCH   8  11
ATOM     11  O   UNL     1      -0.686  14.455  18.717  0.00  0.00    +0.000 OA
ATOM     12  H   UNL     1      -0.830  13.756  18.052  0.00  0.00    +0.000 HD
ENDBRANCH   8  11
ENDBRANCH   1   7
BRANCH   1  13
ATOM     13  N   UNL     1       0.580  11.110  19.818  0.00  0.00    +0.000 NA
ATOM     14  C   UNL     1       0.963  10.063  20.792  0.00  0.00    +0.000 C 
ATOM     15  C   UNL     1       0.864   8.607  20.282  0.00  0.00    +0.000 C 
ATOM     16  N   UNL     1       1.555   8.459  18.997  0.00  0.00    +0.000 N 
ATOM     17  C   UNL     1       1.242   9.450  17.960  0.00  0.00    +0.000 C 
ATOM     18  C   UNL     1       1.279  10.883  18.545  0.00  0.00    +0.000 C 
BRANCH  16  19
ATOM     19  C   UNL     1       2.525   7.495  18.816  0.00  0.00    +0.000 A 
ATOM     20  C   UNL     1       2.684   6.430  19.715  0.00  0.00    +0.000 A 
ATOM     21  C   UNL     1       3.689   5.473  19.538  0.00  0.00    +0.000 A 
ATOM     22  C   UNL     1       4.541   5.566  18.448  0.00  0.00    +0.000 A 
ATOM     23  F   UNL     1       5.510   4.658  18.279  0.00  0.00    +0.000 F 
ATOM     24  C   UNL     1       4.400   6.595  17.532  0.00  0.00    +0.000 A 
ATOM     25  C   UNL     1       3.399   7.549  17.717  0.00  0.00    +0.000 A 
ENDBRANCH  16  19
ENDBRANCH   1  13
BRANCH   1  26
ATOM     26  C   UNL     1      -1.648  11.039  18.589  0.00  0.00    +0.000 A 
ATOM     27  C   UNL     1      -2.296   9.852  18.296  0.00  0.00    +0.000 A 
ATOM     28  C   UNL     1      -2.810   9.983  16.989  0.00  0.00    +0.000 A 
ATOM     29  C   UNL     1      -2.470  11.250  16.577  0.00  0.00    +0.000 A 
ATOM     30  O   UNL     1      -1.770  11.908  17.543  0.00  0.00    +0.000 OA
ENDBRANCH   1  26
TORSDOF 5
ENDMDL
MODEL 6
REMARK VINA RESULT:      -6.7      2.346      4.601
REMARK  Name = 
REMARK  6 active torsions:
REMARK  status: ('A' for Active; 'I' for Inactive)
REMARK    1  A    between atoms: C_1  and  C_2
REMARK    2  A    between atoms: C_6  and  C_7
REMARK    3  A    between atoms: C_7  and  C_8
REMARK    4  A    between atoms: C_7  and  N_13
REMARK    5  A    between atoms: N_16  and  C_17
REMARK    6  A    between atoms: C_26  and  O_27
REMARK                            x       y       z     vdW  Elec       q    Type
REMARK                         _______ _______ _______ _____ _____    ______ ____
ROOT
ATOM      1  C   UNL     1      -1.063  11.764  19.763  0.00  0.00    +0.000 C 
ENDROOT
BRANCH   1   7
ATOM      2  C   UNL     1      -6.662  13.320  24.069  0.00  0.00    +0.000 C 
ATOM      3  C   UNL     1      -5.478  13.056  23.226  0.00  0.00    +0.000 A 
ATOM      4  N   UNL     1      -4.289  12.645  23.788  0.00  0.00    +0.000 NA
ATOM      5  C   UNL     1      -3.543  12.533  22.729  0.00  0.00    +0.000 A 
ATOM      6  S   UNL     1      -1.918  12.044  22.453  0.00  0.00    +0.000 S 
ATOM      7  C   UNL     1      -2.193  12.225  20.675  0.00  0.00    +0.000 A 
ATOM      8  C   UNL     1      -3.448  12.662  20.405  0.00  0.00    +0.000 A 
ATOM      9  N   UNL     1      -4.205  12.838  21.569  0.00  0.00    +0.000 N 
ATOM     10  N   UNL     1      -5.477  13.198  21.885  0.00  0.00    +0.000 NA
BRANCH   8  11
ATOM     11  O   UNL     1      -3.992  12.903  19.165  0.00  0.00    +0.000 OA
ATOM     12  H   UNL     1      -3.383  12.582  18.474  0.00  0.00    +0.000 HD
ENDBRANCH   8  11
ENDBRANCH   1   7
BRANCH   1  13
ATOM     13  N   UNL     1      -0.985  10.312  19.493  0.00  0.00    +0.000 NA
ATOM     14  C   UNL     1      -0.448   9.953  18.161  0.00  0.00    +0.000 C 
ATOM     15  C   UNL     1       1.090   9.810  18.078  0.00  0.00    +0.000 C 
ATOM     16  N   UNL     1       1.588   8.932  19.141  0.00  0.00    +0.000 N 
ATOM     17  C   UNL     1       1.113   9.207  20.503  0.00  0.00    +0.000 C 
ATOM     18  C   UNL     1      -0.420   9.418  20.514  0.00  0.00    +0.000 C 
BRANCH  16  19
ATOM     19  C   UNL     1       2.381   7.842  18.852  0.00  0.00    +0.000 A 
ATOM     20  C   UNL     1       2.424   6.718  19.690  0.00  0.00    +0.000 A 
ATOM     21  C   UNL     1       3.254   5.627  19.404  0.00  0.00    +0.000 A 
ATOM     22  C   UNL     1       4.044   5.648  18.264  0.00  0.00    +0.000 A 
ATOM     23  F   UNL     1       4.846   4.612  17.990  0.00  0.00    +0.000 F 
ATOM     24  C   UNL     1       4.013   6.735  17.407  0.00  0.00    +0.000 A 
ATOM     25  C   UNL     1       3.187   7.820  17.701  0.00  0.00    +0.000 A 
ENDBRANCH  16  19
ENDBRANCH   1  13
BRANCH   1  26
ATOM     26  C   UNL     1       0.242  12.502  19.911  0.00  0.00    +0.000 A 
ATOM     27  C   UNL     1       0.940  13.290  19.012  0.00  0.00    +0.000 A 
ATOM     28  C   UNL     1       2.138  13.670  19.651  0.00  0.00    +0.000 A 
ATOM     29  C   UNL     1       2.085  13.117  20.909  0.00  0.00    +0.000 A 
ATOM     30  O   UNL     1       0.933  12.411  21.085  0.00  0.00    +0.000 OA
ENDBRANCH   1  26
TORSDOF 5
ENDMDL
MODEL 7
REMARK VINA RESULT:      -6.7      2.773      5.132
REMARK  Name = 
REMARK  6 active torsions:
REMARK  status: ('A' for Active; 'I' for Inactive)
REMARK    1  A    between atoms: C_1  and  C_2
REMARK    2  A    between atoms: C_6  and  C_7
REMARK    3  A    between atoms: C_7  and  C_8
REMARK    4  A    between atoms: C_7  and  N_13
REMARK    5  A    between atoms: N_16  and  C_17
REMARK    6  A    between atoms: C_26  and  O_27
REMARK                            x       y       z     vdW  Elec       q    Type
REMARK                         _______ _______ _______ _____ _____    ______ ____
ROOT
ATOM      1  C   UNL     1      -1.197  13.284  20.417  0.00  0.00    +0.000 C 
ENDROOT
BRANCH   1   7
ATOM      2  C   UNL     1      -7.916  12.069  22.802  0.00  0.00    +0.000 C 
ATOM      3  C   UNL     1      -6.549  12.388  22.343  0.00  0.00    +0.000 A 
ATOM      4  N   UNL     1      -5.574  12.765  23.240  0.00  0.00    +0.000 NA
ATOM      5  C   UNL     1      -4.563  12.945  22.441  0.00  0.00    +0.000 A 
ATOM      6  S   UNL     1      -2.918  13.389  22.669  0.00  0.00    +0.000 S 
ATOM      7  C   UNL     1      -2.638  13.166  20.898  0.00  0.00    +0.000 A 
ATOM      8  C   UNL     1      -3.777  12.812  20.252  0.00  0.00    +0.000 A 
ATOM      9  N   UNL     1      -4.862  12.692  21.128  0.00  0.00    +0.000 N 
ATOM     10  N   UNL     1      -6.172  12.338  21.049  0.00  0.00    +0.000 NA
BRANCH   8  11
ATOM     11  O   UNL     1      -3.923  12.560  18.908  0.00  0.00    +0.000 OA
ATOM     12  H   UNL     1      -4.642  11.915  18.773  0.00  0.00    +0.000 HD
ENDBRANCH   8  11
ENDBRANCH   1   7
BRANCH   1  13
ATOM     13  N   UNL     1      -0.242  12.289  20.949  0.00  0.00    +0.000 NA
ATOM     14  C   UNL     1      -0.758  10.902  21.015  0.00  0.00    +0.000 C 
ATOM     15  C   UNL     1      -0.562  10.055  19.737  0.00  0.00    +0.000 C 
ATOM     16  N   UNL     1       0.830  10.116  19.282  0.00  0.00    +0.000 N 
ATOM     17  C   UNL     1       1.435  11.449  19.181  0.00  0.00    +0.000 C 
ATOM     18  C   UNL     1       1.142  12.280  20.454  0.00  0.00    +0.000 C 
BRANCH  16  19
ATOM     19  C   UNL     1       1.559   8.966  19.061  0.00  0.00    +0.000 A 
ATOM     20  C   UNL     1       1.656   7.956  20.030  0.00  0.00    +0.000 A 
ATOM     21  C   UNL     1       2.421   6.805  19.807  0.00  0.00    +0.000 A 
ATOM     22  C   UNL     1       3.090   6.649  18.602  0.00  0.00    +0.000 A 
ATOM     23  F   UNL     1       3.830   5.555  18.388  0.00  0.00    +0.000 F 
ATOM     24  C   UNL     1       3.001   7.619  17.618  0.00  0.00    +0.000 A 
ATOM     25  C   UNL     1       2.241   8.765  17.849  0.00  0.00    +0.000 A 
ENDBRANCH  16  19
ENDBRANCH   1  13
BRANCH   1  26
ATOM     26  C   UNL     1      -0.684  14.687  20.222  0.00  0.00    +0.000 A 
ATOM     27  C   UNL     1      -0.444  15.407  19.065  0.00  0.00    +0.000 A 
ATOM     28  C   UNL     1       0.104  16.645  19.463  0.00  0.00    +0.000 A 
ATOM     29  C   UNL     1       0.138  16.615  20.837  0.00  0.00    +0.000 A 
ATOM     30  O   UNL     1      -0.347  15.434  21.314  0.00  0.00    +0.000 OA
ENDBRANCH   1  26
TORSDOF 5
ENDMDL
MODEL 8
REMARK VINA RESULT:      -6.7      0.998      1.077
REMARK  Name = 
REMARK  6 active torsions:
REMARK  status: ('A' for Active; 'I' for Inactive)
REMARK    1  A    between atoms: C_1  and  C_2
REMARK    2  A    between atoms: C_6  and  C_7
REMARK    3  A    between atoms: C_7  and  C_8
REMARK    4  A    between atoms: C_7  and  N_13
REMARK    5  A    between atoms: N_16  and  C_17
REMARK    6  A    between atoms: C_26  and  O_27
REMARK                            x       y       z     vdW  Elec       q    Type
REMARK                         _______ _______ _______ _____ _____    ______ ____
ROOT
ATOM      1  C   UNL     1      -0.350  11.991  21.737  0.00  0.00    +0.000 C 
ENDROOT
BRANCH   1   7
ATOM      2  C   UNL     1       2.674  17.032  17.523  0.00  0.00    +0.000 C 
ATOM      3  C   UNL     1       2.101  15.950  18.349  0.00  0.00    +0.000 A 
ATOM      4  N   UNL     1       2.902  15.190  19.172  0.00  0.00    +0.000 NA
ATOM      5  C   UNL     1       2.025  14.386  19.695  0.00  0.00    +0.000 A 
ATOM      6  S   UNL     1       2.099  13.120  20.856  0.00  0.00    +0.000 S 
ATOM      7  C   UNL     1       0.302  12.952  20.750  0.00  0.00    +0.000 A 
ATOM      8  C   UNL     1      -0.229  13.813  19.847  0.00  0.00    +0.000 A 
ATOM      9  N   UNL     1       0.749  14.617  19.251  0.00  0.00    +0.000 N 
ATOM     10  N   UNL     1       0.789  15.637  18.353  0.00  0.00    +0.000 NA
BRANCH   8  11
ATOM     11  O   UNL     1      -1.556  13.954  19.519  0.00  0.00    +0.000 OA
ATOM     12  H   UNL     1      -1.901  13.107  19.179  0.00  0.00    +0.000 HD
ENDBRANCH   8  11
ENDBRANCH   1   7
BRANCH   1  13
ATOM     13  N   UNL     1      -0.672  10.641  21.226  0.00  0.00    +0.000 NA
ATOM     14  C   UNL     1      -0.310  10.408  19.809  0.00  0.00    +0.000 C 
ATOM     15  C   UNL     1       1.129   9.898  19.563  0.00  0.00    +0.000 C 
ATOM     16  N   UNL     1       1.424   8.744  20.416  0.00  0.00    +0.000 N 
ATOM     17  C   UNL     1       1.102   8.876  21.842  0.00  0.00    +0.000 C 
ATOM     18  C   UNL     1      -0.319   9.462  22.029  0.00  0.00    +0.000 C 
BRANCH  16  19
ATOM     19  C   UNL     1       1.886   7.560  19.880  0.00  0.00    +0.000 A 
ATOM     20  C   UNL     1       1.782   6.345  20.574  0.00  0.00    +0.000 A 
ATOM     21  C   UNL     1       2.279   5.154  20.034  0.00  0.00    +0.000 A 
ATOM     22  C   UNL     1       2.877   5.165  18.782  0.00  0.00    +0.000 A 
ATOM     23  F   UNL     1       3.362   4.030  18.265  0.00  0.00    +0.000 F 
ATOM     24  C   UNL     1       2.980   6.344  18.063  0.00  0.00    +0.000 A 
ATOM     25  C   UNL     1       2.487   7.528  18.610  0.00  0.00    +0.000 A 
ENDBRANCH  16  19
ENDBRANCH   1  13
BRANCH   1  26
ATOM     26  C   UNL     1      -1.328  12.607  22.703  0.00  0.00    +0.000 A 
ATOM     27  C   UNL     1      -2.592  12.197  23.091  0.00  0.00    +0.000 A 
ATOM     28  C   UNL     1      -3.090  13.188  23.963  0.00  0.00    +0.000 A 
ATOM     29  C   UNL     1      -2.089  14.125  24.076  0.00  0.00    +0.000 A 
ATOM     30  O   UNL     1      -1.008  13.781  23.323  0.00  0.00    +0.000 OA
ENDBRANCH   1  26
TORSDOF 5
ENDMDL
MODEL 9
REMARK VINA RESULT:      -6.6      2.308      4.671
REMARK  Name = 
REMARK  6 active torsions:
REMARK  status: ('A' for Active; 'I' for Inactive)
REMARK    1  A    between atoms: C_1  and  C_2
REMARK    2  A    between atoms: C_6  and  C_7
REMARK    3  A    between atoms: C_7  and  C_8
REMARK    4  A    between atoms: C_7  and  N_13
REMARK    5  A    between atoms: N_16  and  C_17
REMARK    6  A    between atoms: C_26  and  O_27
REMARK                            x       y       z     vdW  Elec       q    Type
REMARK                         _______ _______ _______ _____ _____    ______ ____
ROOT
ATOM      1  C   UNL     1      -1.165  11.841  19.606  0.00  0.00    +0.000 C 
ENDROOT
BRANCH   1   7
ATOM      2  C   UNL     1      -6.694  13.268  24.046  0.00  0.00    +0.000 C 
ATOM      3  C   UNL     1      -5.525  13.032  23.174  0.00  0.00    +0.000 A 
ATOM      4  N   UNL     1      -4.308  12.671  23.708  0.00  0.00    +0.000 NA
ATOM      5  C   UNL     1      -3.587  12.568  22.630  0.00  0.00    +0.000 A 
ATOM      6  S   UNL     1      -1.955  12.131  22.315  0.00  0.00    +0.000 S 
ATOM      7  C   UNL     1      -2.285  12.276  20.544  0.00  0.00    +0.000 A 
ATOM      8  C   UNL     1      -3.561  12.667  20.303  0.00  0.00    +0.000 A 
ATOM      9  N   UNL     1      -4.291  12.834  21.484  0.00  0.00    +0.000 N 
ATOM     10  N   UNL     1      -5.566  13.155  21.832  0.00  0.00    +0.000 NA
BRANCH   8  11
ATOM     11  O   UNL     1      -4.147  12.870  19.075  0.00  0.00    +0.000 OA
ATOM     12  H   UNL     1      -4.480  12.022  18.728  0.00  0.00    +0.000 HD
ENDBRANCH   8  11
ENDBRANCH   1   7
BRANCH   1  13
ATOM     13  N   UNL     1      -1.076  10.394  19.315  0.00  0.00    +0.000 NA
ATOM     14  C   UNL     1      -0.421  10.056  18.030  0.00  0.00    +0.000 C 
ATOM     15  C   UNL     1       1.116   9.898  18.087  0.00  0.00    +0.000 C 
ATOM     16  N   UNL     1       1.505   8.993  19.172  0.00  0.00    +0.000 N 
ATOM     17  C   UNL     1       0.910   9.246  20.490  0.00  0.00    +0.000 C 
ATOM     18  C   UNL     1      -0.616   9.474  20.364  0.00  0.00    +0.000 C 
BRANCH  16  19
ATOM     19  C   UNL     1       2.312   7.900  18.935  0.00  0.00    +0.000 A 
ATOM     20  C   UNL     1       3.129   7.819  17.797  0.00  0.00    +0.000 A 
ATOM     21  C   UNL     1       3.924   6.694  17.550  0.00  0.00    +0.000 A 
ATOM     22  C   UNL     1       3.916   5.638  18.450  0.00  0.00    +0.000 A 
ATOM     23  F   UNL     1       4.667   4.555  18.213  0.00  0.00    +0.000 F 
ATOM     24  C   UNL     1       3.134   5.693  19.591  0.00  0.00    +0.000 A 
ATOM     25  C   UNL     1       2.341   6.816  19.828  0.00  0.00    +0.000 A 
ENDBRANCH  16  19
ENDBRANCH   1  13
BRANCH   1  26
ATOM     26  C   UNL     1       0.134  12.591  19.744  0.00  0.00    +0.000 A 
ATOM     27  C   UNL     1       1.033  12.652  20.794  0.00  0.00    +0.000 A 
ATOM     28  C   UNL     1       2.040  13.565  20.414  0.00  0.00    +0.000 A 
ATOM     29  C   UNL     1       1.708  13.983  19.146  0.00  0.00    +0.000 A 
ATOM     30  O   UNL     1       0.556  13.392  18.722  0.00  0.00    +0.000 OA
ENDBRANCH   1  26
TORSDOF 5
ENDMDL
