MODEL 1
REMARK VINA RESULT:      -6.5      0.000      0.000
REMARK  Name = 
REMARK  8 active torsions:
REMARK  status: ('A' for Active; 'I' for Inactive)
REMARK    1  A    between atoms: C_1  and  C_2
REMARK    2  A    between atoms: C_2  and  O_3
REMARK    3  A    between atoms: O_3  and  C_4
REMARK    4  A    between atoms: N_7  and  C_8
REMARK    5  A    between atoms: C_8  and  C_9
REMARK    6  A    between atoms: C_9  and  O_10
REMARK    7  A    between atoms: C_9  and  C_11
REMARK    8  A    between atoms: C_11  and  C_12
REMARK                            x       y       z     vdW  Elec       q    Type
REMARK                         _______ _______ _______ _____ _____    ______ ____
ROOT
ATOM      1  C   UNL     1       5.940   4.538  17.905  0.00  0.00    +0.000 C 
ENDROOT
BRANCH   1   5
ATOM      2  C   UNL     1       1.715   3.810  18.250  0.00  0.00    +0.000 C 
ATOM      3  C   UNL     1       2.463   3.190  17.066  0.00  0.00    +0.000 C 
ATOM      4  C   UNL     1       3.984   3.251  17.242  0.00  0.00    +0.000 C 
ATOM      5  N   UNL     1       4.496   4.602  17.557  0.00  0.00    +0.000 NA
ATOM      6  C   UNL     1       3.766   5.193  18.693  0.00  0.00    +0.000 C 
ATOM      7  C   UNL     1       2.256   5.220  18.466  0.00  0.00    +0.000 C 
BRANCH   2   8
ATOM      8  O   UNL     1       1.884   2.967  19.398  0.00  0.00    +0.000 OA
BRANCH   8  10
ATOM      9  C   UNL     1       2.069   3.352  21.771  0.00  0.00    +0.000 C 
ATOM     10  C   UNL     1       1.173   3.429  20.547  0.00  0.00    +0.000 C 
ENDBRANCH   8  10
ENDBRANCH   2   8
ENDBRANCH   1   5
BRANCH   1  11
ATOM     11  C   UNL     1       6.910   5.219  16.901  0.00  0.00    +0.000 C 
BRANCH  11  12
ATOM     12  O   UNL     1       8.052   4.390  16.652  0.00  0.00    +0.000 OA
ATOM     13  H   UNL     1       8.720   4.935  16.202  0.00  0.00    +0.000 HD
ENDBRANCH  11  12
BRANCH  11  14
ATOM     14  C   UNL     1       6.254   5.500  15.540  0.00  0.00    +0.000 C 
BRANCH  14  15
ATOM     15  C   UNL     1       6.543   4.463  14.452  0.00  0.00    +0.000 C 
ATOM     16  C   UNL     1       5.309   3.970  13.702  0.00  0.00    +0.000 C 
ATOM     17  C   UNL     1       5.890   3.308  12.458  0.00  0.00    +0.000 C 
ATOM     18  C   UNL     1       7.179   4.068  12.150  0.00  0.00    +0.000 C 
ATOM     19  C   UNL     1       7.407   5.022  13.320  0.00  0.00    +0.000 C 
ENDBRANCH  14  15
ENDBRANCH  11  14
ENDBRANCH   1  11
TORSDOF 7
ENDMDL
MODEL 2
REMARK VINA RESULT:      -6.3      0.773      1.228
REMARK  Name = 
REMARK  8 active torsions:
REMARK  status: ('A' for Active; 'I' for Inactive)
REMARK    1  A    between atoms: C_1  and  C_2
REMARK    2  A    between atoms: C_2  and  O_3
REMARK    3  A    between atoms: O_3  and  C_4
REMARK    4  A    between atoms: N_7  and  C_8
REMARK    5  A    between atoms: C_8  and  C_9
REMARK    6  A    between atoms: C_9  and  O_10
REMARK    7  A    between atoms: C_9  and  C_11
REMARK    8  A    between atoms: C_11  and  C_12
REMARK                            x       y       z     vdW  Elec       q    Type
REMARK                         _______ _______ _______ _____ _____    ______ ____
ROOT
ATOM      1  C   UNL     1       5.811   4.831  17.854  0.00  0.00    +0.000 C 
ENDROOT
BRANCH   1   5
ATOM      2  C   UNL     1       1.589   4.280  18.463  0.00  0.00    +0.000 C 
ATOM      3  C   UNL     1       2.378   3.150  17.795  0.00  0.00    +0.000 C 
ATOM      4  C   UNL     1       3.893   3.336  17.937  0.00  0.00    +0.000 C 
ATOM      5  N   UNL     1       4.377   4.663  17.501  0.00  0.00    +0.000 NA
ATOM      6  C   UNL     1       3.607   5.744  18.142  0.00  0.00    +0.000 C 
ATOM      7  C   UNL     1       2.104   5.607  17.911  0.00  0.00    +0.000 C 
BRANCH   2   8
ATOM      8  O   UNL     1       1.738   4.173  19.885  0.00  0.00    +0.000 OA
BRANCH   8  10
ATOM      9  C   UNL     1       1.718   2.618  21.727  0.00  0.00    +0.000 C 
ATOM     10  C   UNL     1       1.038   3.061  20.444  0.00  0.00    +0.000 C 
ENDBRANCH   8  10
ENDBRANCH   2   8
ENDBRANCH   1   5
BRANCH   1  11
ATOM     11  C   UNL     1       6.818   4.698  16.678  0.00  0.00    +0.000 C 
BRANCH  11  12
ATOM     12  O   UNL     1       8.042   4.096  17.119  0.00  0.00    +0.000 OA
ATOM     13  H   UNL     1       7.875   3.146  17.240  0.00  0.00    +0.000 HD
ENDBRANCH  11  12
BRANCH  11  14
ATOM     14  C   UNL     1       6.279   3.830  15.530  0.00  0.00    +0.000 C 
BRANCH  14  15
ATOM     15  C   UNL     1       6.372   4.461  14.139  0.00  0.00    +0.000 C 
ATOM     16  C   UNL     1       7.701   5.149  13.842  0.00  0.00    +0.000 C 
ATOM     17  C   UNL     1       7.688   5.308  12.326  0.00  0.00    +0.000 C 
ATOM     18  C   UNL     1       6.874   4.129  11.794  0.00  0.00    +0.000 C 
ATOM     19  C   UNL     1       6.284   3.427  13.016  0.00  0.00    +0.000 C 
ENDBRANCH  14  15
ENDBRANCH  11  14
ENDBRANCH   1  11
TORSDOF 7
ENDMDL
MODEL 3
REMARK VINA RESULT:      -6.0      1.100      1.365
REMARK  Name = 
REMARK  8 active torsions:
REMARK  status: ('A' for Active; 'I' for Inactive)
REMARK    1  A    between atoms: C_1  and  C_2
REMARK    2  A    between atoms: C_2  and  O_3
REMARK    3  A    between atoms: O_3  and  C_4
REMARK    4  A    between atoms: N_7  and  C_8
REMARK    5  A    between atoms: C_8  and  C_9
REMARK    6  A    between atoms: C_9  and  O_10
REMARK    7  A    between atoms: C_9  and  C_11
REMARK    8  A    between atoms: C_11  and  C_12
REMARK                            x       y       z     vdW  Elec       q    Type
REMARK                         _______ _______ _______ _____ _____    ______ ____
ROOT
ATOM      1  C   UNL     1       5.506   3.909  16.314  0.00  0.00    +0.000 C 
ENDROOT
BRANCH   1   5
ATOM      2  C   UNL     1       2.263   5.349  18.747  0.00  0.00    +0.000 C 
ATOM      3  C   UNL     1       1.981   4.210  17.763  0.00  0.00    +0.000 C 
ATOM      4  C   UNL     1       3.267   3.585  17.211  0.00  0.00    +0.000 C 
ATOM      5  N   UNL     1       4.214   4.568  16.642  0.00  0.00    +0.000 NA
ATOM      6  C   UNL     1       4.474   5.664  17.592  0.00  0.00    +0.000 C 
ATOM      7  C   UNL     1       3.191   6.348  18.060  0.00  0.00    +0.000 C 
BRANCH   2   8
ATOM      8  O   UNL     1       2.827   4.798  19.945  0.00  0.00    +0.000 OA
BRANCH   8  10
ATOM      9  C   UNL     1       2.385   2.978  21.464  0.00  0.00    +0.000 C 
ATOM     10  C   UNL     1       1.848   4.248  20.828  0.00  0.00    +0.000 C 
ENDBRANCH   8  10
ENDBRANCH   2   8
ENDBRANCH   1   5
BRANCH   1  11
ATOM     11  C   UNL     1       6.671   4.860  15.925  0.00  0.00    +0.000 C 
BRANCH  11  12
ATOM     12  O   UNL     1       7.910   4.407  16.485  0.00  0.00    +0.000 OA
ATOM     13  H   UNL     1       7.769   3.505  16.820  0.00  0.00    +0.000 HD
ENDBRANCH  11  12
BRANCH  11  14
ATOM     14  C   UNL     1       6.875   4.958  14.405  0.00  0.00    +0.000 C 
BRANCH  14  15
ATOM     15  C   UNL     1       6.249   3.825  13.589  0.00  0.00    +0.000 C 
ATOM     16  C   UNL     1       4.912   4.174  12.941  0.00  0.00    +0.000 C 
ATOM     17  C   UNL     1       4.728   3.080  11.896  0.00  0.00    +0.000 C 
ATOM     18  C   UNL     1       6.138   2.688  11.455  0.00  0.00    +0.000 C 
ATOM     19  C   UNL     1       7.100   3.427  12.383  0.00  0.00    +0.000 C 
ENDBRANCH  14  15
ENDBRANCH  11  14
ENDBRANCH   1  11
TORSDOF 7
ENDMDL
MODEL 4
REMARK VINA RESULT:      -5.9      1.480      1.579
REMARK  Name = 
REMARK  8 active torsions:
REMARK  status: ('A' for Active; 'I' for Inactive)
REMARK    1  A    between atoms: C_1  and  C_2
REMARK    2  A    between atoms: C_2  and  O_3
REMARK    3  A    between atoms: O_3  and  C_4
REMARK    4  A    between atoms: N_7  and  C_8
REMARK    5  A    between atoms: C_8  and  C_9
REMARK    6  A    between atoms: C_9  and  O_10
REMARK    7  A    between atoms: C_9  and  C_11
REMARK    8  A    between atoms: C_11  and  C_12
REMARK                            x       y       z     vdW  Elec       q    Type
REMARK                         _______ _______ _______ _____ _____    ______ ____
ROOT
ATOM      1  C   UNL     1       5.054   6.223  17.326  0.00  0.00    +0.000 C 
ENDROOT
BRANCH   1   5
ATOM      2  C   UNL     1       1.806   4.484  19.547  0.00  0.00    +0.000 C 
ATOM      3  C   UNL     1       1.810   4.325  18.024  0.00  0.00    +0.000 C 
ATOM      4  C   UNL     1       3.161   4.695  17.403  0.00  0.00    +0.000 C 
ATOM      5  N   UNL     1       3.661   6.026  17.808  0.00  0.00    +0.000 NA
ATOM      6  C   UNL     1       3.647   6.173  19.274  0.00  0.00    +0.000 C 
ATOM      7  C   UNL     1       2.271   5.900  19.876  0.00  0.00    +0.000 C 
BRANCH   2   8
ATOM      8  O   UNL     1       2.649   3.474  20.120  0.00  0.00    +0.000 OA
BRANCH   8  10
ATOM      9  C   UNL     1       1.318   2.521  21.891  0.00  0.00    +0.000 C 
ATOM     10  C   UNL     1       1.934   2.304  20.521  0.00  0.00    +0.000 C 
ENDBRANCH   8  10
ENDBRANCH   2   8
ENDBRANCH   1   5
BRANCH   1  11
ATOM     11  C   UNL     1       5.308   5.881  15.833  0.00  0.00    +0.000 C 
BRANCH  11  12
ATOM     12  O   UNL     1       5.235   7.059  15.019  0.00  0.00    +0.000 OA
ATOM     13  H   UNL     1       4.822   6.808  14.175  0.00  0.00    +0.000 HD
ENDBRANCH  11  12
BRANCH  11  14
ATOM     14  C   UNL     1       6.692   5.257  15.594  0.00  0.00    +0.000 C 
BRANCH  14  15
ATOM     15  C   UNL     1       6.782   4.313  14.393  0.00  0.00    +0.000 C 
ATOM     16  C   UNL     1       5.434   3.919  13.793  0.00  0.00    +0.000 C 
ATOM     17  C   UNL     1       5.805   3.355  12.427  0.00  0.00    +0.000 C 
ATOM     18  C   UNL     1       7.065   4.105  11.998  0.00  0.00    +0.000 C 
ATOM     19  C   UNL     1       7.495   4.946  13.197  0.00  0.00    +0.000 C 
ENDBRANCH  14  15
ENDBRANCH  11  14
ENDBRANCH   1  11
TORSDOF 7
ENDMDL
MODEL 5
REMARK VINA RESULT:      -5.9      1.770      6.808
REMARK  Name = 
REMARK  8 active torsions:
REMARK  status: ('A' for Active; 'I' for Inactive)
REMARK    1  A    between atoms: C_1  and  C_2
REMARK    2  A    between atoms: C_2  and  O_3
REMARK    3  A    between atoms: O_3  and  C_4
REMARK    4  A    between atoms: N_7  and  C_8
REMARK    5  A    between atoms: C_8  and  C_9
REMARK    6  A    between atoms: C_9  and  O_10
REMARK    7  A    between atoms: C_9  and  C_11
REMARK    8  A    between atoms: C_11  and  C_12
REMARK                            x       y       z     vdW  Elec       q    Type
REMARK                         _______ _______ _______ _____ _____    ______ ____
ROOT
ATOM      1  C   UNL     1       3.825   6.779  17.673  0.00  0.00    +0.000 C 
ENDROOT
BRANCH   1   5
ATOM      2  C   UNL     1       7.045   4.726  15.693  0.00  0.00    +0.000 C 
ATOM      3  C   UNL     1       5.934   3.887  16.331  0.00  0.00    +0.000 C 
ATOM      4  C   UNL     1       4.709   4.730  16.703  0.00  0.00    +0.000 C 
ATOM      5  N   UNL     1       5.027   5.918  17.525  0.00  0.00    +0.000 NA
ATOM      6  C   UNL     1       6.102   6.715  16.908  0.00  0.00    +0.000 C 
ATOM      7  C   UNL     1       7.357   5.889  16.632  0.00  0.00    +0.000 C 
BRANCH   2   8
ATOM      8  O   UNL     1       6.614   5.159  14.396  0.00  0.00    +0.000 OA
BRANCH   8  10
ATOM      9  C   UNL     1       7.082   4.242  12.215  0.00  0.00    +0.000 C 
ATOM     10  C   UNL     1       6.311   4.077  13.513  0.00  0.00    +0.000 C 
ENDBRANCH   8  10
ENDBRANCH   2   8
ENDBRANCH   1   5
BRANCH   1  11
ATOM     11  C   UNL     1       2.866   6.409  18.838  0.00  0.00    +0.000 C 
BRANCH  11  12
ATOM     12  O   UNL     1       2.142   7.561  19.290  0.00  0.00    +0.000 OA
ATOM     13  H   UNL     1       2.581   8.347  18.924  0.00  0.00    +0.000 HD
ENDBRANCH  11  12
BRANCH  11  14
ATOM     14  C   UNL     1       1.823   5.354  18.437  0.00  0.00    +0.000 C 
BRANCH  14  15
ATOM     15  C   UNL     1       1.883   4.046  19.229  0.00  0.00    +0.000 C 
ATOM     16  C   UNL     1       3.199   3.810  19.965  0.00  0.00    +0.000 C 
ATOM     17  C   UNL     1       2.856   2.712  20.965  0.00  0.00    +0.000 C 
ATOM     18  C   UNL     1       1.380   2.914  21.309  0.00  0.00    +0.000 C 
ATOM     19  C   UNL     1       0.863   4.000  20.368  0.00  0.00    +0.000 C 
ENDBRANCH  14  15
ENDBRANCH  11  14
ENDBRANCH   1  11
TORSDOF 7
ENDMDL
MODEL 6
REMARK VINA RESULT:      -5.8      0.952      1.327
REMARK  Name = 
REMARK  8 active torsions:
REMARK  status: ('A' for Active; 'I' for Inactive)
REMARK    1  A    between atoms: C_1  and  C_2
REMARK    2  A    between atoms: C_2  and  O_3
REMARK    3  A    between atoms: O_3  and  C_4
REMARK    4  A    between atoms: N_7  and  C_8
REMARK    5  A    between atoms: C_8  and  C_9
REMARK    6  A    between atoms: C_9  and  O_10
REMARK    7  A    between atoms: C_9  and  C_11
REMARK    8  A    between atoms: C_11  and  C_12
REMARK                            x       y       z     vdW  Elec       q    Type
REMARK                         _______ _______ _______ _____ _____    ______ ____
ROOT
ATOM      1  C   UNL     1       5.779   5.297  17.576  0.00  0.00    +0.000 C 
ENDROOT
BRANCH   1   5
ATOM      2  C   UNL     1       1.789   4.143  18.697  0.00  0.00    +0.000 C 
ATOM      3  C   UNL     1       2.348   3.623  17.369  0.00  0.00    +0.000 C 
ATOM      4  C   UNL     1       3.861   3.833  17.253  0.00  0.00    +0.000 C 
ATOM      5  N   UNL     1       4.295   5.222  17.514  0.00  0.00    +0.000 NA
ATOM      6  C   UNL     1       3.747   5.717  18.789  0.00  0.00    +0.000 C 
ATOM      7  C   UNL     1       2.226   5.596  18.858  0.00  0.00    +0.000 C 
BRANCH   2   8
ATOM      8  O   UNL     1       2.258   3.300  19.759  0.00  0.00    +0.000 OA
BRANCH   8  10
ATOM      9  C   UNL     1       1.431   2.500  21.878  0.00  0.00    +0.000 C 
ATOM     10  C   UNL     1       1.807   3.716  21.050  0.00  0.00    +0.000 C 
ENDBRANCH   8  10
ENDBRANCH   2   8
ENDBRANCH   1   5
BRANCH   1  11
ATOM     11  C   UNL     1       6.469   6.044  16.403  0.00  0.00    +0.000 C 
BRANCH  11  12
ATOM     12  O   UNL     1       7.376   7.040  16.894  0.00  0.00    +0.000 OA
ATOM     13  H   UNL     1       8.279   6.742  16.689  0.00  0.00    +0.000 HD
ENDBRANCH  11  12
BRANCH  11  14
ATOM     14  C   UNL     1       7.280   5.106  15.496  0.00  0.00    +0.000 C 
BRANCH  14  15
ATOM     15  C   UNL     1       6.720   4.920  14.084  0.00  0.00    +0.000 C 
ATOM     16  C   UNL     1       7.776   4.883  12.982  0.00  0.00    +0.000 C 
ATOM     17  C   UNL     1       7.028   4.291  11.794  0.00  0.00    +0.000 C 
ATOM     18  C   UNL     1       5.975   3.359  12.391  0.00  0.00    +0.000 C 
ATOM     19  C   UNL     1       6.015   3.575  13.902  0.00  0.00    +0.000 C 
ENDBRANCH  14  15
ENDBRANCH  11  14
ENDBRANCH   1  11
TORSDOF 7
ENDMDL
MODEL 7
REMARK VINA RESULT:      -5.8      1.535      1.904
REMARK  Name = 
REMARK  8 active torsions:
REMARK  status: ('A' for Active; 'I' for Inactive)
REMARK    1  A    between atoms: C_1  and  C_2
REMARK    2  A    between atoms: C_2  and  O_3
REMARK    3  A    between atoms: O_3  and  C_4
REMARK    4  A    between atoms: N_7  and  C_8
REMARK    5  A    between atoms: C_8  and  C_9
REMARK    6  A    between atoms: C_9  and  O_10
REMARK    7  A    between atoms: C_9  and  C_11
REMARK    8  A    between atoms: C_11  and  C_12
REMARK                            x       y       z     vdW  Elec       q    Type
REMARK                         _______ _______ _______ _____ _____    ______ ____
ROOT
ATOM      1  C   UNL     1       4.615   5.474  17.150  0.00  0.00    +0.000 C 
ENDROOT
BRANCH   1   5
ATOM      2  C   UNL     1       3.118   2.183  19.481  0.00  0.00    +0.000 C 
ATOM      3  C   UNL     1       4.632   2.404  19.428  0.00  0.00    +0.000 C 
ATOM      4  C   UNL     1       5.001   3.774  18.849  0.00  0.00    +0.000 C 
ATOM      5  N   UNL     1       4.368   4.062  17.544  0.00  0.00    +0.000 NA
ATOM      6  C   UNL     1       2.912   3.839  17.601  0.00  0.00    +0.000 C 
ATOM      7  C   UNL     1       2.554   2.436  18.085  0.00  0.00    +0.000 C 
BRANCH   2   8
ATOM      8  O   UNL     1       2.556   3.052  20.473  0.00  0.00    +0.000 OA
BRANCH   8  10
ATOM      9  C   UNL     1       0.728   4.624  20.410  0.00  0.00    +0.000 C 
ATOM     10  C   UNL     1       1.134   3.161  20.388  0.00  0.00    +0.000 C 
ENDBRANCH   8  10
ENDBRANCH   2   8
ENDBRANCH   1   5
BRANCH   1  11
ATOM     11  C   UNL     1       5.167   5.690  15.715  0.00  0.00    +0.000 C 
BRANCH  11  12
ATOM     12  O   UNL     1       5.232   7.087  15.397  0.00  0.00    +0.000 OA
ATOM     13  H   UNL     1       4.718   7.565  16.069  0.00  0.00    +0.000 HD
ENDBRANCH  11  12
BRANCH  11  14
ATOM     14  C   UNL     1       6.583   5.122  15.531  0.00  0.00    +0.000 C 
BRANCH  14  15
ATOM     15  C   UNL     1       6.775   4.240  14.295  0.00  0.00    +0.000 C 
ATOM     16  C   UNL     1       5.477   3.795  13.625  0.00  0.00    +0.000 C 
ATOM     17  C   UNL     1       5.932   3.315  12.253  0.00  0.00    +0.000 C 
ATOM     18  C   UNL     1       7.160   4.156  11.906  0.00  0.00    +0.000 C 
ATOM     19  C   UNL     1       7.494   4.967  13.157  0.00  0.00    +0.000 C 
ENDBRANCH  14  15
ENDBRANCH  11  14
ENDBRANCH   1  11
TORSDOF 7
ENDMDL
MODEL 8
REMARK VINA RESULT:      -5.8      2.362      6.542
REMARK  Name = 
REMARK  8 active torsions:
REMARK  status: ('A' for Active; 'I' for Inactive)
REMARK    1  A    between atoms: C_1  and  C_2
REMARK    2  A    between atoms: C_2  and  O_3
REMARK    3  A    between atoms: O_3  and  C_4
REMARK    4  A    between atoms: N_7  and  C_8
REMARK    5  A    between atoms: C_8  and  C_9
REMARK    6  A    between atoms: C_9  and  O_10
REMARK    7  A    between atoms: C_9  and  C_11
REMARK    8  A    between atoms: C_11  and  C_12
REMARK                            x       y       z     vdW  Elec       q    Type
REMARK                         _______ _______ _______ _____ _____    ______ ____
ROOT
ATOM      1  C   UNL     1       4.013   3.950  18.950  0.00  0.00    +0.000 C 
ENDROOT
BRANCH   1   5
ATOM      2  C   UNL     1       7.027   5.750  16.464  0.00  0.00    +0.000 C 
ATOM      3  C   UNL     1       5.747   5.238  15.796  0.00  0.00    +0.000 C 
ATOM      4  C   UNL     1       4.643   4.929  16.813  0.00  0.00    +0.000 C 
ATOM      5  N   UNL     1       5.073   4.038  17.912  0.00  0.00    +0.000 NA
ATOM      6  C   UNL     1       6.308   4.534  18.543  0.00  0.00    +0.000 C 
ATOM      7  C   UNL     1       7.436   4.743  17.536  0.00  0.00    +0.000 C 
BRANCH   2   8
ATOM      8  O   UNL     1       6.780   7.059  16.995  0.00  0.00    +0.000 OA
BRANCH   8  10
ATOM      9  C   UNL     1       7.987   9.013  17.730  0.00  0.00    +0.000 C 
ATOM     10  C   UNL     1       7.808   7.513  17.878  0.00  0.00    +0.000 C 
ENDBRANCH   8  10
ENDBRANCH   2   8
ENDBRANCH   1   5
BRANCH   1  11
ATOM     11  C   UNL     1       2.710   4.743  18.658  0.00  0.00    +0.000 C 
BRANCH  11  12
ATOM     12  O   UNL     1       1.598   3.855  18.485  0.00  0.00    +0.000 OA
ATOM     13  H   UNL     1       1.818   3.019  18.929  0.00  0.00    +0.000 HD
ENDBRANCH  11  12
BRANCH  11  14
ATOM     14  C   UNL     1       2.338   5.713  19.791  0.00  0.00    +0.000 C 
BRANCH  14  15
ATOM     15  C   UNL     1       2.468   7.198  19.446  0.00  0.00    +0.000 C 
ATOM     16  C   UNL     1       2.123   7.546  18.000  0.00  0.00    +0.000 C 
ATOM     17  C   UNL     1       1.930   9.057  18.035  0.00  0.00    +0.000 C 
ATOM     18  C   UNL     1       1.410   9.375  19.436  0.00  0.00    +0.000 C 
ATOM     19  C   UNL     1       1.492   8.074  20.232  0.00  0.00    +0.000 C 
ENDBRANCH  14  15
ENDBRANCH  11  14
ENDBRANCH   1  11
TORSDOF 7
ENDMDL
MODEL 9
REMARK VINA RESULT:      -5.7      2.256      6.587
REMARK  Name = 
REMARK  8 active torsions:
REMARK  status: ('A' for Active; 'I' for Inactive)
REMARK    1  A    between atoms: C_1  and  C_2
REMARK    2  A    between atoms: C_2  and  O_3
REMARK    3  A    between atoms: O_3  and  C_4
REMARK    4  A    between atoms: N_7  and  C_8
REMARK    5  A    between atoms: C_8  and  C_9
REMARK    6  A    between atoms: C_9  and  O_10
REMARK    7  A    between atoms: C_9  and  C_11
REMARK    8  A    between atoms: C_11  and  C_12
REMARK                            x       y       z     vdW  Elec       q    Type
REMARK                         _______ _______ _______ _____ _____    ______ ____
ROOT
ATOM      1  C   UNL     1       3.867   3.740  16.724  0.00  0.00    +0.000 C 
ENDROOT
BRANCH   1   5
ATOM      2  C   UNL     1       7.427   5.892  17.820  0.00  0.00    +0.000 C 
ATOM      3  C   UNL     1       7.583   4.581  17.043  0.00  0.00    +0.000 C 
ATOM      4  C   UNL     1       6.258   4.100  16.442  0.00  0.00    +0.000 C 
ATOM      5  N   UNL     1       5.151   4.020  17.419  0.00  0.00    +0.000 NA
ATOM      6  C   UNL     1       5.013   5.282  18.168  0.00  0.00    +0.000 C 
ATOM      7  C   UNL     1       6.314   5.702  18.848  0.00  0.00    +0.000 C 
BRANCH   2   8
ATOM      8  O   UNL     1       7.154   6.952  16.894  0.00  0.00    +0.000 OA
BRANCH   8  10
ATOM      9  C   UNL     1       8.455   8.440  18.274  0.00  0.00    +0.000 C 
ATOM     10  C   UNL     1       7.165   8.246  17.498  0.00  0.00    +0.000 C 
ENDBRANCH   8  10
ENDBRANCH   2   8
ENDBRANCH   1   5
BRANCH   1  11
ATOM     11  C   UNL     1       3.145   2.429  17.137  0.00  0.00    +0.000 C 
BRANCH  11  12
ATOM     12  O   UNL     1       4.046   1.540  17.811  0.00  0.00    +0.000 OA
ATOM     13  H   UNL     1       4.352   0.884  17.162  0.00  0.00    +0.000 HD
ENDBRANCH  11  12
BRANCH  11  14
ATOM     14  C   UNL     1       1.963   2.675  18.088  0.00  0.00    +0.000 C 
BRANCH  14  15
ATOM     15  C   UNL     1       2.344   3.185  19.480  0.00  0.00    +0.000 C 
ATOM     16  C   UNL     1       1.856   4.597  19.794  0.00  0.00    +0.000 C 
ATOM     17  C   UNL     1       1.989   4.690  21.309  0.00  0.00    +0.000 C 
ATOM     18  C   UNL     1       1.773   3.270  21.831  0.00  0.00    +0.000 C 
ATOM     19  C   UNL     1       1.706   2.365  20.603  0.00  0.00    +0.000 C 
ENDBRANCH  14  15
ENDBRANCH  11  14
ENDBRANCH   1  11
TORSDOF 7
ENDMDL
