MODEL 1
REMARK VINA RESULT:      -7.8      0.000      0.000
REMARK  Name = 
REMARK  9 active torsions:
REMARK  status: ('A' for Active; 'I' for Inactive)
REMARK    1  A    between atoms: C_1  and  C_2
REMARK    2  A    between atoms: N_4  and  C_5
REMARK    3  A    between atoms: C_5  and  C_6
REMARK    4  A    between atoms: N_8  and  N_9
REMARK    5  A    between atoms: N_15  and  C_16
REMARK    6  A    between atoms: N_24  and  C_25
REMARK    7  A    between atoms: C_25  and  C_26
REMARK    8  A    between atoms: C_26  and  C_27
REMARK    9  A    between atoms: C_27  and  N_28
REMARK                            x       y       z     vdW  Elec       q    Type
REMARK                         _______ _______ _______ _____ _____    ______ ____
ROOT
ATOM      1  C   UNL     1       1.766   8.192  19.845  0.00  0.00    +0.000 C 
ATOM      2  O   UNL     1       2.023   8.626  18.724  0.00  0.00    +0.000 OA
ATOM      3  N   UNL     1       2.227   6.983  20.344  0.00  0.00    +0.000 N 
ATOM      4  H   UNL     1       1.984   6.684  21.287  0.00  0.00    +0.000 HD
ENDROOT
BRANCH   3   5
ATOM      5  N   UNL     1       2.985   6.158  19.557  0.00  0.00    +0.000 NA
ATOM      6  C   UNL     1       2.736   4.888  19.587  0.00  0.00    +0.000 C 
ATOM      7  S   UNL     1       1.455   4.173  20.548  0.00  0.00    +0.000 S 
ATOM      8  C   UNL     1       1.849   2.506  20.004  0.00  0.00    +0.000 C 
ATOM      9  C   UNL     1       3.017   2.614  19.063  0.00  0.00    +0.000 C 
ATOM     10  O   UNL     1       3.458   1.621  18.488  0.00  0.00    +0.000 OA
ATOM     11  N   UNL     1       3.450   3.923  18.913  0.00  0.00    +0.000 N 
BRANCH  11  12
ATOM     12  C   UNL     1       4.573   4.217  18.086  0.00  0.00    +0.000 A 
ATOM     13  C   UNL     1       5.850   4.393  18.633  0.00  0.00    +0.000 A 
ATOM     14  C   UNL     1       6.929   4.745  17.815  0.00  0.00    +0.000 A 
ATOM     15  C   UNL     1       6.754   4.877  16.439  0.00  0.00    +0.000 A 
ATOM     16  C   UNL     1       5.496   4.673  15.877  0.00  0.00    +0.000 A 
ATOM     17  C   UNL     1       4.409   4.365  16.698  0.00  0.00    +0.000 A 
ENDBRANCH  11  12
ENDBRANCH   3   5
BRANCH   1  18
ATOM     18  C   UNL     1       1.034   9.047  20.878  0.00  0.00    +0.000 C 
BRANCH  18  22
ATOM     19  C   UNL     1      -2.534  11.373  18.479  0.00  0.00    +0.000 C 
ATOM     20  C   UNL     1      -1.291  11.099  19.259  0.00  0.00    +0.000 A 
ATOM     21  N   UNL     1      -0.803   9.903  19.429  0.00  0.00    +0.000 NA
ATOM     22  N   UNL     1       0.290  10.106  20.237  0.00  0.00    +0.000 N 
ATOM     23  C   UNL     1       0.372  11.449  20.602  0.00  0.00    +0.000 A 
ATOM     24  O   UNL     1       1.145  11.950  21.398  0.00  0.00    +0.000 OA
ATOM     25  N   UNL     1      -0.588  12.079  19.858  0.00  0.00    +0.000 N 
BRANCH  25  26
ATOM     26  C   UNL     1      -0.739  13.524  19.809  0.00  0.00    +0.000 C 
BRANCH  26  27
ATOM     27  C   UNL     1      -0.014  14.140  18.604  0.00  0.00    +0.000 C 
BRANCH  27  28
ATOM     28  C   UNL     1       0.867  15.323  18.989  0.00  0.00    +0.000 C 
BRANCH  28  29
ATOM     29  N   UNL     1       2.247  15.135  18.588  0.00  0.00    +0.000 N 
ATOM     30  C   UNL     1       3.032  14.053  18.871  0.00  0.00    +0.000 A 
ATOM     31  C   UNL     1       4.236  14.323  18.264  0.00  0.00    +0.000 A 
ATOM     32  N   UNL     1       4.195  15.534  17.623  0.00  0.00    +0.000 NA
ATOM     33  C   UNL     1       2.988  16.004  17.844  0.00  0.00    +0.000 A 
ENDBRANCH  28  29
ENDBRANCH  27  28
ENDBRANCH  26  27
ENDBRANCH  25  26
ENDBRANCH  18  22
ENDBRANCH   1  18
TORSDOF 8
ENDMDL
MODEL 2
REMARK VINA RESULT:      -7.8      2.435      4.350
REMARK  Name = 
REMARK  9 active torsions:
REMARK  status: ('A' for Active; 'I' for Inactive)
REMARK    1  A    between atoms: C_1  and  C_2
REMARK    2  A    between atoms: N_4  and  C_5
REMARK    3  A    between atoms: C_5  and  C_6
REMARK    4  A    between atoms: N_8  and  N_9
REMARK    5  A    between atoms: N_15  and  C_16
REMARK    6  A    between atoms: N_24  and  C_25
REMARK    7  A    between atoms: C_25  and  C_26
REMARK    8  A    between atoms: C_26  and  C_27
REMARK    9  A    between atoms: C_27  and  N_28
REMARK                            x       y       z     vdW  Elec       q    Type
REMARK                         _______ _______ _______ _____ _____    ______ ____
ROOT
ATOM      1  C   UNL     1       1.817   8.005  19.864  0.00  0.00    +0.000 C 
ATOM      2  O   UNL     1       2.122   8.490  18.776  0.00  0.00    +0.000 OA
ATOM      3  N   UNL     1       2.236   6.763  20.314  0.00  0.00    +0.000 N 
ATOM      4  H   UNL     1       1.954   6.421  21.232  0.00  0.00    +0.000 HD
ENDROOT
BRANCH   3   5
ATOM      5  N   UNL     1       3.005   5.963  19.513  0.00  0.00    +0.000 NA
ATOM      6  C   UNL     1       2.779   4.688  19.526  0.00  0.00    +0.000 C 
ATOM      7  S   UNL     1       1.517   3.936  20.483  0.00  0.00    +0.000 S 
ATOM      8  C   UNL     1       1.939   2.284  19.914  0.00  0.00    +0.000 C 
ATOM      9  C   UNL     1       3.099   2.427  18.969  0.00  0.00    +0.000 C 
ATOM     10  O   UNL     1       3.556   1.450  18.378  0.00  0.00    +0.000 OA
ATOM     11  N   UNL     1       3.507   3.746  18.835  0.00  0.00    +0.000 N 
BRANCH  11  12
ATOM     12  C   UNL     1       4.620   4.072  18.007  0.00  0.00    +0.000 A 
ATOM     13  C   UNL     1       4.513   4.066  16.611  0.00  0.00    +0.000 A 
ATOM     14  C   UNL     1       5.631   4.326  15.812  0.00  0.00    +0.000 A 
ATOM     15  C   UNL     1       6.856   4.640  16.399  0.00  0.00    +0.000 A 
ATOM     16  C   UNL     1       6.970   4.681  17.786  0.00  0.00    +0.000 A 
ATOM     17  C   UNL     1       5.864   4.380  18.584  0.00  0.00    +0.000 A 
ENDBRANCH  11  12
ENDBRANCH   3   5
BRANCH   1  18
ATOM     18  C   UNL     1       1.066   8.822  20.914  0.00  0.00    +0.000 C 
BRANCH  18  22
ATOM     19  C   UNL     1      -1.866  11.304  17.891  0.00  0.00    +0.000 C 
ATOM     20  C   UNL     1      -0.962  10.958  19.027  0.00  0.00    +0.000 A 
ATOM     21  N   UNL     1      -0.279   9.852  19.087  0.00  0.00    +0.000 NA
ATOM     22  N   UNL     1       0.358   9.922  20.302  0.00  0.00    +0.000 N 
ATOM     23  C   UNL     1      -0.045  11.067  20.987  0.00  0.00    +0.000 A 
ATOM     24  O   UNL     1       0.233  11.378  22.131  0.00  0.00    +0.000 OA
ATOM     25  N   UNL     1      -0.799  11.772  20.089  0.00  0.00    +0.000 N 
BRANCH  25  26
ATOM     26  C   UNL     1      -1.289  13.118  20.339  0.00  0.00    +0.000 C 
BRANCH  26  27
ATOM     27  C   UNL     1      -2.679  13.115  20.990  0.00  0.00    +0.000 C 
BRANCH  27  28
ATOM     28  C   UNL     1      -2.623  13.333  22.499  0.00  0.00    +0.000 C 
BRANCH  28  29
ATOM     29  N   UNL     1      -3.881  13.024  23.147  0.00  0.00    +0.000 N 
ATOM     30  C   UNL     1      -5.130  13.295  22.662  0.00  0.00    +0.000 A 
ATOM     31  C   UNL     1      -5.992  12.796  23.611  0.00  0.00    +0.000 A 
ATOM     32  N   UNL     1      -5.297  12.231  24.648  0.00  0.00    +0.000 NA
ATOM     33  C   UNL     1      -4.029  12.391  24.346  0.00  0.00    +0.000 A 
ENDBRANCH  28  29
ENDBRANCH  27  28
ENDBRANCH  26  27
ENDBRANCH  25  26
ENDBRANCH  18  22
ENDBRANCH   1  18
TORSDOF 8
ENDMDL
MODEL 3
REMARK VINA RESULT:      -7.8      5.512     10.833
REMARK  Name = 
REMARK  9 active torsions:
REMARK  status: ('A' for Active; 'I' for Inactive)
REMARK    1  A    between atoms: C_1  and  C_2
REMARK    2  A    between atoms: N_4  and  C_5
REMARK    3  A    between atoms: C_5  and  C_6
REMARK    4  A    between atoms: N_8  and  N_9
REMARK    5  A    between atoms: N_15  and  C_16
REMARK    6  A    between atoms: N_24  and  C_25
REMARK    7  A    between atoms: C_25  and  C_26
REMARK    8  A    between atoms: C_26  and  C_27
REMARK    9  A    between atoms: C_27  and  N_28
REMARK                            x       y       z     vdW  Elec       q    Type
REMARK                         _______ _______ _______ _____ _____    ______ ____
ROOT
ATOM      1  C   UNL     1       8.061   8.853  18.155  0.00  0.00    +0.000 C 
ATOM      2  O   UNL     1       7.065   9.160  17.502  0.00  0.00    +0.000 OA
ATOM      3  N   UNL     1       8.886   9.761  18.801  0.00  0.00    +0.000 N 
ATOM      4  H   UNL     1       9.693   9.441  19.334  0.00  0.00    +0.000 HD
ENDROOT
BRANCH   3   5
ATOM      5  N   UNL     1       8.645  11.105  18.698  0.00  0.00    +0.000 NA
ATOM      6  C   UNL     1       9.650  11.889  18.470  0.00  0.00    +0.000 C 
ATOM      7  S   UNL     1      11.293  11.320  18.246  0.00  0.00    +0.000 S 
ATOM      8  C   UNL     1      11.938  12.982  18.017  0.00  0.00    +0.000 C 
ATOM      9  C   UNL     1      10.775  13.927  18.140  0.00  0.00    +0.000 C 
ATOM     10  O   UNL     1      10.920  15.135  17.963  0.00  0.00    +0.000 OA
ATOM     11  N   UNL     1       9.587  13.263  18.409  0.00  0.00    +0.000 N 
BRANCH  11  12
ATOM     12  C   UNL     1       8.380  13.998  18.596  0.00  0.00    +0.000 A 
ATOM     13  C   UNL     1       8.130  14.691  19.787  0.00  0.00    +0.000 A 
ATOM     14  C   UNL     1       6.913  15.354  19.979  0.00  0.00    +0.000 A 
ATOM     15  C   UNL     1       5.955  15.372  18.967  0.00  0.00    +0.000 A 
ATOM     16  C   UNL     1       6.204  14.714  17.766  0.00  0.00    +0.000 A 
ATOM     17  C   UNL     1       7.400  14.015  17.589  0.00  0.00    +0.000 A 
ENDBRANCH  11  12
ENDBRANCH   3   5
BRANCH   1  18
ATOM     18  C   UNL     1       8.391   7.393  18.460  0.00  0.00    +0.000 C 
BRANCH  18  22
ATOM     19  C   UNL     1       6.333   4.658  14.970  0.00  0.00    +0.000 C 
ATOM     20  C   UNL     1       6.636   5.282  16.292  0.00  0.00    +0.000 A 
ATOM     21  N   UNL     1       7.436   6.300  16.435  0.00  0.00    +0.000 NA
ATOM     22  N   UNL     1       7.468   6.505  17.793  0.00  0.00    +0.000 N 
ATOM     23  C   UNL     1       6.726   5.520  18.443  0.00  0.00    +0.000 A 
ATOM     24  O   UNL     1       6.638   5.335  19.644  0.00  0.00    +0.000 OA
ATOM     25  N   UNL     1       6.107   4.823  17.442  0.00  0.00    +0.000 N 
BRANCH  25  26
ATOM     26  C   UNL     1       5.102   3.799  17.684  0.00  0.00    +0.000 C 
BRANCH  26  27
ATOM     27  C   UNL     1       3.720   4.403  17.969  0.00  0.00    +0.000 C 
BRANCH  27  28
ATOM     28  C   UNL     1       2.661   3.342  18.252  0.00  0.00    +0.000 C 
BRANCH  28  29
ATOM     29  N   UNL     1       2.395   3.194  19.669  0.00  0.00    +0.000 N 
ATOM     30  C   UNL     1       1.255   3.573  20.321  0.00  0.00    +0.000 A 
ATOM     31  C   UNL     1       1.463   3.208  21.632  0.00  0.00    +0.000 A 
ATOM     32  N   UNL     1       2.692   2.620  21.782  0.00  0.00    +0.000 NA
ATOM     33  C   UNL     1       3.233   2.634  20.586  0.00  0.00    +0.000 A 
ENDBRANCH  28  29
ENDBRANCH  27  28
ENDBRANCH  26  27
ENDBRANCH  25  26
ENDBRANCH  18  22
ENDBRANCH   1  18
TORSDOF 8
ENDMDL
MODEL 4
REMARK VINA RESULT:      -7.8      5.142     10.605
REMARK  Name = 
REMARK  9 active torsions:
REMARK  status: ('A' for Active; 'I' for Inactive)
REMARK    1  A    between atoms: C_1  and  C_2
REMARK    2  A    between atoms: N_4  and  C_5
REMARK    3  A    between atoms: C_5  and  C_6
REMARK    4  A    between atoms: N_8  and  N_9
REMARK    5  A    between atoms: N_15  and  C_16
REMARK    6  A    between atoms: N_24  and  C_25
REMARK    7  A    between atoms: C_25  and  C_26
REMARK    8  A    between atoms: C_26  and  C_27
REMARK    9  A    between atoms: C_27  and  N_28
REMARK                            x       y       z     vdW  Elec       q    Type
REMARK                         _______ _______ _______ _____ _____    ______ ____
ROOT
ATOM      1  C   UNL     1       7.983   8.789  18.058  0.00  0.00    +0.000 C 
ATOM      2  O   UNL     1       6.959   9.083  17.445  0.00  0.00    +0.000 OA
ATOM      3  N   UNL     1       8.812   9.705  18.686  0.00  0.00    +0.000 N 
ATOM      4  H   UNL     1       9.644   9.395  19.186  0.00  0.00    +0.000 HD
ENDROOT
BRANCH   3   5
ATOM      5  N   UNL     1       8.542  11.045  18.609  0.00  0.00    +0.000 NA
ATOM      6  C   UNL     1       9.516  11.849  18.326  0.00  0.00    +0.000 C 
ATOM      7  S   UNL     1      11.152  11.313  17.995  0.00  0.00    +0.000 S 
ATOM      8  C   UNL     1      11.751  12.988  17.740  0.00  0.00    +0.000 C 
ATOM      9  C   UNL     1      10.581  13.910  17.943  0.00  0.00    +0.000 C 
ATOM     10  O   UNL     1      10.693  15.121  17.768  0.00  0.00    +0.000 OA
ATOM     11  N   UNL     1       9.424  13.222  18.280  0.00  0.00    +0.000 N 
BRANCH  11  12
ATOM     12  C   UNL     1       8.218  13.933  18.548  0.00  0.00    +0.000 A 
ATOM     13  C   UNL     1       7.241  14.104  17.560  0.00  0.00    +0.000 A 
ATOM     14  C   UNL     1       6.093  14.859  17.820  0.00  0.00    +0.000 A 
ATOM     15  C   UNL     1       5.887  15.412  19.083  0.00  0.00    +0.000 A 
ATOM     16  C   UNL     1       6.835  15.224  20.085  0.00  0.00    +0.000 A 
ATOM     17  C   UNL     1       8.002  14.506  19.813  0.00  0.00    +0.000 A 
ENDBRANCH  11  12
ENDBRANCH   3   5
BRANCH   1  18
ATOM     18  C   UNL     1       8.353   7.332  18.332  0.00  0.00    +0.000 C 
BRANCH  18  22
ATOM     19  C   UNL     1       6.307   4.299  15.089  0.00  0.00    +0.000 C 
ATOM     20  C   UNL     1       6.571   5.080  16.334  0.00  0.00    +0.000 A 
ATOM     21  N   UNL     1       7.448   6.041  16.403  0.00  0.00    +0.000 NA
ATOM     22  N   UNL     1       7.402   6.434  17.719  0.00  0.00    +0.000 N 
ATOM     23  C   UNL     1       6.532   5.614  18.434  0.00  0.00    +0.000 A 
ATOM     24  O   UNL     1       6.343   5.609  19.637  0.00  0.00    +0.000 OA
ATOM     25  N   UNL     1       5.923   4.832  17.489  0.00  0.00    +0.000 N 
BRANCH  25  26
ATOM     26  C   UNL     1       4.817   3.937  17.785  0.00  0.00    +0.000 C 
BRANCH  26  27
ATOM     27  C   UNL     1       3.469   4.515  17.331  0.00  0.00    +0.000 C 
BRANCH  27  28
ATOM     28  C   UNL     1       2.774   5.318  18.426  0.00  0.00    +0.000 C 
BRANCH  28  29
ATOM     29  N   UNL     1       2.220   4.471  19.463  0.00  0.00    +0.000 N 
ATOM     30  C   UNL     1       1.349   3.433  19.280  0.00  0.00    +0.000 A 
ATOM     31  C   UNL     1       1.136   2.927  20.542  0.00  0.00    +0.000 A 
ATOM     32  N   UNL     1       1.856   3.629  21.474  0.00  0.00    +0.000 NA
ATOM     33  C   UNL     1       2.491   4.558  20.796  0.00  0.00    +0.000 A 
ENDBRANCH  28  29
ENDBRANCH  27  28
ENDBRANCH  26  27
ENDBRANCH  25  26
ENDBRANCH  18  22
ENDBRANCH   1  18
TORSDOF 8
ENDMDL
MODEL 5
REMARK VINA RESULT:      -7.8      1.059      1.195
REMARK  Name = 
REMARK  9 active torsions:
REMARK  status: ('A' for Active; 'I' for Inactive)
REMARK    1  A    between atoms: C_1  and  C_2
REMARK    2  A    between atoms: N_4  and  C_5
REMARK    3  A    between atoms: C_5  and  C_6
REMARK    4  A    between atoms: N_8  and  N_9
REMARK    5  A    between atoms: N_15  and  C_16
REMARK    6  A    between atoms: N_24  and  C_25
REMARK    7  A    between atoms: C_25  and  C_26
REMARK    8  A    between atoms: C_26  and  C_27
REMARK    9  A    between atoms: C_27  and  N_28
REMARK                            x       y       z     vdW  Elec       q    Type
REMARK                         _______ _______ _______ _____ _____    ______ ____
ROOT
ATOM      1  C   UNL     1       1.836   8.275  19.394  0.00  0.00    +0.000 C 
ATOM      2  O   UNL     1       2.134   8.591  18.244  0.00  0.00    +0.000 OA
ATOM      3  N   UNL     1       2.286   7.131  20.035  0.00  0.00    +0.000 N 
ATOM      4  H   UNL     1       2.008   6.930  20.995  0.00  0.00    +0.000 HD
ENDROOT
BRANCH   3   5
ATOM      5  N   UNL     1       3.080   6.236  19.370  0.00  0.00    +0.000 NA
ATOM      6  C   UNL     1       3.089   5.007  19.778  0.00  0.00    +0.000 C 
ATOM      7  S   UNL     1       2.109   4.419  21.107  0.00  0.00    +0.000 S 
ATOM      8  C   UNL     1       2.745   2.744  20.959  0.00  0.00    +0.000 C 
ATOM      9  C   UNL     1       3.736   2.748  19.828  0.00  0.00    +0.000 C 
ATOM     10  O   UNL     1       4.283   1.709  19.465  0.00  0.00    +0.000 OA
ATOM     11  N   UNL     1       3.883   4.006  19.264  0.00  0.00    +0.000 N 
BRANCH  11  12
ATOM     12  C   UNL     1       4.809   4.212  18.200  0.00  0.00    +0.000 A 
ATOM     13  C   UNL     1       6.132   4.592  18.454  0.00  0.00    +0.000 A 
ATOM     14  C   UNL     1       7.010   4.853  17.397  0.00  0.00    +0.000 A 
ATOM     15  C   UNL     1       6.590   4.690  16.078  0.00  0.00    +0.000 A 
ATOM     16  C   UNL     1       5.286   4.282  15.811  0.00  0.00    +0.000 A 
ATOM     17  C   UNL     1       4.396   4.064  16.865  0.00  0.00    +0.000 A 
ENDBRANCH  11  12
ENDBRANCH   3   5
BRANCH   1  18
ATOM     18  C   UNL     1       1.058   9.226  20.302  0.00  0.00    +0.000 C 
BRANCH  18  22
ATOM     19  C   UNL     1      -2.560  11.659  18.090  0.00  0.00    +0.000 C 
ATOM     20  C   UNL     1      -1.219  11.295  18.636  0.00  0.00    +0.000 A 
ATOM     21  N   UNL     1      -0.925  10.104  19.075  0.00  0.00    +0.000 NA
ATOM     22  N   UNL     1       0.367  10.229  19.527  0.00  0.00    +0.000 N 
ATOM     23  C   UNL     1       0.787  11.554  19.415  0.00  0.00    +0.000 A 
ATOM     24  O   UNL     1       1.827  12.035  19.826  0.00  0.00    +0.000 OA
ATOM     25  N   UNL     1      -0.213  12.186  18.727  0.00  0.00    +0.000 N 
BRANCH  25  26
ATOM     26  C   UNL     1      -0.111  13.556  18.249  0.00  0.00    +0.000 C 
BRANCH  26  27
ATOM     27  C   UNL     1      -0.484  14.575  19.335  0.00  0.00    +0.000 C 
BRANCH  27  28
ATOM     28  C   UNL     1       0.736  15.259  19.943  0.00  0.00    +0.000 C 
BRANCH  28  29
ATOM     29  N   UNL     1       1.498  16.003  18.960  0.00  0.00    +0.000 N 
ATOM     30  C   UNL     1       2.738  15.682  18.485  0.00  0.00    +0.000 A 
ATOM     31  C   UNL     1       3.027  16.662  17.565  0.00  0.00    +0.000 A 
ATOM     32  N   UNL     1       1.995  17.561  17.473  0.00  0.00    +0.000 NA
ATOM     33  C   UNL     1       1.093  17.143  18.331  0.00  0.00    +0.000 A 
ENDBRANCH  28  29
ENDBRANCH  27  28
ENDBRANCH  26  27
ENDBRANCH  25  26
ENDBRANCH  18  22
ENDBRANCH   1  18
TORSDOF 8
ENDMDL
MODEL 6
REMARK VINA RESULT:      -7.7      0.886      1.513
REMARK  Name = 
REMARK  9 active torsions:
REMARK  status: ('A' for Active; 'I' for Inactive)
REMARK    1  A    between atoms: C_1  and  C_2
REMARK    2  A    between atoms: N_4  and  C_5
REMARK    3  A    between atoms: C_5  and  C_6
REMARK    4  A    between atoms: N_8  and  N_9
REMARK    5  A    between atoms: N_15  and  C_16
REMARK    6  A    between atoms: N_24  and  C_25
REMARK    7  A    between atoms: C_25  and  C_26
REMARK    8  A    between atoms: C_26  and  C_27
REMARK    9  A    between atoms: C_27  and  N_28
REMARK                            x       y       z     vdW  Elec       q    Type
REMARK                         _______ _______ _______ _____ _____    ______ ____
ROOT
ATOM      1  C   UNL     1       1.830   8.075  19.725  0.00  0.00    +0.000 C 
ATOM      2  O   UNL     1       2.178   8.569  18.654  0.00  0.00    +0.000 OA
ATOM      3  N   UNL     1       2.221   6.823  20.175  0.00  0.00    +0.000 N 
ATOM      4  H   UNL     1       1.903   6.475  21.078  0.00  0.00    +0.000 HD
ENDROOT
BRANCH   3   5
ATOM      5  N   UNL     1       3.008   6.024  19.391  0.00  0.00    +0.000 NA
ATOM      6  C   UNL     1       2.780   4.750  19.395  0.00  0.00    +0.000 C 
ATOM      7  S   UNL     1       1.491   3.998  20.315  0.00  0.00    +0.000 S 
ATOM      8  C   UNL     1       1.924   2.347  19.752  0.00  0.00    +0.000 C 
ATOM      9  C   UNL     1       3.110   2.490  18.839  0.00  0.00    +0.000 C 
ATOM     10  O   UNL     1       3.580   1.515  18.256  0.00  0.00    +0.000 OA
ATOM     11  N   UNL     1       3.524   3.809  18.720  0.00  0.00    +0.000 N 
BRANCH  11  12
ATOM     12  C   UNL     1       4.659   4.135  17.923  0.00  0.00    +0.000 A 
ATOM     13  C   UNL     1       4.576   4.182  16.526  0.00  0.00    +0.000 A 
ATOM     14  C   UNL     1       5.715   4.441  15.756  0.00  0.00    +0.000 A 
ATOM     15  C   UNL     1       6.937   4.702  16.374  0.00  0.00    +0.000 A 
ATOM     16  C   UNL     1       7.027   4.691  17.763  0.00  0.00    +0.000 A 
ATOM     17  C   UNL     1       5.900   4.390  18.532  0.00  0.00    +0.000 A 
ENDBRANCH  11  12
ENDBRANCH   3   5
BRANCH   1  18
ATOM     18  C   UNL     1       1.051   8.888  20.758  0.00  0.00    +0.000 C 
BRANCH  18  22
ATOM     19  C   UNL     1      -2.476  11.186  18.272  0.00  0.00    +0.000 C 
ATOM     20  C   UNL     1      -1.265  10.923  19.104  0.00  0.00    +0.000 A 
ATOM     21  N   UNL     1      -0.741   9.739  19.250  0.00  0.00    +0.000 NA
ATOM     22  N   UNL     1       0.301   9.946  20.122  0.00  0.00    +0.000 N 
ATOM     23  C   UNL     1       0.315  11.274  20.545  0.00  0.00    +0.000 A 
ATOM     24  O   UNL     1       1.028  11.768  21.400  0.00  0.00    +0.000 OA
ATOM     25  N   UNL     1      -0.629  11.901  19.778  0.00  0.00    +0.000 N 
BRANCH  25  26
ATOM     26  C   UNL     1      -0.832  13.341  19.780  0.00  0.00    +0.000 C 
BRANCH  26  27
ATOM     27  C   UNL     1      -0.126  14.025  18.600  0.00  0.00    +0.000 C 
BRANCH  27  28
ATOM     28  C   UNL     1       1.302  14.444  18.932  0.00  0.00    +0.000 C 
BRANCH  28  29
ATOM     29  N   UNL     1       1.478  15.882  18.890  0.00  0.00    +0.000 N 
ATOM     30  C   UNL     1       0.790  16.803  19.630  0.00  0.00    +0.000 A 
ATOM     31  C   UNL     1       1.322  18.017  19.262  0.00  0.00    +0.000 A 
ATOM     32  N   UNL     1       2.310  17.851  18.326  0.00  0.00    +0.000 NA
ATOM     33  C   UNL     1       2.375  16.556  18.116  0.00  0.00    +0.000 A 
ENDBRANCH  28  29
ENDBRANCH  27  28
ENDBRANCH  26  27
ENDBRANCH  25  26
ENDBRANCH  18  22
ENDBRANCH   1  18
TORSDOF 8
ENDMDL
MODEL 7
REMARK VINA RESULT:      -7.7      0.350      1.120
REMARK  Name = 
REMARK  9 active torsions:
REMARK  status: ('A' for Active; 'I' for Inactive)
REMARK    1  A    between atoms: C_1  and  C_2
REMARK    2  A    between atoms: N_4  and  C_5
REMARK    3  A    between atoms: C_5  and  C_6
REMARK    4  A    between atoms: N_8  and  N_9
REMARK    5  A    between atoms: N_15  and  C_16
REMARK    6  A    between atoms: N_24  and  C_25
REMARK    7  A    between atoms: C_25  and  C_26
REMARK    8  A    between atoms: C_26  and  C_27
REMARK    9  A    between atoms: C_27  and  N_28
REMARK                            x       y       z     vdW  Elec       q    Type
REMARK                         _______ _______ _______ _____ _____    ______ ____
ROOT
ATOM      1  C   UNL     1       1.742   8.236  19.860  0.00  0.00    +0.000 C 
ATOM      2  O   UNL     1       1.991   8.685  18.743  0.00  0.00    +0.000 OA
ATOM      3  N   UNL     1       2.228   7.032  20.348  0.00  0.00    +0.000 N 
ATOM      4  H   UNL     1       1.991   6.720  21.288  0.00  0.00    +0.000 HD
ENDROOT
BRANCH   3   5
ATOM      5  N   UNL     1       3.001   6.229  19.554  0.00  0.00    +0.000 NA
ATOM      6  C   UNL     1       2.764   4.956  19.557  0.00  0.00    +0.000 C 
ATOM      7  S   UNL     1       1.480   4.212  20.490  0.00  0.00    +0.000 S 
ATOM      8  C   UNL     1       1.895   2.559  19.919  0.00  0.00    +0.000 C 
ATOM      9  C   UNL     1       3.072   2.695  18.993  0.00  0.00    +0.000 C 
ATOM     10  O   UNL     1       3.529   1.718  18.404  0.00  0.00    +0.000 OA
ATOM     11  N   UNL     1       3.494   4.011  18.873  0.00  0.00    +0.000 N 
BRANCH  11  12
ATOM     12  C   UNL     1       4.623   4.331  18.064  0.00  0.00    +0.000 A 
ATOM     13  C   UNL     1       4.504   4.481  16.678  0.00  0.00    +0.000 A 
ATOM     14  C   UNL     1       5.634   4.732  15.892  0.00  0.00    +0.000 A 
ATOM     15  C   UNL     1       6.885   4.882  16.487  0.00  0.00    +0.000 A 
ATOM     16  C   UNL     1       7.013   4.768  17.868  0.00  0.00    +0.000 A 
ATOM     17  C   UNL     1       5.893   4.475  18.650  0.00  0.00    +0.000 A 
ENDBRANCH  11  12
ENDBRANCH   3   5
BRANCH   1  18
ATOM     18  C   UNL     1       0.994   9.067  20.901  0.00  0.00    +0.000 C 
BRANCH  18  22
ATOM     19  C   UNL     1      -2.534  11.302  18.358  0.00  0.00    +0.000 C 
ATOM     20  C   UNL     1      -1.341  11.061  19.223  0.00  0.00    +0.000 A 
ATOM     21  N   UNL     1      -0.778   9.894  19.356  0.00  0.00    +0.000 NA
ATOM     22  N   UNL     1       0.225  10.114  20.269  0.00  0.00    +0.000 N 
ATOM     23  C   UNL     1       0.174  11.429  20.728  0.00  0.00    +0.000 A 
ATOM     24  O   UNL     1       0.838  11.925  21.619  0.00  0.00    +0.000 OA
ATOM     25  N   UNL     1      -0.767  12.042  19.946  0.00  0.00    +0.000 N 
BRANCH  25  26
ATOM     26  C   UNL     1      -1.025  13.473  19.980  0.00  0.00    +0.000 C 
BRANCH  26  27
ATOM     27  C   UNL     1      -0.129  14.244  19.000  0.00  0.00    +0.000 C 
BRANCH  27  28
ATOM     28  C   UNL     1       0.967  15.036  19.704  0.00  0.00    +0.000 C 
BRANCH  28  29
ATOM     29  N   UNL     1       2.077  15.343  18.824  0.00  0.00    +0.000 N 
ATOM     30  C   UNL     1       2.281  16.519  18.158  0.00  0.00    +0.000 A 
ATOM     31  C   UNL     1       3.464  16.339  17.481  0.00  0.00    +0.000 A 
ATOM     32  N   UNL     1       3.977  15.091  17.723  0.00  0.00    +0.000 NA
ATOM     33  C   UNL     1       3.116  14.511  18.527  0.00  0.00    +0.000 A 
ENDBRANCH  28  29
ENDBRANCH  27  28
ENDBRANCH  26  27
ENDBRANCH  25  26
ENDBRANCH  18  22
ENDBRANCH   1  18
TORSDOF 8
ENDMDL
MODEL 8
REMARK VINA RESULT:      -7.7      2.869      4.771
REMARK  Name = 
REMARK  9 active torsions:
REMARK  status: ('A' for Active; 'I' for Inactive)
REMARK    1  A    between atoms: C_1  and  C_2
REMARK    2  A    between atoms: N_4  and  C_5
REMARK    3  A    between atoms: C_5  and  C_6
REMARK    4  A    between atoms: N_8  and  N_9
REMARK    5  A    between atoms: N_15  and  C_16
REMARK    6  A    between atoms: N_24  and  C_25
REMARK    7  A    between atoms: C_25  and  C_26
REMARK    8  A    between atoms: C_26  and  C_27
REMARK    9  A    between atoms: C_27  and  N_28
REMARK                            x       y       z     vdW  Elec       q    Type
REMARK                         _______ _______ _______ _____ _____    ______ ____
ROOT
ATOM      1  C   UNL     1       1.576   7.951  20.439  0.00  0.00    +0.000 C 
ATOM      2  O   UNL     1       1.868   8.601  19.437  0.00  0.00    +0.000 OA
ATOM      3  N   UNL     1       2.044   6.674  20.709  0.00  0.00    +0.000 N 
ATOM      4  H   UNL     1       1.771   6.191  21.563  0.00  0.00    +0.000 HD
ENDROOT
BRANCH   3   5
ATOM      5  N   UNL     1       2.850   6.031  19.808  0.00  0.00    +0.000 NA
ATOM      6  C   UNL     1       2.620   4.780  19.568  0.00  0.00    +0.000 C 
ATOM      7  S   UNL     1       1.307   3.877  20.300  0.00  0.00    +0.000 S 
ATOM      8  C   UNL     1       1.752   2.357  19.449  0.00  0.00    +0.000 C 
ATOM      9  C   UNL     1       2.960   2.662  18.606  0.00  0.00    +0.000 C 
ATOM     10  O   UNL     1       3.443   1.810  17.864  0.00  0.00    +0.000 OA
ATOM     11  N   UNL     1       3.378   3.977  18.746  0.00  0.00    +0.000 N 
BRANCH  11  12
ATOM     12  C   UNL     1       4.533   4.440  18.052  0.00  0.00    +0.000 A 
ATOM     13  C   UNL     1       5.795   4.439  18.659  0.00  0.00    +0.000 A 
ATOM     14  C   UNL     1       6.906   4.957  17.986  0.00  0.00    +0.000 A 
ATOM     15  C   UNL     1       6.779   5.436  16.684  0.00  0.00    +0.000 A 
ATOM     16  C   UNL     1       5.537   5.413  16.055  0.00  0.00    +0.000 A 
ATOM     17  C   UNL     1       4.418   4.937  16.742  0.00  0.00    +0.000 A 
ENDBRANCH  11  12
ENDBRANCH   3   5
BRANCH   1  18
ATOM     18  C   UNL     1       0.786   8.575  21.588  0.00  0.00    +0.000 C 
BRANCH  18  22
ATOM     19  C   UNL     1      -2.001  11.525  18.861  0.00  0.00    +0.000 C 
ATOM     20  C   UNL     1      -1.181  10.984  19.986  0.00  0.00    +0.000 A 
ATOM     21  N   UNL     1      -0.448   9.913  19.886  0.00  0.00    +0.000 NA
ATOM     22  N   UNL     1       0.076   9.753  21.146  0.00  0.00    +0.000 N 
ATOM     23  C   UNL     1      -0.443  10.719  22.006  0.00  0.00    +0.000 A 
ATOM     24  O   UNL     1      -0.282  10.797  23.210  0.00  0.00    +0.000 OA
ATOM     25  N   UNL     1      -1.153  11.567  21.200  0.00  0.00    +0.000 N 
BRANCH  25  26
ATOM     26  C   UNL     1      -1.732  12.816  21.669  0.00  0.00    +0.000 C 
BRANCH  26  27
ATOM     27  C   UNL     1      -3.047  12.593  22.430  0.00  0.00    +0.000 C 
BRANCH  27  28
ATOM     28  C   UNL     1      -4.275  12.948  21.599  0.00  0.00    +0.000 C 
BRANCH  28  29
ATOM     29  N   UNL     1      -5.506  12.818  22.352  0.00  0.00    +0.000 N 
ATOM     30  C   UNL     1      -5.658  13.020  23.695  0.00  0.00    +0.000 A 
ATOM     31  C   UNL     1      -6.996  12.804  23.934  0.00  0.00    +0.000 A 
ATOM     32  N   UNL     1      -7.650  12.480  22.774  0.00  0.00    +0.000 NA
ATOM     33  C   UNL     1      -6.726  12.487  21.840  0.00  0.00    +0.000 A 
ENDBRANCH  28  29
ENDBRANCH  27  28
ENDBRANCH  26  27
ENDBRANCH  25  26
ENDBRANCH  18  22
ENDBRANCH   1  18
TORSDOF 8
ENDMDL
MODEL 9
REMARK VINA RESULT:      -7.7      1.186      1.542
REMARK  Name = 
REMARK  9 active torsions:
REMARK  status: ('A' for Active; 'I' for Inactive)
REMARK    1  A    between atoms: C_1  and  C_2
REMARK    2  A    between atoms: N_4  and  C_5
REMARK    3  A    between atoms: C_5  and  C_6
REMARK    4  A    between atoms: N_8  and  N_9
REMARK    5  A    between atoms: N_15  and  C_16
REMARK    6  A    between atoms: N_24  and  C_25
REMARK    7  A    between atoms: C_25  and  C_26
REMARK    8  A    between atoms: C_26  and  C_27
REMARK    9  A    between atoms: C_27  and  N_28
REMARK                            x       y       z     vdW  Elec       q    Type
REMARK                         _______ _______ _______ _____ _____    ______ ____
ROOT
ATOM      1  C   UNL     1       1.789   8.270  19.717  0.00  0.00    +0.000 C 
ATOM      2  O   UNL     1       2.121   8.694  18.611  0.00  0.00    +0.000 OA
ATOM      3  N   UNL     1       2.213   7.064  20.254  0.00  0.00    +0.000 N 
ATOM      4  H   UNL     1       1.908   6.773  21.181  0.00  0.00    +0.000 HD
ENDROOT
BRANCH   3   5
ATOM      5  N   UNL     1       3.019   6.231  19.526  0.00  0.00    +0.000 NA
ATOM      6  C   UNL     1       3.059   4.979  19.853  0.00  0.00    +0.000 C 
ATOM      7  S   UNL     1       2.106   4.286  21.151  0.00  0.00    +0.000 S 
ATOM      8  C   UNL     1       2.776   2.639  20.890  0.00  0.00    +0.000 C 
ATOM      9  C   UNL     1       3.754   2.736  19.753  0.00  0.00    +0.000 C 
ATOM     10  O   UNL     1       4.320   1.735  19.318  0.00  0.00    +0.000 OA
ATOM     11  N   UNL     1       3.868   4.031  19.269  0.00  0.00    +0.000 N 
BRANCH  11  12
ATOM     12  C   UNL     1       4.778   4.325  18.212  0.00  0.00    +0.000 A 
ATOM     13  C   UNL     1       6.084   4.753  18.477  0.00  0.00    +0.000 A 
ATOM     14  C   UNL     1       6.944   5.099  17.429  0.00  0.00    +0.000 A 
ATOM     15  C   UNL     1       6.524   4.975  16.106  0.00  0.00    +0.000 A 
ATOM     16  C   UNL     1       5.238   4.521  15.827  0.00  0.00    +0.000 A 
ATOM     17  C   UNL     1       4.364   4.216  16.873  0.00  0.00    +0.000 A 
ENDBRANCH  11  12
ENDBRANCH   3   5
BRANCH   1  18
ATOM     18  C   UNL     1       0.993   9.134  20.693  0.00  0.00    +0.000 C 
BRANCH  18  22
ATOM     19  C   UNL     1      -2.008  11.510  17.651  0.00  0.00    +0.000 C 
ATOM     20  C   UNL     1      -1.017  11.218  18.729  0.00  0.00    +0.000 A 
ATOM     21  N   UNL     1      -0.445  10.058  18.880  0.00  0.00    +0.000 NA
ATOM     22  N   UNL     1       0.331  10.217  20.002  0.00  0.00    +0.000 N 
ATOM     23  C   UNL     1       0.128  11.482  20.549  0.00  0.00    +0.000 A 
ATOM     24  O   UNL     1       0.566  11.910  21.602  0.00  0.00    +0.000 OA
ATOM     25  N   UNL     1      -0.652  12.142  19.638  0.00  0.00    +0.000 N 
BRANCH  25  26
ATOM     26  C   UNL     1      -0.972  13.557  19.738  0.00  0.00    +0.000 C 
BRANCH  26  27
ATOM     27  C   UNL     1       0.088  14.438  19.061  0.00  0.00    +0.000 C 
BRANCH  27  28
ATOM     28  C   UNL     1      -0.129  15.925  19.321  0.00  0.00    +0.000 C 
BRANCH  28  29
ATOM     29  N   UNL     1       0.611  16.760  18.396  0.00  0.00    +0.000 N 
ATOM     30  C   UNL     1       0.096  17.760  17.620  0.00  0.00    +0.000 A 
ATOM     31  C   UNL     1       1.178  18.269  16.940  0.00  0.00    +0.000 A 
ATOM     32  N   UNL     1       2.326  17.606  17.288  0.00  0.00    +0.000 NA
ATOM     33  C   UNL     1       1.952  16.697  18.159  0.00  0.00    +0.000 A 
ENDBRANCH  28  29
ENDBRANCH  27  28
ENDBRANCH  26  27
ENDBRANCH  25  26
ENDBRANCH  18  22
ENDBRANCH   1  18
TORSDOF 8
ENDMDL
