MODEL 1
REMARK VINA RESULT:      -8.6      0.000      0.000
REMARK  Name = 
REMARK  6 active torsions:
REMARK  status: ('A' for Active; 'I' for Inactive)
REMARK    1  A    between atoms: C_10  and  O_11
REMARK    2  A    between atoms: O_11  and  C_12
REMARK    3  A    between atoms: C_12  and  C_13
REMARK    4  A    between atoms: C_19  and  O_20
REMARK    5  A    between atoms: O_20  and  C_21
REMARK    6  A    between atoms: C_21  and  C_22
REMARK                            x       y       z     vdW  Elec       q    Type
REMARK                         _______ _______ _______ _____ _____    ______ ____
ROOT
ATOM      1  O   UNL     1      -1.145  12.682  23.436  0.00  0.00    +0.000 OA
ATOM      2  C   UNL     1      -0.884  12.331  22.287  0.00  0.00    +0.000 C 
ATOM      3  C   UNL     1      -1.509  13.075  21.143  0.00  0.00    +0.000 C 
ATOM      4  C   UNL     1      -1.187  12.515  19.968  0.00  0.00    +0.000 C 
ATOM      5  N   UNL     1      -1.201  11.114  19.873  0.00  0.00    +0.000 N 
ATOM      6  C   UNL     1      -1.442  10.497  18.572  0.00  0.00    +0.000 C 
ATOM      7  C   UNL     1      -0.105  10.378  17.868  0.00  0.00    +0.000 C 
ATOM      8  C   UNL     1       0.767   9.466  18.689  0.00  0.00    +0.000 A 
ATOM      9  C   UNL     1       1.628   8.608  17.988  0.00  0.00    +0.000 A 
ATOM     10  C   UNL     1       2.271   7.539  18.608  0.00  0.00    +0.000 A 
ATOM     11  C   UNL     1       2.042   7.327  19.977  0.00  0.00    +0.000 A 
ATOM     12  C   UNL     1       1.285   8.288  20.724  0.00  0.00    +0.000 A 
ATOM     13  C   UNL     1       0.617   9.373  20.096  0.00  0.00    +0.000 A 
ATOM     14  C   UNL     1      -0.409  10.287  20.837  0.00  0.00    +0.000 C 
ATOM     15  C   UNL     1       0.121  11.214  21.963  0.00  0.00    +0.000 C 
ENDROOT
BRANCH  10  16
ATOM     16  O   UNL     1       2.955   6.767  17.705  0.00  0.00    +0.000 OA
BRANCH  16  17
ATOM     17  C   UNL     1       4.305   7.100  17.396  0.00  0.00    +0.000 C 
BRANCH  17  18
ATOM     18  C   UNL     1       4.968   5.995  16.575  0.00  0.00    +0.000 A 
ATOM     19  C   UNL     1       5.038   4.697  17.107  0.00  0.00    +0.000 A 
ATOM     20  C   UNL     1       5.598   3.637  16.381  0.00  0.00    +0.000 A 
ATOM     21  C   UNL     1       6.104   3.870  15.104  0.00  0.00    +0.000 A 
ATOM     22  C   UNL     1       6.027   5.147  14.547  0.00  0.00    +0.000 A 
ATOM     23  C   UNL     1       5.453   6.201  15.274  0.00  0.00    +0.000 A 
ENDBRANCH  17  18
ENDBRANCH  16  17
ENDBRANCH  10  16
BRANCH  11  24
ATOM     24  O   UNL     1       2.509   6.138  20.507  0.00  0.00    +0.000 OA
BRANCH  24  25
ATOM     25  C   UNL     1       1.648   5.000  20.364  0.00  0.00    +0.000 C 
BRANCH  25  26
ATOM     26  C   UNL     1       2.285   3.790  19.686  0.00  0.00    +0.000 A 
ATOM     27  C   UNL     1       3.366   3.074  20.209  0.00  0.00    +0.000 A 
ATOM     28  C   UNL     1       3.906   1.985  19.510  0.00  0.00    +0.000 A 
ATOM     29  C   UNL     1       3.374   1.598  18.284  0.00  0.00    +0.000 A 
ATOM     30  C   UNL     1       2.295   2.293  17.754  0.00  0.00    +0.000 A 
ATOM     31  C   UNL     1       1.753   3.379  18.449  0.00  0.00    +0.000 A 
ENDBRANCH  25  26
ENDBRANCH  24  25
ENDBRANCH  11  24
TORSDOF 6
ENDMDL
MODEL 2
REMARK VINA RESULT:      -8.4      0.979      1.123
REMARK  Name = 
REMARK  6 active torsions:
REMARK  status: ('A' for Active; 'I' for Inactive)
REMARK    1  A    between atoms: C_10  and  O_11
REMARK    2  A    between atoms: O_11  and  C_12
REMARK    3  A    between atoms: C_12  and  C_13
REMARK    4  A    between atoms: C_19  and  O_20
REMARK    5  A    between atoms: O_20  and  C_21
REMARK    6  A    between atoms: C_21  and  C_22
REMARK                            x       y       z     vdW  Elec       q    Type
REMARK                         _______ _______ _______ _____ _____    ______ ____
ROOT
ATOM      1  O   UNL     1      -2.414  11.879  23.519  0.00  0.00    +0.000 OA
ATOM      2  C   UNL     1      -1.685  11.671  22.550  0.00  0.00    +0.000 C 
ATOM      3  C   UNL     1      -1.685  12.656  21.418  0.00  0.00    +0.000 C 
ATOM      4  C   UNL     1      -0.902  12.239  20.414  0.00  0.00    +0.000 C 
ATOM      5  N   UNL     1      -0.953  10.883  20.049  0.00  0.00    +0.000 N 
ATOM      6  C   UNL     1      -0.619  10.507  18.679  0.00  0.00    +0.000 C 
ATOM      7  C   UNL     1       0.883  10.309  18.613  0.00  0.00    +0.000 C 
ATOM      8  C   UNL     1       1.238   9.172  19.535  0.00  0.00    +0.000 A 
ATOM      9  C   UNL     1       2.271   8.318  19.122  0.00  0.00    +0.000 A 
ATOM     10  C   UNL     1       2.503   7.090  19.736  0.00  0.00    +0.000 A 
ATOM     11  C   UNL     1       1.672   6.709  20.802  0.00  0.00    +0.000 A 
ATOM     12  C   UNL     1       0.717   7.645  21.320  0.00  0.00    +0.000 A 
ATOM     13  C   UNL     1       0.467   8.893  20.691  0.00  0.00    +0.000 A 
ATOM     14  C   UNL     1      -0.728   9.820  21.079  0.00  0.00    +0.000 C 
ATOM     15  C   UNL     1      -0.709  10.486  22.480  0.00  0.00    +0.000 C 
ENDROOT
BRANCH  10  16
ATOM     16  O   UNL     1       3.474   6.373  19.086  0.00  0.00    +0.000 OA
BRANCH  16  17
ATOM     17  C   UNL     1       3.466   6.334  17.661  0.00  0.00    +0.000 C 
BRANCH  17  18
ATOM     18  C   UNL     1       4.724   5.656  17.124  0.00  0.00    +0.000 A 
ATOM     19  C   UNL     1       4.598   4.670  16.132  0.00  0.00    +0.000 A 
ATOM     20  C   UNL     1       5.722   4.045  15.573  0.00  0.00    +0.000 A 
ATOM     21  C   UNL     1       6.995   4.401  16.011  0.00  0.00    +0.000 A 
ATOM     22  C   UNL     1       7.146   5.393  16.982  0.00  0.00    +0.000 A 
ATOM     23  C   UNL     1       6.018   6.025  17.526  0.00  0.00    +0.000 A 
ENDBRANCH  17  18
ENDBRANCH  16  17
ENDBRANCH  10  16
BRANCH  11  24
ATOM     24  O   UNL     1       1.781   5.402  21.238  0.00  0.00    +0.000 OA
BRANCH  24  25
ATOM     25  C   UNL     1       1.099   4.414  20.452  0.00  0.00    +0.000 C 
BRANCH  25  26
ATOM     26  C   UNL     1       2.010   3.461  19.682  0.00  0.00    +0.000 A 
ATOM     27  C   UNL     1       3.266   3.040  20.129  0.00  0.00    +0.000 A 
ATOM     28  C   UNL     1       4.049   2.178  19.348  0.00  0.00    +0.000 A 
ATOM     29  C   UNL     1       3.589   1.728  18.115  0.00  0.00    +0.000 A 
ATOM     30  C   UNL     1       2.340   2.130  17.659  0.00  0.00    +0.000 A 
ATOM     31  C   UNL     1       1.555   2.988  18.437  0.00  0.00    +0.000 A 
ENDBRANCH  25  26
ENDBRANCH  24  25
ENDBRANCH  11  24
TORSDOF 6
ENDMDL
MODEL 3
REMARK VINA RESULT:      -8.4      0.846      1.194
REMARK  Name = 
REMARK  6 active torsions:
REMARK  status: ('A' for Active; 'I' for Inactive)
REMARK    1  A    between atoms: C_10  and  O_11
REMARK    2  A    between atoms: O_11  and  C_12
REMARK    3  A    between atoms: C_12  and  C_13
REMARK    4  A    between atoms: C_19  and  O_20
REMARK    5  A    between atoms: O_20  and  C_21
REMARK    6  A    between atoms: C_21  and  C_22
REMARK                            x       y       z     vdW  Elec       q    Type
REMARK                         _______ _______ _______ _____ _____    ______ ____
ROOT
ATOM      1  O   UNL     1      -1.777  12.236  23.489  0.00  0.00    +0.000 OA
ATOM      2  C   UNL     1      -1.412  12.029  22.333  0.00  0.00    +0.000 C 
ATOM      3  C   UNL     1      -2.045  12.813  21.221  0.00  0.00    +0.000 C 
ATOM      4  C   UNL     1      -1.593  12.409  20.026  0.00  0.00    +0.000 C 
ATOM      5  N   UNL     1      -1.448  11.030  19.801  0.00  0.00    +0.000 N 
ATOM      6  C   UNL     1      -1.542  10.524  18.435  0.00  0.00    +0.000 C 
ATOM      7  C   UNL     1      -0.160  10.614  17.819  0.00  0.00    +0.000 C 
ATOM      8  C   UNL     1       0.757   9.720  18.612  0.00  0.00    +0.000 A 
ATOM      9  C   UNL     1       1.747   9.031  17.897  0.00  0.00    +0.000 A 
ATOM     10  C   UNL     1       2.466   7.978  18.459  0.00  0.00    +0.000 A 
ATOM     11  C   UNL     1       2.181   7.608  19.784  0.00  0.00    +0.000 A 
ATOM     12  C   UNL     1       1.279   8.408  20.561  0.00  0.00    +0.000 A 
ATOM     13  C   UNL     1       0.534   9.474  19.990  0.00  0.00    +0.000 A 
ATOM     14  C   UNL     1      -0.629  10.199  20.738  0.00  0.00    +0.000 C 
ATOM     15  C   UNL     1      -0.273  11.060  21.979  0.00  0.00    +0.000 C 
ENDROOT
BRANCH  10  16
ATOM     16  O   UNL     1       3.283   7.374  17.539  0.00  0.00    +0.000 OA
BRANCH  16  17
ATOM     17  C   UNL     1       4.695   7.501  17.682  0.00  0.00    +0.000 C 
BRANCH  17  18
ATOM     18  C   UNL     1       5.421   6.336  17.014  0.00  0.00    +0.000 A 
ATOM     19  C   UNL     1       5.072   5.976  15.702  0.00  0.00    +0.000 A 
ATOM     20  C   UNL     1       5.734   4.942  15.025  0.00  0.00    +0.000 A 
ATOM     21  C   UNL     1       6.758   4.247  15.664  0.00  0.00    +0.000 A 
ATOM     22  C   UNL     1       7.136   4.599  16.961  0.00  0.00    +0.000 A 
ATOM     23  C   UNL     1       6.479   5.645  17.627  0.00  0.00    +0.000 A 
ENDBRANCH  17  18
ENDBRANCH  16  17
ENDBRANCH  10  16
BRANCH  11  24
ATOM     24  O   UNL     1       2.743   6.428  20.234  0.00  0.00    +0.000 OA
BRANCH  24  25
ATOM     25  C   UNL     1       1.835   5.340  20.459  0.00  0.00    +0.000 C 
BRANCH  25  26
ATOM     26  C   UNL     1       2.024   4.140  19.536  0.00  0.00    +0.000 A 
ATOM     27  C   UNL     1       1.202   3.009  19.539  0.00  0.00    +0.000 A 
ATOM     28  C   UNL     1       1.458   1.939  18.670  0.00  0.00    +0.000 A 
ATOM     29  C   UNL     1       2.535   1.984  17.792  0.00  0.00    +0.000 A 
ATOM     30  C   UNL     1       3.358   3.103  17.771  0.00  0.00    +0.000 A 
ATOM     31  C   UNL     1       3.104   4.174  18.634  0.00  0.00    +0.000 A 
ENDBRANCH  25  26
ENDBRANCH  24  25
ENDBRANCH  11  24
TORSDOF 6
ENDMDL
MODEL 4
REMARK VINA RESULT:      -8.2      2.502      8.973
REMARK  Name = 
REMARK  6 active torsions:
REMARK  status: ('A' for Active; 'I' for Inactive)
REMARK    1  A    between atoms: C_10  and  O_11
REMARK    2  A    between atoms: O_11  and  C_12
REMARK    3  A    between atoms: C_12  and  C_13
REMARK    4  A    between atoms: C_19  and  O_20
REMARK    5  A    between atoms: O_20  and  C_21
REMARK    6  A    between atoms: C_21  and  C_22
REMARK                            x       y       z     vdW  Elec       q    Type
REMARK                         _______ _______ _______ _____ _____    ______ ____
ROOT
ATOM      1  O   UNL     1       7.310   6.176  15.979  0.00  0.00    +0.000 OA
ATOM      2  C   UNL     1       6.527   5.927  16.893  0.00  0.00    +0.000 C 
ATOM      3  C   UNL     1       6.606   4.591  17.572  0.00  0.00    +0.000 C 
ATOM      4  C   UNL     1       5.635   4.453  18.485  0.00  0.00    +0.000 C 
ATOM      5  N   UNL     1       4.344   4.900  18.155  0.00  0.00    +0.000 N 
ATOM      6  C   UNL     1       3.194   4.277  18.803  0.00  0.00    +0.000 C 
ATOM      7  C   UNL     1       2.950   5.014  20.106  0.00  0.00    +0.000 C 
ATOM      8  C   UNL     1       2.610   6.442  19.770  0.00  0.00    +0.000 A 
ATOM      9  C   UNL     1       1.650   7.072  20.575  0.00  0.00    +0.000 A 
ATOM     10  C   UNL     1       1.053   8.276  20.206  0.00  0.00    +0.000 A 
ATOM     11  C   UNL     1       1.435   8.865  18.990  0.00  0.00    +0.000 A 
ATOM     12  C   UNL     1       2.522   8.300  18.243  0.00  0.00    +0.000 A 
ATOM     13  C   UNL     1       3.126   7.068  18.607  0.00  0.00    +0.000 A 
ATOM     14  C   UNL     1       4.133   6.306  17.688  0.00  0.00    +0.000 C 
ATOM     15  C   UNL     1       5.519   6.955  17.432  0.00  0.00    +0.000 C 
ENDROOT
BRANCH  10  16
ATOM     16  O   UNL     1       0.057   8.635  21.077  0.00  0.00    +0.000 OA
BRANCH  16  17
ATOM     17  C   UNL     1       0.405   9.314  22.280  0.00  0.00    +0.000 C 
BRANCH  17  18
ATOM     18  C   UNL     1      -0.158  10.733  22.292  0.00  0.00    +0.000 A 
ATOM     19  C   UNL     1      -1.272  11.020  23.098  0.00  0.00    +0.000 A 
ATOM     20  C   UNL     1      -1.804  12.315  23.179  0.00  0.00    +0.000 A 
ATOM     21  C   UNL     1      -1.223  13.344  22.441  0.00  0.00    +0.000 A 
ATOM     22  C   UNL     1      -0.103  13.087  21.649  0.00  0.00    +0.000 A 
ATOM     23  C   UNL     1       0.433  11.792  21.584  0.00  0.00    +0.000 A 
ENDBRANCH  17  18
ENDBRANCH  16  17
ENDBRANCH  10  16
BRANCH  11  24
ATOM     24  O   UNL     1       0.670   9.928  18.547  0.00  0.00    +0.000 OA
BRANCH  24  25
ATOM     25  C   UNL     1      -0.409   9.604  17.659  0.00  0.00    +0.000 C 
BRANCH  25  26
ATOM     26  C   UNL     1      -1.737  10.282  17.984  0.00  0.00    +0.000 A 
ATOM     27  C   UNL     1      -2.980   9.842  17.519  0.00  0.00    +0.000 A 
ATOM     28  C   UNL     1      -4.152  10.536  17.847  0.00  0.00    +0.000 A 
ATOM     29  C   UNL     1      -4.099  11.676  18.642  0.00  0.00    +0.000 A 
ATOM     30  C   UNL     1      -2.874  12.124  19.120  0.00  0.00    +0.000 A 
ATOM     31  C   UNL     1      -1.702  11.432  18.796  0.00  0.00    +0.000 A 
ENDBRANCH  25  26
ENDBRANCH  24  25
ENDBRANCH  11  24
TORSDOF 6
ENDMDL
MODEL 5
REMARK VINA RESULT:      -8.0      2.666      8.608
REMARK  Name = 
REMARK  6 active torsions:
REMARK  status: ('A' for Active; 'I' for Inactive)
REMARK    1  A    between atoms: C_10  and  O_11
REMARK    2  A    between atoms: O_11  and  C_12
REMARK    3  A    between atoms: C_12  and  C_13
REMARK    4  A    between atoms: C_19  and  O_20
REMARK    5  A    between atoms: O_20  and  C_21
REMARK    6  A    between atoms: C_21  and  C_22
REMARK                            x       y       z     vdW  Elec       q    Type
REMARK                         _______ _______ _______ _____ _____    ______ ____
ROOT
ATOM      1  O   UNL     1       1.740   2.475  22.073  0.00  0.00    +0.000 OA
ATOM      2  C   UNL     1       2.025   3.168  21.098  0.00  0.00    +0.000 C 
ATOM      3  C   UNL     1       2.878   2.578  20.013  0.00  0.00    +0.000 C 
ATOM      4  C   UNL     1       3.159   3.487  19.070  0.00  0.00    +0.000 C 
ATOM      5  N   UNL     1       3.497   4.788  19.480  0.00  0.00    +0.000 N 
ATOM      6  C   UNL     1       4.345   5.603  18.615  0.00  0.00    +0.000 C 
ATOM      7  C   UNL     1       3.441   6.314  17.627  0.00  0.00    +0.000 C 
ATOM      8  C   UNL     1       2.526   7.218  18.410  0.00  0.00    +0.000 A 
ATOM      9  C   UNL     1       2.201   8.451  17.826  0.00  0.00    +0.000 A 
ATOM     10  C   UNL     1       1.602   9.477  18.555  0.00  0.00    +0.000 A 
ATOM     11  C   UNL     1       1.319   9.254  19.912  0.00  0.00    +0.000 A 
ATOM     12  C   UNL     1       1.512   7.946  20.468  0.00  0.00    +0.000 A 
ATOM     13  C   UNL     1       2.133   6.901  19.734  0.00  0.00    +0.000 A 
ATOM     14  C   UNL     1       2.580   5.552  20.383  0.00  0.00    +0.000 C 
ATOM     15  C   UNL     1       1.477   4.590  20.897  0.00  0.00    +0.000 C 
ENDROOT
BRANCH  10  16
ATOM     16  O   UNL     1       1.496  10.627  17.817  0.00  0.00    +0.000 OA
BRANCH  16  17
ATOM     17  C   UNL     1       2.484  11.642  17.975  0.00  0.00    +0.000 C 
BRANCH  17  18
ATOM     18  C   UNL     1       1.843  12.979  18.343  0.00  0.00    +0.000 A 
ATOM     19  C   UNL     1       0.443  13.066  18.425  0.00  0.00    +0.000 A 
ATOM     20  C   UNL     1      -0.196  14.256  18.799  0.00  0.00    +0.000 A 
ATOM     21  C   UNL     1       0.568  15.384  19.091  0.00  0.00    +0.000 A 
ATOM     22  C   UNL     1       1.961  15.316  19.035  0.00  0.00    +0.000 A 
ATOM     23  C   UNL     1       2.595  14.117  18.675  0.00  0.00    +0.000 A 
ENDBRANCH  17  18
ENDBRANCH  16  17
ENDBRANCH  10  16
BRANCH  11  24
ATOM     24  O   UNL     1       0.938  10.355  20.656  0.00  0.00    +0.000 OA
BRANCH  24  25
ATOM     25  C   UNL     1       0.054  10.101  21.756  0.00  0.00    +0.000 C 
BRANCH  25  26
ATOM     26  C   UNL     1      -0.658  11.331  22.311  0.00  0.00    +0.000 A 
ATOM     27  C   UNL     1      -1.793  11.283  23.126  0.00  0.00    +0.000 A 
ATOM     28  C   UNL     1      -2.400  12.464  23.576  0.00  0.00    +0.000 A 
ATOM     29  C   UNL     1      -1.881  13.705  23.219  0.00  0.00    +0.000 A 
ATOM     30  C   UNL     1      -0.750  13.771  22.416  0.00  0.00    +0.000 A 
ATOM     31  C   UNL     1      -0.141  12.595  21.967  0.00  0.00    +0.000 A 
ENDBRANCH  25  26
ENDBRANCH  24  25
ENDBRANCH  11  24
TORSDOF 6
ENDMDL
MODEL 6
REMARK VINA RESULT:      -8.0      1.054      1.615
REMARK  Name = 
REMARK  6 active torsions:
REMARK  status: ('A' for Active; 'I' for Inactive)
REMARK    1  A    between atoms: C_10  and  O_11
REMARK    2  A    between atoms: O_11  and  C_12
REMARK    3  A    between atoms: C_12  and  C_13
REMARK    4  A    between atoms: C_19  and  O_20
REMARK    5  A    between atoms: O_20  and  C_21
REMARK    6  A    between atoms: C_21  and  C_22
REMARK                            x       y       z     vdW  Elec       q    Type
REMARK                         _______ _______ _______ _____ _____    ______ ____
ROOT
ATOM      1  O   UNL     1      -0.781  12.833  22.646  0.00  0.00    +0.000 OA
ATOM      2  C   UNL     1      -0.234  12.330  21.666  0.00  0.00    +0.000 C 
ATOM      3  C   UNL     1      -0.213  13.095  20.375  0.00  0.00    +0.000 C 
ATOM      4  C   UNL     1       0.346  12.373  19.394  0.00  0.00    +0.000 C 
ATOM      5  N   UNL     1       0.013  11.012  19.298  0.00  0.00    +0.000 N 
ATOM      6  C   UNL     1       0.093  10.356  17.996  0.00  0.00    +0.000 C 
ATOM      7  C   UNL     1       1.515   9.862  17.820  0.00  0.00    +0.000 C 
ATOM      8  C   UNL     1       1.787   8.847  18.898  0.00  0.00    +0.000 A 
ATOM      9  C   UNL     1       2.592   7.752  18.551  0.00  0.00    +0.000 A 
ATOM     10  C   UNL     1       2.688   6.621  19.359  0.00  0.00    +0.000 A 
ATOM     11  C   UNL     1       1.951   6.591  20.554  0.00  0.00    +0.000 A 
ATOM     12  C   UNL     1       1.250   7.767  20.981  0.00  0.00    +0.000 A 
ATOM     13  C   UNL     1       1.139   8.918  20.156  0.00  0.00    +0.000 A 
ATOM     14  C   UNL     1       0.184  10.111  20.480  0.00  0.00    +0.000 C 
ATOM     15  C   UNL     1       0.504  10.983  21.723  0.00  0.00    +0.000 C 
ENDROOT
BRANCH  10  16
ATOM     16  O   UNL     1       3.425   5.632  18.761  0.00  0.00    +0.000 OA
BRANCH  16  17
ATOM     17  C   UNL     1       3.546   5.624  17.341  0.00  0.00    +0.000 C 
BRANCH  17  18
ATOM     18  C   UNL     1       4.944   5.185  16.912  0.00  0.00    +0.000 A 
ATOM     19  C   UNL     1       5.215   5.007  15.546  0.00  0.00    +0.000 A 
ATOM     20  C   UNL     1       6.493   4.645  15.093  0.00  0.00    +0.000 A 
ATOM     21  C   UNL     1       7.518   4.450  16.015  0.00  0.00    +0.000 A 
ATOM     22  C   UNL     1       7.277   4.640  17.377  0.00  0.00    +0.000 A 
ATOM     23  C   UNL     1       6.001   5.017  17.822  0.00  0.00    +0.000 A 
ENDBRANCH  17  18
ENDBRANCH  16  17
ENDBRANCH  10  16
BRANCH  11  24
ATOM     24  O   UNL     1       1.889   5.378  21.215  0.00  0.00    +0.000 OA
BRANCH  24  25
ATOM     25  C   UNL     1       1.125   4.347  20.573  0.00  0.00    +0.000 C 
BRANCH  25  26
ATOM     26  C   UNL     1       1.941   3.363  19.740  0.00  0.00    +0.000 A 
ATOM     27  C   UNL     1       1.552   2.883  18.486  0.00  0.00    +0.000 A 
ATOM     28  C   UNL     1       2.352   1.962  17.794  0.00  0.00    +0.000 A 
ATOM     29  C   UNL     1       3.547   1.510  18.346  0.00  0.00    +0.000 A 
ATOM     30  C   UNL     1       3.952   1.982  19.588  0.00  0.00    +0.000 A 
ATOM     31  C   UNL     1       3.157   2.903  20.279  0.00  0.00    +0.000 A 
ENDBRANCH  25  26
ENDBRANCH  24  25
ENDBRANCH  11  24
TORSDOF 6
ENDMDL
MODEL 7
REMARK VINA RESULT:      -7.8      2.626      8.483
REMARK  Name = 
REMARK  6 active torsions:
REMARK  status: ('A' for Active; 'I' for Inactive)
REMARK    1  A    between atoms: C_10  and  O_11
REMARK    2  A    between atoms: O_11  and  C_12
REMARK    3  A    between atoms: C_12  and  C_13
REMARK    4  A    between atoms: C_19  and  O_20
REMARK    5  A    between atoms: O_20  and  C_21
REMARK    6  A    between atoms: C_21  and  C_22
REMARK                            x       y       z     vdW  Elec       q    Type
REMARK                         _______ _______ _______ _____ _____    ______ ____
ROOT
ATOM      1  O   UNL     1       1.446   2.202  22.219  0.00  0.00    +0.000 OA
ATOM      2  C   UNL     1       1.734   2.908  21.253  0.00  0.00    +0.000 C 
ATOM      3  C   UNL     1       2.515   2.305  20.122  0.00  0.00    +0.000 C 
ATOM      4  C   UNL     1       2.813   3.226  19.195  0.00  0.00    +0.000 C 
ATOM      5  N   UNL     1       3.236   4.493  19.629  0.00  0.00    +0.000 N 
ATOM      6  C   UNL     1       4.096   5.286  18.757  0.00  0.00    +0.000 C 
ATOM      7  C   UNL     1       3.199   6.075  17.823  0.00  0.00    +0.000 C 
ATOM      8  C   UNL     1       2.363   7.003  18.663  0.00  0.00    +0.000 A 
ATOM      9  C   UNL     1       2.086   8.269  18.127  0.00  0.00    +0.000 A 
ATOM     10  C   UNL     1       1.570   9.303  18.905  0.00  0.00    +0.000 A 
ATOM     11  C   UNL     1       1.323   9.055  20.265  0.00  0.00    +0.000 A 
ATOM     12  C   UNL     1       1.464   7.723  20.776  0.00  0.00    +0.000 A 
ATOM     13  C   UNL     1       2.000   6.668  19.992  0.00  0.00    +0.000 A 
ATOM     14  C   UNL     1       2.395   5.279  20.586  0.00  0.00    +0.000 C 
ATOM     15  C   UNL     1       1.259   4.362  21.112  0.00  0.00    +0.000 C 
ENDROOT
BRANCH  10  16
ATOM     16  O   UNL     1       1.502  10.479  18.204  0.00  0.00    +0.000 OA
BRANCH  16  17
ATOM     17  C   UNL     1       0.662  11.524  18.687  0.00  0.00    +0.000 C 
BRANCH  17  18
ATOM     18  C   UNL     1      -0.802  11.253  18.345  0.00  0.00    +0.000 A 
ATOM     19  C   UNL     1      -1.114  10.207  17.461  0.00  0.00    +0.000 A 
ATOM     20  C   UNL     1      -2.443   9.888  17.144  0.00  0.00    +0.000 A 
ATOM     21  C   UNL     1      -3.480  10.624  17.711  0.00  0.00    +0.000 A 
ATOM     22  C   UNL     1      -3.194  11.655  18.608  0.00  0.00    +0.000 A 
ATOM     23  C   UNL     1      -1.863  11.960  18.932  0.00  0.00    +0.000 A 
ENDBRANCH  17  18
ENDBRANCH  16  17
ENDBRANCH  10  16
BRANCH  11  24
ATOM     24  O   UNL     1       1.029  10.153  21.053  0.00  0.00    +0.000 OA
BRANCH  24  25
ATOM     25  C   UNL     1       0.047   9.952  22.078  0.00  0.00    +0.000 C 
BRANCH  25  26
ATOM     26  C   UNL     1      -0.750  11.195  22.461  0.00  0.00    +0.000 A 
ATOM     27  C   UNL     1      -1.970  11.168  23.143  0.00  0.00    +0.000 A 
ATOM     28  C   UNL     1      -2.650  12.358  23.439  0.00  0.00    +0.000 A 
ATOM     29  C   UNL     1      -2.121  13.587  23.058  0.00  0.00    +0.000 A 
ATOM     30  C   UNL     1      -0.906  13.633  22.385  0.00  0.00    +0.000 A 
ATOM     31  C   UNL     1      -0.225  12.448  22.092  0.00  0.00    +0.000 A 
ENDBRANCH  25  26
ENDBRANCH  24  25
ENDBRANCH  11  24
TORSDOF 6
ENDMDL
MODEL 8
REMARK VINA RESULT:      -7.7      2.500      9.511
REMARK  Name = 
REMARK  6 active torsions:
REMARK  status: ('A' for Active; 'I' for Inactive)
REMARK    1  A    between atoms: C_10  and  O_11
REMARK    2  A    between atoms: O_11  and  C_12
REMARK    3  A    between atoms: C_12  and  C_13
REMARK    4  A    between atoms: C_19  and  O_20
REMARK    5  A    between atoms: O_20  and  C_21
REMARK    6  A    between atoms: C_21  and  C_22
REMARK                            x       y       z     vdW  Elec       q    Type
REMARK                         _______ _______ _______ _____ _____    ______ ____
ROOT
ATOM      1  O   UNL     1       5.455   4.560  15.668  0.00  0.00    +0.000 OA
ATOM      2  C   UNL     1       4.844   4.720  16.724  0.00  0.00    +0.000 C 
ATOM      3  C   UNL     1       4.622   3.537  17.619  0.00  0.00    +0.000 C 
ATOM      4  C   UNL     1       3.874   3.867  18.681  0.00  0.00    +0.000 C 
ATOM      5  N   UNL     1       2.763   4.702  18.478  0.00  0.00    +0.000 N 
ATOM      6  C   UNL     1       1.636   4.616  19.402  0.00  0.00    +0.000 C 
ATOM      7  C   UNL     1       1.927   5.542  20.565  0.00  0.00    +0.000 C 
ATOM      8  C   UNL     1       2.012   6.946  20.026  0.00  0.00    +0.000 A 
ATOM      9  C   UNL     1       1.504   7.971  20.838  0.00  0.00    +0.000 A 
ATOM     10  C   UNL     1       1.272   9.254  20.348  0.00  0.00    +0.000 A 
ATOM     11  C   UNL     1       1.562   9.515  18.999  0.00  0.00    +0.000 A 
ATOM     12  C   UNL     1       2.220   8.513  18.212  0.00  0.00    +0.000 A 
ATOM     13  C   UNL     1       2.448   7.200  18.701  0.00  0.00    +0.000 A 
ATOM     14  C   UNL     1       2.932   6.024  17.796  0.00  0.00    +0.000 C 
ATOM     15  C   UNL     1       4.368   6.098  17.211  0.00  0.00    +0.000 C 
ENDROOT
BRANCH  10  16
ATOM     16  O   UNL     1       0.657  10.048  21.280  0.00  0.00    +0.000 OA
BRANCH  16  17
ATOM     17  C   UNL     1      -0.767  10.095  21.316  0.00  0.00    +0.000 C 
BRANCH  17  18
ATOM     18  C   UNL     1      -1.262  11.503  21.640  0.00  0.00    +0.000 A 
ATOM     19  C   UNL     1      -1.991  12.211  20.670  0.00  0.00    +0.000 A 
ATOM     20  C   UNL     1      -2.505  13.489  20.929  0.00  0.00    +0.000 A 
ATOM     21  C   UNL     1      -2.286  14.079  22.172  0.00  0.00    +0.000 A 
ATOM     22  C   UNL     1      -1.581  13.387  23.158  0.00  0.00    +0.000 A 
ATOM     23  C   UNL     1      -1.082  12.101  22.898  0.00  0.00    +0.000 A 
ENDBRANCH  17  18
ENDBRANCH  16  17
ENDBRANCH  10  16
BRANCH  11  24
ATOM     24  O   UNL     1       1.113  10.720  18.490  0.00  0.00    +0.000 OA
BRANCH  24  25
ATOM     25  C   UNL     1       2.041  11.812  18.539  0.00  0.00    +0.000 C 
BRANCH  25  26
ATOM     26  C   UNL     1       1.536  13.056  19.264  0.00  0.00    +0.000 A 
ATOM     27  C   UNL     1       0.684  14.008  18.695  0.00  0.00    +0.000 A 
ATOM     28  C   UNL     1       0.284  15.135  19.426  0.00  0.00    +0.000 A 
ATOM     29  C   UNL     1       0.728  15.326  20.730  0.00  0.00    +0.000 A 
ATOM     30  C   UNL     1       1.568  14.387  21.314  0.00  0.00    +0.000 A 
ATOM     31  C   UNL     1       1.968  13.260  20.589  0.00  0.00    +0.000 A 
ENDBRANCH  25  26
ENDBRANCH  24  25
ENDBRANCH  11  24
TORSDOF 6
ENDMDL
MODEL 9
REMARK VINA RESULT:      -7.7      2.427      9.154
REMARK  Name = 
REMARK  6 active torsions:
REMARK  status: ('A' for Active; 'I' for Inactive)
REMARK    1  A    between atoms: C_10  and  O_11
REMARK    2  A    between atoms: O_11  and  C_12
REMARK    3  A    between atoms: C_12  and  C_13
REMARK    4  A    between atoms: C_19  and  O_20
REMARK    5  A    between atoms: O_20  and  C_21
REMARK    6  A    between atoms: C_21  and  C_22
REMARK                            x       y       z     vdW  Elec       q    Type
REMARK                         _______ _______ _______ _____ _____    ______ ____
ROOT
ATOM      1  O   UNL     1       5.660   6.057  15.612  0.00  0.00    +0.000 OA
ATOM      2  C   UNL     1       5.047   5.987  16.676  0.00  0.00    +0.000 C 
ATOM      3  C   UNL     1       5.133   4.722  17.480  0.00  0.00    +0.000 C 
ATOM      4  C   UNL     1       4.345   4.782  18.562  0.00  0.00    +0.000 C 
ATOM      5  N   UNL     1       3.062   5.336  18.421  0.00  0.00    +0.000 N 
ATOM      6  C   UNL     1       2.005   4.910  19.334  0.00  0.00    +0.000 C 
ATOM      7  C   UNL     1       2.083   5.792  20.565  0.00  0.00    +0.000 C 
ATOM      8  C   UNL     1       1.817   7.210  20.133  0.00  0.00    +0.000 A 
ATOM      9  C   UNL     1       1.089   8.018  21.019  0.00  0.00    +0.000 A 
ATOM     10  C   UNL     1       0.545   9.239  20.626  0.00  0.00    +0.000 A 
ATOM     11  C   UNL     1       0.739   9.661  19.301  0.00  0.00    +0.000 A 
ATOM     12  C   UNL     1       1.607   8.910  18.442  0.00  0.00    +0.000 A 
ATOM     13  C   UNL     1       2.155   7.659  18.831  0.00  0.00    +0.000 A 
ATOM     14  C   UNL     1       2.894   6.705  17.841  0.00  0.00    +0.000 C 
ATOM     15  C   UNL     1       4.259   7.168  17.265  0.00  0.00    +0.000 C 
ENDROOT
BRANCH  10  16
ATOM     16  O   UNL     1      -0.229   9.790  21.615  0.00  0.00    +0.000 OA
BRANCH  16  17
ATOM     17  C   UNL     1       0.261  10.925  22.323  0.00  0.00    +0.000 C 
BRANCH  17  18
ATOM     18  C   UNL     1      -0.874  11.887  22.668  0.00  0.00    +0.000 A 
ATOM     19  C   UNL     1      -0.739  13.247  22.344  0.00  0.00    +0.000 A 
ATOM     20  C   UNL     1      -1.766  14.167  22.601  0.00  0.00    +0.000 A 
ATOM     21  C   UNL     1      -2.947  13.730  23.196  0.00  0.00    +0.000 A 
ATOM     22  C   UNL     1      -3.111  12.380  23.509  0.00  0.00    +0.000 A 
ATOM     23  C   UNL     1      -2.086  11.462  23.236  0.00  0.00    +0.000 A 
ENDBRANCH  17  18
ENDBRANCH  16  17
ENDBRANCH  10  16
BRANCH  11  24
ATOM     24  O   UNL     1       0.004  10.754  18.883  0.00  0.00    +0.000 OA
BRANCH  24  25
ATOM     25  C   UNL     1      -1.412  10.686  19.102  0.00  0.00    +0.000 C 
BRANCH  25  26
ATOM     26  C   UNL     1      -2.262  10.682  17.834  0.00  0.00    +0.000 A 
ATOM     27  C   UNL     1      -3.451  11.402  17.682  0.00  0.00    +0.000 A 
ATOM     28  C   UNL     1      -4.183  11.326  16.489  0.00  0.00    +0.000 A 
ATOM     29  C   UNL     1      -3.738  10.534  15.436  0.00  0.00    +0.000 A 
ATOM     30  C   UNL     1      -2.555   9.818  15.567  0.00  0.00    +0.000 A 
ATOM     31  C   UNL     1      -1.821   9.893  16.755  0.00  0.00    +0.000 A 
ENDBRANCH  25  26
ENDBRANCH  24  25
ENDBRANCH  11  24
TORSDOF 6
ENDMDL
