MODEL 1
REMARK VINA RESULT:      -7.4      0.000      0.000
REMARK  Name = 
REMARK  10 active torsions:
REMARK  status: ('A' for Active; 'I' for Inactive)
REMARK    1  A    between atoms: C_1  and  N_2
REMARK    2  A    between atoms: N_7  and  C_8
REMARK    3  A    between atoms: C_8  and  C_9
REMARK    4  A    between atoms: C_9  and  O_10
REMARK    5  A    between atoms: O_10  and  C_11
REMARK    6  A    between atoms: C_13  and  O_14
REMARK    7  A    between atoms: O_14  and  S_15
REMARK    8  A    between atoms: C_21  and  O_22
REMARK    9  A    between atoms: O_22  and  C_23
REMARK   10  A    between atoms: C_28  and  C_29
REMARK                            x       y       z     vdW  Elec       q    Type
REMARK                         _______ _______ _______ _____ _____    ______ ____
ROOT
ATOM      1  C   UNL     1       2.146   6.784  19.735  0.00  0.00    +0.000 A 
ATOM      2  C   UNL     1       1.714   8.045  20.168  0.00  0.00    +0.000 A 
ATOM      3  C   UNL     1       1.633   9.120  19.286  0.00  0.00    +0.000 A 
ATOM      4  C   UNL     1       2.118   8.981  17.991  0.00  0.00    +0.000 A 
ATOM      5  C   UNL     1       2.660   7.758  17.580  0.00  0.00    +0.000 A 
ATOM      6  C   UNL     1       2.691   6.658  18.450  0.00  0.00    +0.000 A 
ENDROOT
BRANCH   1   7
ATOM      7  O   UNL     1       2.029   5.666  20.527  0.00  0.00    +0.000 OA
BRANCH   7   8
ATOM      8  C   UNL     1       0.747   5.027  20.469  0.00  0.00    +0.000 C 
BRANCH   8   9
ATOM      9  C   UNL     1       0.857   3.564  20.885  0.00  0.00    +0.000 C 
BRANCH   9  16
ATOM     10  C   UNL     1       5.085   1.258  20.068  0.00  0.00    +0.000 C 
ATOM     11  N   UNL     1       3.826   1.772  19.565  0.00  0.00    +0.000 N 
ATOM     12  C   UNL     1       3.577   1.704  18.208  0.00  0.00    +0.000 A 
ATOM     13  O   UNL     1       4.359   1.276  17.363  0.00  0.00    +0.000 OA
ATOM     14  C   UNL     1       2.262   2.196  17.765  0.00  0.00    +0.000 A 
ATOM     15  C   UNL     1       1.429   2.733  18.652  0.00  0.00    +0.000 A 
ATOM     16  N   UNL     1       1.757   2.833  19.984  0.00  0.00    +0.000 N 
ATOM     17  C   UNL     1       2.979   2.383  20.488  0.00  0.00    +0.000 A 
ATOM     18  O   UNL     1       3.292   2.536  21.670  0.00  0.00    +0.000 OA
ENDBRANCH   9  16
ENDBRANCH   8   9
ENDBRANCH   7   8
ENDBRANCH   1   7
BRANCH   3  19
ATOM     19  O   UNL     1       1.084  10.331  19.627  0.00  0.00    +0.000 OA
BRANCH  19  20
ATOM     20  S   UNL     1       0.132  10.466  20.957  0.00  0.00    +0.000 S 
ATOM     21  O   UNL     1       0.954  10.408  22.147  0.00  0.00    +0.000 OA
ATOM     22  O   UNL     1      -0.821  11.539  20.750  0.00  0.00    +0.000 OA
ATOM     23  F   UNL     1      -0.742   9.144  20.986  0.00  0.00    +0.000 F 
ENDBRANCH  19  20
ENDBRANCH   3  19
BRANCH   6  24
ATOM     24  O   UNL     1       3.168   5.493  17.887  0.00  0.00    +0.000 OA
BRANCH  24  25
ATOM     25  C   UNL     1       4.435   5.425  17.357  0.00  0.00    +0.000 A 
ATOM     26  C   UNL     1       5.451   5.941  18.167  0.00  0.00    +0.000 A 
ATOM     27  C   UNL     1       6.770   5.941  17.718  0.00  0.00    +0.000 A 
ATOM     28 CL   UNL     1       8.016   6.582  18.718  0.00  0.00    +0.000 Cl
ATOM     29  C   UNL     1       7.091   5.434  16.461  0.00  0.00    +0.000 A 
ATOM     30  C   UNL     1       6.082   4.890  15.664  0.00  0.00    +0.000 A 
ATOM     31  C   UNL     1       4.761   4.854  16.126  0.00  0.00    +0.000 A 
BRANCH  30  32
ATOM     32  C   UNL     1       6.392   4.390  14.360  0.00  0.00    +0.000 C 
ATOM     33  N   UNL     1       6.623   3.976  13.303  0.00  0.00    +0.000 NA
ENDBRANCH  30  32
ENDBRANCH  24  25
ENDBRANCH   6  24
TORSDOF 9
ENDMDL
MODEL 2
REMARK VINA RESULT:      -7.2      1.664      2.099
REMARK  Name = 
REMARK  10 active torsions:
REMARK  status: ('A' for Active; 'I' for Inactive)
REMARK    1  A    between atoms: C_1  and  N_2
REMARK    2  A    between atoms: N_7  and  C_8
REMARK    3  A    between atoms: C_8  and  C_9
REMARK    4  A    between atoms: C_9  and  O_10
REMARK    5  A    between atoms: O_10  and  C_11
REMARK    6  A    between atoms: C_13  and  O_14
REMARK    7  A    between atoms: O_14  and  S_15
REMARK    8  A    between atoms: C_21  and  O_22
REMARK    9  A    between atoms: O_22  and  C_23
REMARK   10  A    between atoms: C_28  and  C_29
REMARK                            x       y       z     vdW  Elec       q    Type
REMARK                         _______ _______ _______ _____ _____    ______ ____
ROOT
ATOM      1  C   UNL     1       2.270   7.048  19.478  0.00  0.00    +0.000 A 
ATOM      2  C   UNL     1       1.819   8.182  20.166  0.00  0.00    +0.000 A 
ATOM      3  C   UNL     1       1.623   9.394  19.508  0.00  0.00    +0.000 A 
ATOM      4  C   UNL     1       2.013   9.521  18.180  0.00  0.00    +0.000 A 
ATOM      5  C   UNL     1       2.574   8.427  17.512  0.00  0.00    +0.000 A 
ATOM      6  C   UNL     1       2.719   7.190  18.158  0.00  0.00    +0.000 A 
ENDROOT
BRANCH   1   7
ATOM      7  O   UNL     1       2.263   5.799  20.053  0.00  0.00    +0.000 OA
BRANCH   7   8
ATOM      8  C   UNL     1       1.077   5.494  20.799  0.00  0.00    +0.000 C 
BRANCH   8   9
ATOM      9  C   UNL     1       0.758   4.005  20.715  0.00  0.00    +0.000 C 
BRANCH   9  16
ATOM     10  C   UNL     1       4.896   1.529  19.935  0.00  0.00    +0.000 C 
ATOM     11  N   UNL     1       3.715   2.183  19.408  0.00  0.00    +0.000 N 
ATOM     12  C   UNL     1       3.574   2.293  18.038  0.00  0.00    +0.000 A 
ATOM     13  O   UNL     1       4.397   1.916  17.207  0.00  0.00    +0.000 OA
ATOM     14  C   UNL     1       2.332   2.923  17.562  0.00  0.00    +0.000 A 
ATOM     15  C   UNL     1       1.462   3.407  18.445  0.00  0.00    +0.000 A 
ATOM     16  N   UNL     1       1.684   3.327  19.799  0.00  0.00    +0.000 N 
ATOM     17  C   UNL     1       2.833   2.737  20.333  0.00  0.00    +0.000 A 
ATOM     18  O   UNL     1       3.056   2.728  21.546  0.00  0.00    +0.000 OA
ENDBRANCH   9  16
ENDBRANCH   8   9
ENDBRANCH   7   8
ENDBRANCH   1   7
BRANCH   3  19
ATOM     19  O   UNL     1       1.050  10.489  20.105  0.00  0.00    +0.000 OA
BRANCH  19  20
ATOM     20  S   UNL     1      -0.558  10.511  20.430  0.00  0.00    +0.000 S 
ATOM     21  O   UNL     1      -0.805   9.843  21.691  0.00  0.00    +0.000 OA
ATOM     22  O   UNL     1      -1.076  11.840  20.167  0.00  0.00    +0.000 OA
ATOM     23  F   UNL     1      -1.224   9.587  19.329  0.00  0.00    +0.000 F 
ENDBRANCH  19  20
ENDBRANCH   3  19
BRANCH   6  24
ATOM     24  O   UNL     1       3.201   6.177  17.357  0.00  0.00    +0.000 OA
BRANCH  24  25
ATOM     25  C   UNL     1       4.536   5.848  17.350  0.00  0.00    +0.000 A 
ATOM     26  C   UNL     1       5.065   5.517  16.098  0.00  0.00    +0.000 A 
ATOM     27  C   UNL     1       6.403   5.147  15.981  0.00  0.00    +0.000 A 
ATOM     28 CL   UNL     1       7.046   4.736  14.438  0.00  0.00    +0.000 Cl
ATOM     29  C   UNL     1       7.226   5.097  17.103  0.00  0.00    +0.000 A 
ATOM     30  C   UNL     1       6.708   5.457  18.349  0.00  0.00    +0.000 A 
ATOM     31  C   UNL     1       5.374   5.866  18.466  0.00  0.00    +0.000 A 
BRANCH  30  32
ATOM     32  C   UNL     1       7.534   5.386  19.514  0.00  0.00    +0.000 C 
ATOM     33  N   UNL     1       8.185   5.336  20.471  0.00  0.00    +0.000 NA
ENDBRANCH  30  32
ENDBRANCH  24  25
ENDBRANCH   6  24
TORSDOF 9
ENDMDL
MODEL 3
REMARK VINA RESULT:      -7.2      3.065      6.155
REMARK  Name = 
REMARK  10 active torsions:
REMARK  status: ('A' for Active; 'I' for Inactive)
REMARK    1  A    between atoms: C_1  and  N_2
REMARK    2  A    between atoms: N_7  and  C_8
REMARK    3  A    between atoms: C_8  and  C_9
REMARK    4  A    between atoms: C_9  and  O_10
REMARK    5  A    between atoms: O_10  and  C_11
REMARK    6  A    between atoms: C_13  and  O_14
REMARK    7  A    between atoms: O_14  and  S_15
REMARK    8  A    between atoms: C_21  and  O_22
REMARK    9  A    between atoms: O_22  and  C_23
REMARK   10  A    between atoms: C_28  and  C_29
REMARK                            x       y       z     vdW  Elec       q    Type
REMARK                         _______ _______ _______ _____ _____    ______ ____
ROOT
ATOM      1  C   UNL     1       3.925   4.893  17.273  0.00  0.00    +0.000 A 
ATOM      2  C   UNL     1       2.733   4.475  17.880  0.00  0.00    +0.000 A 
ATOM      3  C   UNL     1       2.633   3.224  18.485  0.00  0.00    +0.000 A 
ATOM      4  C   UNL     1       3.683   2.321  18.365  0.00  0.00    +0.000 A 
ATOM      5  C   UNL     1       4.836   2.684  17.661  0.00  0.00    +0.000 A 
ATOM      6  C   UNL     1       4.960   3.964  17.099  0.00  0.00    +0.000 A 
ENDROOT
BRANCH   1   7
ATOM      7  O   UNL     1       4.115   6.192  16.865  0.00  0.00    +0.000 OA
BRANCH   7   8
ATOM      8  C   UNL     1       4.010   7.166  17.912  0.00  0.00    +0.000 C 
BRANCH   8   9
ATOM      9  C   UNL     1       2.884   8.153  17.617  0.00  0.00    +0.000 C 
BRANCH   9  16
ATOM     10  C   UNL     1      -0.456  10.725  20.083  0.00  0.00    +0.000 C 
ATOM     11  N   UNL     1       0.458   9.601  20.021  0.00  0.00    +0.000 N 
ATOM     12  C   UNL     1       0.616   8.813  21.144  0.00  0.00    +0.000 A 
ATOM     13  O   UNL     1       0.074   9.006  22.230  0.00  0.00    +0.000 OA
ATOM     14  C   UNL     1       1.519   7.659  21.005  0.00  0.00    +0.000 A 
ATOM     15  C   UNL     1       2.176   7.474  19.862  0.00  0.00    +0.000 A 
ATOM     16  N   UNL     1       2.027   8.329  18.796  0.00  0.00    +0.000 N 
ATOM     17  C   UNL     1       1.184   9.442  18.843  0.00  0.00    +0.000 A 
ATOM     18  O   UNL     1       1.106  10.239  17.906  0.00  0.00    +0.000 OA
ENDBRANCH   9  16
ENDBRANCH   8   9
ENDBRANCH   7   8
ENDBRANCH   1   7
BRANCH   3  19
ATOM     19  O   UNL     1       1.539   2.827  19.213  0.00  0.00    +0.000 OA
BRANCH  19  20
ATOM     20  S   UNL     1       1.251   3.469  20.695  0.00  0.00    +0.000 S 
ATOM     21  O   UNL     1       0.301   4.555  20.575  0.00  0.00    +0.000 OA
ATOM     22  O   UNL     1       1.049   2.393  21.646  0.00  0.00    +0.000 OA
ATOM     23  F   UNL     1       2.613   4.150  21.132  0.00  0.00    +0.000 F 
ENDBRANCH  19  20
ENDBRANCH   3  19
BRANCH   6  24
ATOM     24  O   UNL     1       6.181   4.218  16.512  0.00  0.00    +0.000 OA
BRANCH  24  25
ATOM     25  C   UNL     1       6.318   4.268  15.145  0.00  0.00    +0.000 A 
ATOM     26  C   UNL     1       7.441   4.960  14.681  0.00  0.00    +0.000 A 
ATOM     27  C   UNL     1       7.665   5.090  13.312  0.00  0.00    +0.000 A 
ATOM     28 CL   UNL     1       9.046   5.947  12.747  0.00  0.00    +0.000 Cl
ATOM     29  C   UNL     1       6.776   4.539  12.392  0.00  0.00    +0.000 A 
ATOM     30  C   UNL     1       5.671   3.820  12.854  0.00  0.00    +0.000 A 
ATOM     31  C   UNL     1       5.461   3.655  14.228  0.00  0.00    +0.000 A 
BRANCH  30  32
ATOM     32  C   UNL     1       4.735   3.271  11.922  0.00  0.00    +0.000 C 
ATOM     33  N   UNL     1       3.972   2.848  11.159  0.00  0.00    +0.000 NA
ENDBRANCH  30  32
ENDBRANCH  24  25
ENDBRANCH   6  24
TORSDOF 9
ENDMDL
MODEL 4
REMARK VINA RESULT:      -7.1      1.888      2.243
REMARK  Name = 
REMARK  10 active torsions:
REMARK  status: ('A' for Active; 'I' for Inactive)
REMARK    1  A    between atoms: C_1  and  N_2
REMARK    2  A    between atoms: N_7  and  C_8
REMARK    3  A    between atoms: C_8  and  C_9
REMARK    4  A    between atoms: C_9  and  O_10
REMARK    5  A    between atoms: O_10  and  C_11
REMARK    6  A    between atoms: C_13  and  O_14
REMARK    7  A    between atoms: O_14  and  S_15
REMARK    8  A    between atoms: C_21  and  O_22
REMARK    9  A    between atoms: O_22  and  C_23
REMARK   10  A    between atoms: C_28  and  C_29
REMARK                            x       y       z     vdW  Elec       q    Type
REMARK                         _______ _______ _______ _____ _____    ______ ____
ROOT
ATOM      1  C   UNL     1       2.148   7.243  19.540  0.00  0.00    +0.000 A 
ATOM      2  C   UNL     1       1.626   8.147  20.474  0.00  0.00    +0.000 A 
ATOM      3  C   UNL     1       1.143   9.393  20.079  0.00  0.00    +0.000 A 
ATOM      4  C   UNL     1       1.309   9.803  18.761  0.00  0.00    +0.000 A 
ATOM      5  C   UNL     1       1.936   8.954  17.842  0.00  0.00    +0.000 A 
ATOM      6  C   UNL     1       2.371   7.677  18.226  0.00  0.00    +0.000 A 
ENDROOT
BRANCH   1   7
ATOM      7  O   UNL     1       2.426   5.937  19.871  0.00  0.00    +0.000 OA
BRANCH   7   8
ATOM      8  C   UNL     1       1.634   5.414  20.944  0.00  0.00    +0.000 C 
BRANCH   8   9
ATOM      9  C   UNL     1       0.892   4.157  20.501  0.00  0.00    +0.000 C 
BRANCH   9  16
ATOM     10  C   UNL     1       4.775   1.220  20.112  0.00  0.00    +0.000 C 
ATOM     11  N   UNL     1       3.676   1.927  19.483  0.00  0.00    +0.000 N 
ATOM     12  C   UNL     1       3.575   1.903  18.106  0.00  0.00    +0.000 A 
ATOM     13  O   UNL     1       4.373   1.360  17.344  0.00  0.00    +0.000 OA
ATOM     14  C   UNL     1       2.412   2.597  17.529  0.00  0.00    +0.000 A 
ATOM     15  C   UNL     1       1.578   3.255  18.329  0.00  0.00    +0.000 A 
ATOM     16  N   UNL     1       1.764   3.298  19.691  0.00  0.00    +0.000 N 
ATOM     17  C   UNL     1       2.836   2.660  20.318  0.00  0.00    +0.000 A 
ATOM     18  O   UNL     1       3.032   2.758  21.531  0.00  0.00    +0.000 OA
ENDBRANCH   9  16
ENDBRANCH   8   9
ENDBRANCH   7   8
ENDBRANCH   1   7
BRANCH   3  19
ATOM     19  O   UNL     1       0.495  10.252  20.931  0.00  0.00    +0.000 OA
BRANCH  19  20
ATOM     20  S   UNL     1       0.017   9.744  22.416  0.00  0.00    +0.000 S 
ATOM     21  O   UNL     1      -0.430  10.880  23.194  0.00  0.00    +0.000 OA
ATOM     22  O   UNL     1      -0.807   8.560  22.269  0.00  0.00    +0.000 OA
ATOM     23  F   UNL     1       1.336   9.238  23.134  0.00  0.00    +0.000 F 
ENDBRANCH  19  20
ENDBRANCH   3  19
BRANCH   6  24
ATOM     24  O   UNL     1       2.888   6.914  17.201  0.00  0.00    +0.000 OA
BRANCH  24  25
ATOM     25  C   UNL     1       4.241   6.693  17.089  0.00  0.00    +0.000 A 
ATOM     26  C   UNL     1       4.602   5.451  16.558  0.00  0.00    +0.000 A 
ATOM     27  C   UNL     1       5.947   5.115  16.421  0.00  0.00    +0.000 A 
ATOM     28 CL   UNL     1       6.386   3.583  15.771  0.00  0.00    +0.000 Cl
ATOM     29  C   UNL     1       6.944   6.006  16.812  0.00  0.00    +0.000 A 
ATOM     30  C   UNL     1       6.585   7.259  17.313  0.00  0.00    +0.000 A 
ATOM     31  C   UNL     1       5.235   7.615  17.419  0.00  0.00    +0.000 A 
BRANCH  30  32
ATOM     32  C   UNL     1       7.597   8.174  17.744  0.00  0.00    +0.000 C 
ATOM     33  N   UNL     1       8.401   8.925  18.105  0.00  0.00    +0.000 NA
ENDBRANCH  30  32
ENDBRANCH  24  25
ENDBRANCH   6  24
TORSDOF 9
ENDMDL
MODEL 5
REMARK VINA RESULT:      -7.1      5.369      7.584
REMARK  Name = 
REMARK  10 active torsions:
REMARK  status: ('A' for Active; 'I' for Inactive)
REMARK    1  A    between atoms: C_1  and  N_2
REMARK    2  A    between atoms: N_7  and  C_8
REMARK    3  A    between atoms: C_8  and  C_9
REMARK    4  A    between atoms: C_9  and  O_10
REMARK    5  A    between atoms: O_10  and  C_11
REMARK    6  A    between atoms: C_13  and  O_14
REMARK    7  A    between atoms: O_14  and  S_15
REMARK    8  A    between atoms: C_21  and  O_22
REMARK    9  A    between atoms: O_22  and  C_23
REMARK   10  A    between atoms: C_28  and  C_29
REMARK                            x       y       z     vdW  Elec       q    Type
REMARK                         _______ _______ _______ _____ _____    ______ ____
ROOT
ATOM      1  C   UNL     1       0.656  11.340  18.948  0.00  0.00    +0.000 A 
ATOM      2  C   UNL     1       1.910  11.873  18.621  0.00  0.00    +0.000 A 
ATOM      3  C   UNL     1       2.117  13.250  18.572  0.00  0.00    +0.000 A 
ATOM      4  C   UNL     1       1.033  14.109  18.712  0.00  0.00    +0.000 A 
ATOM      5  C   UNL     1      -0.247  13.585  18.924  0.00  0.00    +0.000 A 
ATOM      6  C   UNL     1      -0.447  12.201  19.029  0.00  0.00    +0.000 A 
ENDROOT
BRANCH   1   7
ATOM      7  O   UNL     1       0.484  10.002  19.213  0.00  0.00    +0.000 OA
BRANCH   7   8
ATOM      8  C   UNL     1       1.517   9.155  18.694  0.00  0.00    +0.000 C 
BRANCH   8   9
ATOM      9  C   UNL     1       1.870   8.062  19.698  0.00  0.00    +0.000 C 
BRANCH   9  16
ATOM     10  C   UNL     1       3.437   3.436  19.627  0.00  0.00    +0.000 C 
ATOM     11  N   UNL     1       3.429   4.760  19.038  0.00  0.00    +0.000 N 
ATOM     12  C   UNL     1       4.259   5.012  17.962  0.00  0.00    +0.000 A 
ATOM     13  O   UNL     1       5.053   4.210  17.474  0.00  0.00    +0.000 OA
ATOM     14  C   UNL     1       4.171   6.359  17.376  0.00  0.00    +0.000 A 
ATOM     15  C   UNL     1       3.374   7.267  17.935  0.00  0.00    +0.000 A 
ATOM     16  N   UNL     1       2.617   6.979  19.046  0.00  0.00    +0.000 N 
ATOM     17  C   UNL     1       2.636   5.724  19.658  0.00  0.00    +0.000 A 
ATOM     18  O   UNL     1       2.005   5.493  20.691  0.00  0.00    +0.000 OA
ENDBRANCH   9  16
ENDBRANCH   8   9
ENDBRANCH   7   8
ENDBRANCH   1   7
BRANCH   3  19
ATOM     19  O   UNL     1       3.354  13.818  18.397  0.00  0.00    +0.000 OA
BRANCH  19  20
ATOM     20  S   UNL     1       3.999  14.778  19.562  0.00  0.00    +0.000 S 
ATOM     21  O   UNL     1       3.625  16.154  19.314  0.00  0.00    +0.000 OA
ATOM     22  O   UNL     1       3.785  14.160  20.856  0.00  0.00    +0.000 OA
ATOM     23  F   UNL     1       5.566  14.722  19.335  0.00  0.00    +0.000 F 
ENDBRANCH  19  20
ENDBRANCH   3  19
BRANCH   6  24
ATOM     24  O   UNL     1      -1.740  11.828  19.327  0.00  0.00    +0.000 OA
BRANCH  24  25
ATOM     25  C   UNL     1      -2.657  11.579  18.333  0.00  0.00    +0.000 A 
ATOM     26  C   UNL     1      -3.993  11.809  18.679  0.00  0.00    +0.000 A 
ATOM     27  C   UNL     1      -5.006  11.568  17.754  0.00  0.00    +0.000 A 
ATOM     28 CL   UNL     1      -6.647  11.848  18.188  0.00  0.00    +0.000 Cl
ATOM     29  C   UNL     1      -4.704  11.094  16.479  0.00  0.00    +0.000 A 
ATOM     30  C   UNL     1      -3.369  10.894  16.122  0.00  0.00    +0.000 A 
ATOM     31  C   UNL     1      -2.345  11.170  17.036  0.00  0.00    +0.000 A 
BRANCH  30  32
ATOM     32  C   UNL     1      -3.045  10.382  14.826  0.00  0.00    +0.000 C 
ATOM     33  N   UNL     1      -2.794   9.948  13.781  0.00  0.00    +0.000 NA
ENDBRANCH  30  32
ENDBRANCH  24  25
ENDBRANCH   6  24
TORSDOF 9
ENDMDL
MODEL 6
REMARK VINA RESULT:      -7.1      3.833      6.887
REMARK  Name = 
REMARK  10 active torsions:
REMARK  status: ('A' for Active; 'I' for Inactive)
REMARK    1  A    between atoms: C_1  and  N_2
REMARK    2  A    between atoms: N_7  and  C_8
REMARK    3  A    between atoms: C_8  and  C_9
REMARK    4  A    between atoms: C_9  and  O_10
REMARK    5  A    between atoms: O_10  and  C_11
REMARK    6  A    between atoms: C_13  and  O_14
REMARK    7  A    between atoms: O_14  and  S_15
REMARK    8  A    between atoms: C_21  and  O_22
REMARK    9  A    between atoms: O_22  and  C_23
REMARK   10  A    between atoms: C_28  and  C_29
REMARK                            x       y       z     vdW  Elec       q    Type
REMARK                         _______ _______ _______ _____ _____    ______ ____
ROOT
ATOM      1  C   UNL     1       3.563   6.190  17.489  0.00  0.00    +0.000 A 
ATOM      2  C   UNL     1       2.558   5.270  17.814  0.00  0.00    +0.000 A 
ATOM      3  C   UNL     1       2.702   3.914  17.528  0.00  0.00    +0.000 A 
ATOM      4  C   UNL     1       3.794   3.485  16.783  0.00  0.00    +0.000 A 
ATOM      5  C   UNL     1       4.749   4.412  16.351  0.00  0.00    +0.000 A 
ATOM      6  C   UNL     1       4.633   5.770  16.687  0.00  0.00    +0.000 A 
ENDROOT
BRANCH   1   7
ATOM      7  O   UNL     1       3.540   7.484  17.951  0.00  0.00    +0.000 OA
BRANCH   7   8
ATOM      8  C   UNL     1       2.568   7.733  18.975  0.00  0.00    +0.000 C 
BRANCH   8   9
ATOM      9  C   UNL     1       1.694   8.928  18.608  0.00  0.00    +0.000 C 
BRANCH   9  16
ATOM     10  C   UNL     1      -0.015  12.702  21.195  0.00  0.00    +0.000 C 
ATOM     11  N   UNL     1       0.234  11.278  21.080  0.00  0.00    +0.000 N 
ATOM     12  C   UNL     1      -0.037  10.468  22.165  0.00  0.00    +0.000 A 
ATOM     13  O   UNL     1      -0.438  10.857  23.259  0.00  0.00    +0.000 OA
ATOM     14  C   UNL     1       0.189   9.026  21.971  0.00  0.00    +0.000 A 
ATOM     15  C   UNL     1       0.696   8.591  20.820  0.00  0.00    +0.000 A 
ATOM     16  N   UNL     1       1.007   9.452  19.795  0.00  0.00    +0.000 N 
ATOM     17  C   UNL     1       0.815  10.832  19.894  0.00  0.00    +0.000 A 
ATOM     18  O   UNL     1       1.157  11.604  18.996  0.00  0.00    +0.000 OA
ENDBRANCH   9  16
ENDBRANCH   8   9
ENDBRANCH   7   8
ENDBRANCH   1   7
BRANCH   3  19
ATOM     19  O   UNL     1       1.812   2.958  17.952  0.00  0.00    +0.000 OA
BRANCH  19  20
ATOM     20  S   UNL     1       1.724   2.554  19.540  0.00  0.00    +0.000 S 
ATOM     21  O   UNL     1       3.056   2.526  20.106  0.00  0.00    +0.000 OA
ATOM     22  O   UNL     1       0.656   3.312  20.162  0.00  0.00    +0.000 OA
ATOM     23  F   UNL     1       1.227   1.050  19.565  0.00  0.00    +0.000 F 
ENDBRANCH  19  20
ENDBRANCH   3  19
BRANCH   6  24
ATOM     24  O   UNL     1       5.688   6.555  16.273  0.00  0.00    +0.000 OA
BRANCH  24  25
ATOM     25  C   UNL     1       6.656   6.972  17.158  0.00  0.00    +0.000 A 
ATOM     26  C   UNL     1       7.068   6.013  18.089  0.00  0.00    +0.000 A 
ATOM     27  C   UNL     1       8.028   6.337  19.045  0.00  0.00    +0.000 A 
ATOM     28 CL   UNL     1       8.528   5.154  20.192  0.00  0.00    +0.000 Cl
ATOM     29  C   UNL     1       8.584   7.613  19.089  0.00  0.00    +0.000 A 
ATOM     30  C   UNL     1       8.197   8.561  18.140  0.00  0.00    +0.000 A 
ATOM     31  C   UNL     1       7.259   8.230  17.154  0.00  0.00    +0.000 A 
BRANCH  30  32
ATOM     32  C   UNL     1       8.739   9.884  18.188  0.00  0.00    +0.000 C 
ATOM     33  N   UNL     1       9.192  10.949  18.245  0.00  0.00    +0.000 NA
ENDBRANCH  30  32
ENDBRANCH  24  25
ENDBRANCH   6  24
TORSDOF 9
ENDMDL
MODEL 7
REMARK VINA RESULT:      -7.0      3.757      6.851
REMARK  Name = 
REMARK  10 active torsions:
REMARK  status: ('A' for Active; 'I' for Inactive)
REMARK    1  A    between atoms: C_1  and  N_2
REMARK    2  A    between atoms: N_7  and  C_8
REMARK    3  A    between atoms: C_8  and  C_9
REMARK    4  A    between atoms: C_9  and  O_10
REMARK    5  A    between atoms: O_10  and  C_11
REMARK    6  A    between atoms: C_13  and  O_14
REMARK    7  A    between atoms: O_14  and  S_15
REMARK    8  A    between atoms: C_21  and  O_22
REMARK    9  A    between atoms: O_22  and  C_23
REMARK   10  A    between atoms: C_28  and  C_29
REMARK                            x       y       z     vdW  Elec       q    Type
REMARK                         _______ _______ _______ _____ _____    ______ ____
ROOT
ATOM      1  C   UNL     1       3.076   6.866  17.681  0.00  0.00    +0.000 A 
ATOM      2  C   UNL     1       2.040   6.093  18.221  0.00  0.00    +0.000 A 
ATOM      3  C   UNL     1       2.172   4.715  18.370  0.00  0.00    +0.000 A 
ATOM      4  C   UNL     1       3.290   4.075  17.848  0.00  0.00    +0.000 A 
ATOM      5  C   UNL     1       4.281   4.823  17.201  0.00  0.00    +0.000 A 
ATOM      6  C   UNL     1       4.175   6.218  17.101  0.00  0.00    +0.000 A 
ENDROOT
BRANCH   1   7
ATOM      7  O   UNL     1       3.055   8.240  17.725  0.00  0.00    +0.000 OA
BRANCH   7   8
ATOM      8  C   UNL     1       1.742   8.815  17.740  0.00  0.00    +0.000 C 
BRANCH   8   9
ATOM      9  C   UNL     1       1.768  10.198  18.382  0.00  0.00    +0.000 C 
BRANCH   9  16
ATOM     10  C   UNL     1      -0.459  12.505  22.067  0.00  0.00    +0.000 C 
ATOM     11  N   UNL     1       0.106  11.290  21.515  0.00  0.00    +0.000 N 
ATOM     12  C   UNL     1       0.173  10.167  22.317  0.00  0.00    +0.000 A 
ATOM     13  O   UNL     1      -0.171  10.114  23.495  0.00  0.00    +0.000 OA
ATOM     14  C   UNL     1       0.712   8.951  21.686  0.00  0.00    +0.000 A 
ATOM     15  C   UNL     1       1.161   9.005  20.435  0.00  0.00    +0.000 A 
ATOM     16  N   UNL     1       1.128  10.169  19.703  0.00  0.00    +0.000 N 
ATOM     17  C   UNL     1       0.626  11.363  20.224  0.00  0.00    +0.000 A 
ATOM     18  O   UNL     1       0.659  12.417  19.585  0.00  0.00    +0.000 OA
ENDBRANCH   9  16
ENDBRANCH   8   9
ENDBRANCH   7   8
ENDBRANCH   1   7
BRANCH   3  19
ATOM     19  O   UNL     1       1.246   3.937  19.020  0.00  0.00    +0.000 OA
BRANCH  19  20
ATOM     20  S   UNL     1       1.728   2.821  20.123  0.00  0.00    +0.000 S 
ATOM     21  O   UNL     1       1.765   1.514  19.502  0.00  0.00    +0.000 OA
ATOM     22  O   UNL     1       2.867   3.340  20.854  0.00  0.00    +0.000 OA
ATOM     23  F   UNL     1       0.557   2.747  21.188  0.00  0.00    +0.000 F 
ENDBRANCH  19  20
ENDBRANCH   3  19
BRANCH   6  24
ATOM     24  O   UNL     1       5.262   6.836  16.521  0.00  0.00    +0.000 OA
BRANCH  24  25
ATOM     25  C   UNL     1       6.364   7.185  17.266  0.00  0.00    +0.000 A 
ATOM     26  C   UNL     1       6.885   6.172  18.077  0.00  0.00    +0.000 A 
ATOM     27  C   UNL     1       7.988   6.425  18.889  0.00  0.00    +0.000 A 
ATOM     28 CL   UNL     1       8.621   5.174  19.888  0.00  0.00    +0.000 Cl
ATOM     29  C   UNL     1       8.581   7.685  18.908  0.00  0.00    +0.000 A 
ATOM     30  C   UNL     1       8.081   8.689  18.076  0.00  0.00    +0.000 A 
ATOM     31  C   UNL     1       6.996   8.430  17.231  0.00  0.00    +0.000 A 
BRANCH  30  32
ATOM     32  C   UNL     1       8.662   9.996  18.105  0.00  0.00    +0.000 C 
ATOM     33  N   UNL     1       9.154  11.045  18.130  0.00  0.00    +0.000 NA
ENDBRANCH  30  32
ENDBRANCH  24  25
ENDBRANCH   6  24
TORSDOF 9
ENDMDL
MODEL 8
REMARK VINA RESULT:      -7.0      4.740      8.053
REMARK  Name = 
REMARK  10 active torsions:
REMARK  status: ('A' for Active; 'I' for Inactive)
REMARK    1  A    between atoms: C_1  and  N_2
REMARK    2  A    between atoms: N_7  and  C_8
REMARK    3  A    between atoms: C_8  and  C_9
REMARK    4  A    between atoms: C_9  and  O_10
REMARK    5  A    between atoms: O_10  and  C_11
REMARK    6  A    between atoms: C_13  and  O_14
REMARK    7  A    between atoms: O_14  and  S_15
REMARK    8  A    between atoms: C_21  and  O_22
REMARK    9  A    between atoms: O_22  and  C_23
REMARK   10  A    between atoms: C_28  and  C_29
REMARK                            x       y       z     vdW  Elec       q    Type
REMARK                         _______ _______ _______ _____ _____    ______ ____
ROOT
ATOM      1  C   UNL     1       0.188   9.443  20.366  0.00  0.00    +0.000 A 
ATOM      2  C   UNL     1      -0.658  10.390  19.772  0.00  0.00    +0.000 A 
ATOM      3  C   UNL     1      -0.635  10.614  18.398  0.00  0.00    +0.000 A 
ATOM      4  C   UNL     1       0.336   9.994  17.620  0.00  0.00    +0.000 A 
ATOM      5  C   UNL     1       1.263   9.135  18.220  0.00  0.00    +0.000 A 
ATOM      6  C   UNL     1       1.205   8.864  19.595  0.00  0.00    +0.000 A 
ENDROOT
BRANCH   1   7
ATOM      7  O   UNL     1       0.034   9.052  21.675  0.00  0.00    +0.000 OA
BRANCH   7   8
ATOM      8  C   UNL     1       0.189  10.107  22.633  0.00  0.00    +0.000 C 
BRANCH   8   9
ATOM      9  C   UNL     1      -1.162  10.505  23.218  0.00  0.00    +0.000 C 
BRANCH   9  16
ATOM     10  C   UNL     1      -4.169  14.349  23.421  0.00  0.00    +0.000 C 
ATOM     11  N   UNL     1      -2.890  13.784  23.040  0.00  0.00    +0.000 N 
ATOM     12  C   UNL     1      -2.002  14.571  22.334  0.00  0.00    +0.000 A 
ATOM     13  O   UNL     1      -2.218  15.719  21.953  0.00  0.00    +0.000 OA
ATOM     14  C   UNL     1      -0.701  13.959  22.019  0.00  0.00    +0.000 A 
ATOM     15  C   UNL     1      -0.473  12.692  22.355  0.00  0.00    +0.000 A 
ATOM     16  N   UNL     1      -1.420  11.934  23.002  0.00  0.00    +0.000 N 
ATOM     17  C   UNL     1      -2.675  12.441  23.345  0.00  0.00    +0.000 A 
ATOM     18  O   UNL     1      -3.542  11.736  23.867  0.00  0.00    +0.000 OA
ENDBRANCH   9  16
ENDBRANCH   8   9
ENDBRANCH   7   8
ENDBRANCH   1   7
BRANCH   3  19
ATOM     19  O   UNL     1      -1.538  11.423  17.754  0.00  0.00    +0.000 OA
BRANCH  19  20
ATOM     20  S   UNL     1      -2.821  10.771  16.966  0.00  0.00    +0.000 S 
ATOM     21  O   UNL     1      -2.606  10.860  15.537  0.00  0.00    +0.000 OA
ATOM     22  O   UNL     1      -3.177   9.516  17.598  0.00  0.00    +0.000 OA
ATOM     23  F   UNL     1      -4.039  11.740  17.268  0.00  0.00    +0.000 F 
ENDBRANCH  19  20
ENDBRANCH   3  19
BRANCH   6  24
ATOM     24  O   UNL     1       2.120   7.932  20.036  0.00  0.00    +0.000 OA
BRANCH  24  25
ATOM     25  C   UNL     1       2.396   6.802  19.302  0.00  0.00    +0.000 A 
ATOM     26  C   UNL     1       3.438   6.928  18.378  0.00  0.00    +0.000 A 
ATOM     27  C   UNL     1       3.787   5.851  17.567  0.00  0.00    +0.000 A 
ATOM     28 CL   UNL     1       5.068   6.014  16.428  0.00  0.00    +0.000 Cl
ATOM     29  C   UNL     1       3.103   4.641  17.661  0.00  0.00    +0.000 A 
ATOM     30  C   UNL     1       2.083   4.504  18.605  0.00  0.00    +0.000 A 
ATOM     31  C   UNL     1       1.753   5.572  19.448  0.00  0.00    +0.000 A 
BRANCH  30  32
ATOM     32  C   UNL     1       1.353   3.277  18.696  0.00  0.00    +0.000 C 
ATOM     33  N   UNL     1       0.744   2.294  18.761  0.00  0.00    +0.000 NA
ENDBRANCH  30  32
ENDBRANCH  24  25
ENDBRANCH   6  24
TORSDOF 9
ENDMDL
MODEL 9
REMARK VINA RESULT:      -7.0      1.712      2.044
REMARK  Name = 
REMARK  10 active torsions:
REMARK  status: ('A' for Active; 'I' for Inactive)
REMARK    1  A    between atoms: C_1  and  N_2
REMARK    2  A    between atoms: N_7  and  C_8
REMARK    3  A    between atoms: C_8  and  C_9
REMARK    4  A    between atoms: C_9  and  O_10
REMARK    5  A    between atoms: O_10  and  C_11
REMARK    6  A    between atoms: C_13  and  O_14
REMARK    7  A    between atoms: O_14  and  S_15
REMARK    8  A    between atoms: C_21  and  O_22
REMARK    9  A    between atoms: O_22  and  C_23
REMARK   10  A    between atoms: C_28  and  C_29
REMARK                            x       y       z     vdW  Elec       q    Type
REMARK                         _______ _______ _______ _____ _____    ______ ____
ROOT
ATOM      1  C   UNL     1       2.061   7.379  19.690  0.00  0.00    +0.000 A 
ATOM      2  C   UNL     1       1.610   8.584  20.244  0.00  0.00    +0.000 A 
ATOM      3  C   UNL     1       1.409   9.711  19.451  0.00  0.00    +0.000 A 
ATOM      4  C   UNL     1       1.794   9.684  18.115  0.00  0.00    +0.000 A 
ATOM      5  C   UNL     1       2.355   8.521  17.577  0.00  0.00    +0.000 A 
ATOM      6  C   UNL     1       2.506   7.368  18.361  0.00  0.00    +0.000 A 
ENDROOT
BRANCH   1   7
ATOM      7  O   UNL     1       2.059   6.205  20.406  0.00  0.00    +0.000 OA
BRANCH   7   8
ATOM      8  C   UNL     1       0.814   5.494  20.381  0.00  0.00    +0.000 C 
BRANCH   8   9
ATOM      9  C   UNL     1       0.998   4.070  20.895  0.00  0.00    +0.000 C 
BRANCH   9  16
ATOM     10  C   UNL     1       4.887   1.265  19.965  0.00  0.00    +0.000 C 
ATOM     11  N   UNL     1       3.716   1.974  19.486  0.00  0.00    +0.000 N 
ATOM     12  C   UNL     1       3.480   2.021  18.126  0.00  0.00    +0.000 A 
ATOM     13  O   UNL     1       4.209   1.542  17.261  0.00  0.00    +0.000 OA
ATOM     14  C   UNL     1       2.250   2.712  17.705  0.00  0.00    +0.000 A 
ATOM     15  C   UNL     1       1.485   3.304  18.619  0.00  0.00    +0.000 A 
ATOM     16  N   UNL     1       1.804   3.280  19.956  0.00  0.00    +0.000 N 
ATOM     17  C   UNL     1       2.947   2.638  20.439  0.00  0.00    +0.000 A 
ATOM     18  O   UNL     1       3.260   2.677  21.631  0.00  0.00    +0.000 OA
ENDBRANCH   9  16
ENDBRANCH   8   9
ENDBRANCH   7   8
ENDBRANCH   1   7
BRANCH   3  19
ATOM     19  O   UNL     1       0.837  10.868  19.919  0.00  0.00    +0.000 OA
BRANCH  19  20
ATOM     20  S   UNL     1      -0.776  10.934  20.213  0.00  0.00    +0.000 S 
ATOM     21  O   UNL     1      -1.041  10.479  21.562  0.00  0.00    +0.000 OA
ATOM     22  O   UNL     1      -1.293  12.200  19.729  0.00  0.00    +0.000 OA
ATOM     23  F   UNL     1      -1.423   9.840  19.267  0.00  0.00    +0.000 F 
ENDBRANCH  19  20
ENDBRANCH   3  19
BRANCH   6  24
ATOM     24  O   UNL     1       2.987   6.269  17.681  0.00  0.00    +0.000 OA
BRANCH  24  25
ATOM     25  C   UNL     1       4.305   6.191  17.296  0.00  0.00    +0.000 A 
ATOM     26  C   UNL     1       4.621   5.117  16.457  0.00  0.00    +0.000 A 
ATOM     27  C   UNL     1       5.932   4.931  16.025  0.00  0.00    +0.000 A 
ATOM     28 CL   UNL     1       6.315   3.605  14.996  0.00  0.00    +0.000 Cl
ATOM     29  C   UNL     1       6.941   5.804  16.424  0.00  0.00    +0.000 A 
ATOM     30  C   UNL     1       6.622   6.894  17.237  0.00  0.00    +0.000 A 
ATOM     31  C   UNL     1       5.300   7.107  17.644  0.00  0.00    +0.000 A 
BRANCH  30  32
ATOM     32  C   UNL     1       7.652   7.783  17.677  0.00  0.00    +0.000 C 
ATOM     33  N   UNL     1       8.471   8.521  18.035  0.00  0.00    +0.000 NA
ENDBRANCH  30  32
ENDBRANCH  24  25
ENDBRANCH   6  24
TORSDOF 9
ENDMDL
