MODEL 1
REMARK VINA RESULT:      -7.0      0.000      0.000
REMARK  Name = 
REMARK  7 active torsions:
REMARK  status: ('A' for Active; 'I' for Inactive)
REMARK    1  A    between atoms: C_1  and  C_2
REMARK    2  A    between atoms: C_2  and  O_3
REMARK    3  A    between atoms: O_3  and  C_4
REMARK    4  A    between atoms: C_14  and  O_15
REMARK    5  A    between atoms: O_15  and  C_16
REMARK    6  A    between atoms: C_16  and  C_17
REMARK    7  A    between atoms: C_17  and  O_18
REMARK                            x       y       z     vdW  Elec       q    Type
REMARK                         _______ _______ _______ _____ _____    ______ ____
ROOT
ATOM      1  C   UNL     1       5.509   4.522  16.008  0.00  0.00    +0.000 A 
ATOM      2  C   UNL     1       5.335   5.854  15.567  0.00  0.00    +0.000 A 
ATOM      3  C   UNL     1       4.508   6.761  16.253  0.00  0.00    +0.000 A 
ATOM      4  C   UNL     1       3.860   6.319  17.391  0.00  0.00    +0.000 A 
ATOM      5  C   UNL     1       4.043   4.990  17.805  0.00  0.00    +0.000 A 
ATOM      6  C   UNL     1       4.842   4.076  17.146  0.00  0.00    +0.000 A 
ATOM      7  C   UNL     1       3.275   4.791  19.048  0.00  0.00    +0.000 C 
ATOM      8  O   UNL     1       3.192   3.770  19.696  0.00  0.00    +0.000 OA
ATOM      9  C   UNL     1       2.639   6.086  19.354  0.00  0.00    +0.000 A 
ATOM     10  C   UNL     1       1.848   6.411  20.440  0.00  0.00    +0.000 A 
ATOM     11  C   UNL     1       1.386   7.723  20.512  0.00  0.00    +0.000 A 
ATOM     12  C   UNL     1       1.694   8.639  19.482  0.00  0.00    +0.000 A 
ATOM     13  C   UNL     1       2.505   8.281  18.392  0.00  0.00    +0.000 A 
ATOM     14  C   UNL     1       2.990   6.989  18.337  0.00  0.00    +0.000 A 
ENDROOT
BRANCH   1  15
ATOM     15  O   UNL     1       6.364   3.767  15.248  0.00  0.00    +0.000 OA
BRANCH  15  17
ATOM     16  C   UNL     1       6.069   3.547  12.879  0.00  0.00    +0.000 C 
ATOM     17  C   UNL     1       6.751   4.325  13.990  0.00  0.00    +0.000 C 
ENDBRANCH  15  17
ENDBRANCH   1  15
BRANCH  11  18
ATOM     18  O   UNL     1       0.600   8.217  21.521  0.00  0.00    +0.000 OA
BRANCH  18  19
ATOM     19  C   UNL     1       0.206   9.592  21.373  0.00  0.00    +0.000 C 
BRANCH  19  20
ATOM     20  C   UNL     1      -0.447  10.044  22.675  0.00  0.00    +0.000 C 
BRANCH  20  21
ATOM     21  O   UNL     1       0.374   9.697  23.788  0.00  0.00    +0.000 OA
ATOM     22  H   UNL     1       0.495  10.517  24.302  0.00  0.00    +0.000 HD
ENDBRANCH  20  21
ENDBRANCH  19  20
ENDBRANCH  18  19
ENDBRANCH  11  18
TORSDOF 6
ENDMDL
MODEL 2
REMARK VINA RESULT:      -6.9      1.086      7.833
REMARK  Name = 
REMARK  7 active torsions:
REMARK  status: ('A' for Active; 'I' for Inactive)
REMARK    1  A    between atoms: C_1  and  C_2
REMARK    2  A    between atoms: C_2  and  O_3
REMARK    3  A    between atoms: O_3  and  C_4
REMARK    4  A    between atoms: C_14  and  O_15
REMARK    5  A    between atoms: O_15  and  C_16
REMARK    6  A    between atoms: C_16  and  C_17
REMARK    7  A    between atoms: C_17  and  O_18
REMARK                            x       y       z     vdW  Elec       q    Type
REMARK                         _______ _______ _______ _____ _____    ______ ____
ROOT
ATOM      1  C   UNL     1       1.743   7.158  20.262  0.00  0.00    +0.000 A 
ATOM      2  C   UNL     1       2.072   8.166  19.328  0.00  0.00    +0.000 A 
ATOM      3  C   UNL     1       2.917   7.914  18.231  0.00  0.00    +0.000 A 
ATOM      4  C   UNL     1       3.424   6.638  18.079  0.00  0.00    +0.000 A 
ATOM      5  C   UNL     1       3.089   5.656  19.025  0.00  0.00    +0.000 A 
ATOM      6  C   UNL     1       2.269   5.877  20.115  0.00  0.00    +0.000 A 
ATOM      7  C   UNL     1       3.728   4.392  18.614  0.00  0.00    +0.000 C 
ATOM      8  O   UNL     1       3.665   3.325  19.186  0.00  0.00    +0.000 OA
ATOM      9  C   UNL     1       4.449   4.681  17.361  0.00  0.00    +0.000 A 
ATOM     10  C   UNL     1       5.172   3.805  16.572  0.00  0.00    +0.000 A 
ATOM     11  C   UNL     1       5.741   4.325  15.412  0.00  0.00    +0.000 A 
ATOM     12  C   UNL     1       5.605   5.699  15.112  0.00  0.00    +0.000 A 
ATOM     13  C   UNL     1       4.860   6.564  15.930  0.00  0.00    +0.000 A 
ATOM     14  C   UNL     1       4.267   6.042  17.063  0.00  0.00    +0.000 A 
ENDROOT
BRANCH   1  15
ATOM     15  O   UNL     1       0.891   7.550  21.262  0.00  0.00    +0.000 OA
BRANCH  15  17
ATOM     16  C   UNL     1      -0.258   9.377  22.307  0.00  0.00    +0.000 C 
ATOM     17  C   UNL     1       1.067   8.880  21.757  0.00  0.00    +0.000 C 
ENDBRANCH  15  17
ENDBRANCH   1  15
BRANCH  11  18
ATOM     18  O   UNL     1       6.481   3.598  14.515  0.00  0.00    +0.000 OA
BRANCH  18  19
ATOM     19  C   UNL     1       6.545   4.147  13.188  0.00  0.00    +0.000 C 
BRANCH  19  20
ATOM     20  C   UNL     1       5.723   3.256  12.262  0.00  0.00    +0.000 C 
BRANCH  20  21
ATOM     21  O   UNL     1       6.474   2.102  11.890  0.00  0.00    +0.000 OA
ATOM     22  H   UNL     1       7.236   2.068  12.498  0.00  0.00    +0.000 HD
ENDBRANCH  20  21
ENDBRANCH  19  20
ENDBRANCH  18  19
ENDBRANCH  11  18
TORSDOF 6
ENDMDL
MODEL 3
REMARK VINA RESULT:      -6.5      1.726      8.175
REMARK  Name = 
REMARK  7 active torsions:
REMARK  status: ('A' for Active; 'I' for Inactive)
REMARK    1  A    between atoms: C_1  and  C_2
REMARK    2  A    between atoms: C_2  and  O_3
REMARK    3  A    between atoms: O_3  and  C_4
REMARK    4  A    between atoms: C_14  and  O_15
REMARK    5  A    between atoms: O_15  and  C_16
REMARK    6  A    between atoms: C_16  and  C_17
REMARK    7  A    between atoms: C_17  and  O_18
REMARK                            x       y       z     vdW  Elec       q    Type
REMARK                         _______ _______ _______ _____ _____    ______ ____
ROOT
ATOM      1  C   UNL     1      -0.035   9.878  20.863  0.00  0.00    +0.000 A 
ATOM      2  C   UNL     1       0.137   8.756  21.706  0.00  0.00    +0.000 A 
ATOM      3  C   UNL     1       0.962   7.676  21.345  0.00  0.00    +0.000 A 
ATOM      4  C   UNL     1       1.617   7.734  20.130  0.00  0.00    +0.000 A 
ATOM      5  C   UNL     1       1.425   8.855  19.307  0.00  0.00    +0.000 A 
ATOM      6  C   UNL     1       0.616   9.926  19.633  0.00  0.00    +0.000 A 
ATOM      7  C   UNL     1       2.254   8.681  18.100  0.00  0.00    +0.000 C 
ATOM      8  O   UNL     1       2.347   9.446  17.164  0.00  0.00    +0.000 OA
ATOM      9  C   UNL     1       2.962   7.398  18.265  0.00  0.00    +0.000 A 
ATOM     10  C   UNL     1       3.882   6.817  17.414  0.00  0.00    +0.000 A 
ATOM     11  C   UNL     1       4.431   5.600  17.814  0.00  0.00    +0.000 A 
ATOM     12  C   UNL     1       4.007   4.996  19.019  0.00  0.00    +0.000 A 
ATOM     13  C   UNL     1       3.073   5.613  19.867  0.00  0.00    +0.000 A 
ATOM     14  C   UNL     1       2.553   6.835  19.486  0.00  0.00    +0.000 A 
ENDROOT
BRANCH   1  15
ATOM     15  O   UNL     1      -0.849  10.860  21.364  0.00  0.00    +0.000 OA
BRANCH  15  17
ATOM     16  C   UNL     1      -1.386  12.429  23.096  0.00  0.00    +0.000 C 
ATOM     17  C   UNL     1      -0.793  11.068  22.777  0.00  0.00    +0.000 C 
ENDBRANCH  15  17
ENDBRANCH   1  15
BRANCH  11  18
ATOM     18  O   UNL     1       5.361   4.892  17.097  0.00  0.00    +0.000 OA
BRANCH  18  19
ATOM     19  C   UNL     1       6.165   5.674  16.198  0.00  0.00    +0.000 C 
BRANCH  19  20
ATOM     20  C   UNL     1       6.865   4.722  15.233  0.00  0.00    +0.000 C 
BRANCH  20  21
ATOM     21  O   UNL     1       7.739   5.446  14.370  0.00  0.00    +0.000 OA
ATOM     22  H   UNL     1       8.380   4.796  14.026  0.00  0.00    +0.000 HD
ENDBRANCH  20  21
ENDBRANCH  19  20
ENDBRANCH  18  19
ENDBRANCH  11  18
TORSDOF 6
ENDMDL
MODEL 4
REMARK VINA RESULT:      -6.5      1.831      7.974
REMARK  Name = 
REMARK  7 active torsions:
REMARK  status: ('A' for Active; 'I' for Inactive)
REMARK    1  A    between atoms: C_1  and  C_2
REMARK    2  A    between atoms: C_2  and  O_3
REMARK    3  A    between atoms: O_3  and  C_4
REMARK    4  A    between atoms: C_14  and  O_15
REMARK    5  A    between atoms: O_15  and  C_16
REMARK    6  A    between atoms: C_16  and  C_17
REMARK    7  A    between atoms: C_17  and  O_18
REMARK                            x       y       z     vdW  Elec       q    Type
REMARK                         _______ _______ _______ _____ _____    ______ ____
ROOT
ATOM      1  C   UNL     1       0.087  10.140  20.812  0.00  0.00    +0.000 A 
ATOM      2  C   UNL     1       0.155   9.101  21.769  0.00  0.00    +0.000 A 
ATOM      3  C   UNL     1       0.869   7.914  21.526  0.00  0.00    +0.000 A 
ATOM      4  C   UNL     1       1.520   7.781  20.314  0.00  0.00    +0.000 A 
ATOM      5  C   UNL     1       1.432   8.823  19.377  0.00  0.00    +0.000 A 
ATOM      6  C   UNL     1       0.732   9.996  19.586  0.00  0.00    +0.000 A 
ATOM      7  C   UNL     1       2.233   8.444  18.199  0.00  0.00    +0.000 C 
ATOM      8  O   UNL     1       2.393   9.094  17.188  0.00  0.00    +0.000 OA
ATOM      9  C   UNL     1       2.814   7.123  18.500  0.00  0.00    +0.000 A 
ATOM     10  C   UNL     1       3.669   6.370  17.718  0.00  0.00    +0.000 A 
ATOM     11  C   UNL     1       4.100   5.155  18.246  0.00  0.00    +0.000 A 
ATOM     12  C   UNL     1       3.627   4.723  19.506  0.00  0.00    +0.000 A 
ATOM     13  C   UNL     1       2.762   5.514  20.281  0.00  0.00    +0.000 A 
ATOM     14  C   UNL     1       2.360   6.733  19.772  0.00  0.00    +0.000 A 
ENDROOT
BRANCH   1  15
ATOM     15  O   UNL     1      -0.625  11.243  21.203  0.00  0.00    +0.000 OA
BRANCH  15  17
ATOM     16  C   UNL     1      -2.170  11.993  22.878  0.00  0.00    +0.000 C 
ATOM     17  C   UNL     1      -0.788  11.423  22.612  0.00  0.00    +0.000 C 
ENDBRANCH  15  17
ENDBRANCH   1  15
BRANCH  11  18
ATOM     18  O   UNL     1       4.953   4.289  17.611  0.00  0.00    +0.000 OA
BRANCH  18  19
ATOM     19  C   UNL     1       5.607   4.818  16.446  0.00  0.00    +0.000 C 
BRANCH  19  20
ATOM     20  C   UNL     1       7.081   5.024  16.777  0.00  0.00    +0.000 C 
BRANCH  20  21
ATOM     21  O   UNL     1       7.476   4.158  17.839  0.00  0.00    +0.000 OA
ATOM     22  H   UNL     1       7.794   4.737  18.557  0.00  0.00    +0.000 HD
ENDBRANCH  20  21
ENDBRANCH  19  20
ENDBRANCH  18  19
ENDBRANCH  11  18
TORSDOF 6
ENDMDL
MODEL 5
REMARK VINA RESULT:      -6.4      1.293      1.703
REMARK  Name = 
REMARK  7 active torsions:
REMARK  status: ('A' for Active; 'I' for Inactive)
REMARK    1  A    between atoms: C_1  and  C_2
REMARK    2  A    between atoms: C_2  and  O_3
REMARK    3  A    between atoms: O_3  and  C_4
REMARK    4  A    between atoms: C_14  and  O_15
REMARK    5  A    between atoms: O_15  and  C_16
REMARK    6  A    between atoms: C_16  and  C_17
REMARK    7  A    between atoms: C_17  and  O_18
REMARK                            x       y       z     vdW  Elec       q    Type
REMARK                         _______ _______ _______ _____ _____    ______ ____
ROOT
ATOM      1  C   UNL     1       5.029   5.162  17.274  0.00  0.00    +0.000 A 
ATOM      2  C   UNL     1       4.973   6.284  16.416  0.00  0.00    +0.000 A 
ATOM      3  C   UNL     1       4.114   7.369  16.668  0.00  0.00    +0.000 A 
ATOM      4  C   UNL     1       3.314   7.319  17.794  0.00  0.00    +0.000 A 
ATOM      5  C   UNL     1       3.382   6.191  18.627  0.00  0.00    +0.000 A 
ATOM      6  C   UNL     1       4.210   5.109  18.400  0.00  0.00    +0.000 A 
ATOM      7  C   UNL     1       2.463   6.406  19.759  0.00  0.00    +0.000 C 
ATOM      8  O   UNL     1       2.254   5.646  20.681  0.00  0.00    +0.000 OA
ATOM      9  C   UNL     1       1.857   7.735  19.555  0.00  0.00    +0.000 A 
ATOM     10  C   UNL     1       0.958   8.396  20.371  0.00  0.00    +0.000 A 
ATOM     11  C   UNL     1       0.555   9.666  19.964  0.00  0.00    +0.000 A 
ATOM     12  C   UNL     1       1.027  10.202  18.745  0.00  0.00    +0.000 A 
ATOM     13  C   UNL     1       1.945   9.508  17.939  0.00  0.00    +0.000 A 
ATOM     14  C   UNL     1       2.370   8.262  18.358  0.00  0.00    +0.000 A 
ENDROOT
BRANCH   1  15
ATOM     15  O   UNL     1       5.932   4.198  16.910  0.00  0.00    +0.000 OA
BRANCH  15  17
ATOM     16  C   UNL     1       6.250   3.822  14.562  0.00  0.00    +0.000 C 
ATOM     17  C   UNL     1       6.782   4.514  15.805  0.00  0.00    +0.000 C 
ENDBRANCH  15  17
ENDBRANCH   1  15
BRANCH  11  18
ATOM     18  O   UNL     1      -0.322  10.462  20.655  0.00  0.00    +0.000 OA
BRANCH  18  19
ATOM     19  C   UNL     1       0.150  10.932  21.929  0.00  0.00    +0.000 C 
BRANCH  19  20
ATOM     20  C   UNL     1      -0.898  10.589  22.983  0.00  0.00    +0.000 C 
BRANCH  20  21
ATOM     21  O   UNL     1      -0.751   9.235  23.406  0.00  0.00    +0.000 OA
ATOM     22  H   UNL     1       0.209   9.065  23.441  0.00  0.00    +0.000 HD
ENDBRANCH  20  21
ENDBRANCH  19  20
ENDBRANCH  18  19
ENDBRANCH  11  18
TORSDOF 6
ENDMDL
MODEL 6
REMARK VINA RESULT:      -6.4      1.080      1.141
REMARK  Name = 
REMARK  7 active torsions:
REMARK  status: ('A' for Active; 'I' for Inactive)
REMARK    1  A    between atoms: C_1  and  C_2
REMARK    2  A    between atoms: C_2  and  O_3
REMARK    3  A    between atoms: O_3  and  C_4
REMARK    4  A    between atoms: C_14  and  O_15
REMARK    5  A    between atoms: O_15  and  C_16
REMARK    6  A    between atoms: C_16  and  C_17
REMARK    7  A    between atoms: C_17  and  O_18
REMARK                            x       y       z     vdW  Elec       q    Type
REMARK                         _______ _______ _______ _____ _____    ______ ____
ROOT
ATOM      1  C   UNL     1       5.310   4.859  16.824  0.00  0.00    +0.000 A 
ATOM      2  C   UNL     1       5.107   6.088  16.155  0.00  0.00    +0.000 A 
ATOM      3  C   UNL     1       4.229   7.067  16.653  0.00  0.00    +0.000 A 
ATOM      4  C   UNL     1       3.560   6.803  17.833  0.00  0.00    +0.000 A 
ATOM      5  C   UNL     1       3.773   5.572  18.474  0.00  0.00    +0.000 A 
ATOM      6  C   UNL     1       4.623   4.590  18.004  0.00  0.00    +0.000 A 
ATOM      7  C   UNL     1       2.973   5.561  19.713  0.00  0.00    +0.000 C 
ATOM      8  O   UNL     1       2.902   4.664  20.525  0.00  0.00    +0.000 OA
ATOM      9  C   UNL     1       2.285   6.864  19.774  0.00  0.00    +0.000 A 
ATOM     10  C   UNL     1       1.449   7.341  20.767  0.00  0.00    +0.000 A 
ATOM     11  C   UNL     1       0.943   8.627  20.599  0.00  0.00    +0.000 A 
ATOM     12  C   UNL     1       1.253   9.364  19.435  0.00  0.00    +0.000 A 
ATOM     13  C   UNL     1       2.110   8.855  18.445  0.00  0.00    +0.000 A 
ATOM     14  C   UNL     1       2.639   7.592  18.626  0.00  0.00    +0.000 A 
ENDROOT
BRANCH   1  15
ATOM     15  O   UNL     1       6.214   4.018  16.228  0.00  0.00    +0.000 OA
BRANCH  15  17
ATOM     16  C   UNL     1       6.296   3.921  13.833  0.00  0.00    +0.000 C 
ATOM     17  C   UNL     1       6.899   4.534  15.085  0.00  0.00    +0.000 C 
ENDBRANCH  15  17
ENDBRANCH   1  15
BRANCH  11  18
ATOM     18  O   UNL     1       0.108   9.257  21.487  0.00  0.00    +0.000 OA
BRANCH  18  19
ATOM     19  C   UNL     1       0.132  10.694  21.436  0.00  0.00    +0.000 C 
BRANCH  19  20
ATOM     20  C   UNL     1      -1.054  11.220  22.238  0.00  0.00    +0.000 C 
BRANCH  20  21
ATOM     21  O   UNL     1      -0.628  12.234  23.145  0.00  0.00    +0.000 OA
ATOM     22  H   UNL     1      -0.008  12.800  22.646  0.00  0.00    +0.000 HD
ENDBRANCH  20  21
ENDBRANCH  19  20
ENDBRANCH  18  19
ENDBRANCH  11  18
TORSDOF 6
ENDMDL
MODEL 7
REMARK VINA RESULT:      -6.3      2.831      7.659
REMARK  Name = 
REMARK  7 active torsions:
REMARK  status: ('A' for Active; 'I' for Inactive)
REMARK    1  A    between atoms: C_1  and  C_2
REMARK    2  A    between atoms: C_2  and  O_3
REMARK    3  A    between atoms: O_3  and  C_4
REMARK    4  A    between atoms: C_14  and  O_15
REMARK    5  A    between atoms: O_15  and  C_16
REMARK    6  A    between atoms: C_16  and  C_17
REMARK    7  A    between atoms: C_17  and  O_18
REMARK                            x       y       z     vdW  Elec       q    Type
REMARK                         _______ _______ _______ _____ _____    ______ ____
ROOT
ATOM      1  C   UNL     1       0.363  10.918  20.489  0.00  0.00    +0.000 A 
ATOM      2  C   UNL     1       0.206  10.039  21.585  0.00  0.00    +0.000 A 
ATOM      3  C   UNL     1       0.675   8.714  21.546  0.00  0.00    +0.000 A 
ATOM      4  C   UNL     1       1.310   8.281  20.398  0.00  0.00    +0.000 A 
ATOM      5  C   UNL     1       1.448   9.170  19.320  0.00  0.00    +0.000 A 
ATOM      6  C   UNL     1       0.990  10.473  19.328  0.00  0.00    +0.000 A 
ATOM      7  C   UNL     1       2.181   8.475  18.247  0.00  0.00    +0.000 C 
ATOM      8  O   UNL     1       2.486   8.925  17.164  0.00  0.00    +0.000 OA
ATOM      9  C   UNL     1       2.483   7.125  18.759  0.00  0.00    +0.000 A 
ATOM     10  C   UNL     1       3.187   6.114  18.133  0.00  0.00    +0.000 A 
ATOM     11  C   UNL     1       3.359   4.930  18.847  0.00  0.00    +0.000 A 
ATOM     12  C   UNL     1       2.786   4.789  20.130  0.00  0.00    +0.000 A 
ATOM     13  C   UNL     1       2.079   5.836  20.744  0.00  0.00    +0.000 A 
ATOM     14  C   UNL     1       1.937   7.022  20.049  0.00  0.00    +0.000 A 
ENDROOT
BRANCH   1  15
ATOM     15  O   UNL     1      -0.125  12.184  20.687  0.00  0.00    +0.000 OA
BRANCH  15  17
ATOM     16  C   UNL     1      -0.388  13.889  19.021  0.00  0.00    +0.000 C 
ATOM     17  C   UNL     1      -1.019  12.679  19.688  0.00  0.00    +0.000 C 
ENDBRANCH  15  17
ENDBRANCH   1  15
BRANCH  11  18
ATOM     18  O   UNL     1       4.036   3.832  18.381  0.00  0.00    +0.000 OA
BRANCH  18  19
ATOM     19  C   UNL     1       4.013   2.686  19.250  0.00  0.00    +0.000 C 
BRANCH  19  20
ATOM     20  C   UNL     1       3.548   1.481  18.438  0.00  0.00    +0.000 C 
BRANCH  20  21
ATOM     21  O   UNL     1       2.159   1.593  18.137  0.00  0.00    +0.000 OA
ATOM     22  H   UNL     1       1.688   1.482  18.985  0.00  0.00    +0.000 HD
ENDBRANCH  20  21
ENDBRANCH  19  20
ENDBRANCH  18  19
ENDBRANCH  11  18
TORSDOF 6
ENDMDL
MODEL 8
REMARK VINA RESULT:      -6.3      1.997      7.797
REMARK  Name = 
REMARK  7 active torsions:
REMARK  status: ('A' for Active; 'I' for Inactive)
REMARK    1  A    between atoms: C_1  and  C_2
REMARK    2  A    between atoms: C_2  and  O_3
REMARK    3  A    between atoms: O_3  and  C_4
REMARK    4  A    between atoms: C_14  and  O_15
REMARK    5  A    between atoms: O_15  and  C_16
REMARK    6  A    between atoms: C_16  and  C_17
REMARK    7  A    between atoms: C_17  and  O_18
REMARK                            x       y       z     vdW  Elec       q    Type
REMARK                         _______ _______ _______ _____ _____    ______ ____
ROOT
ATOM      1  C   UNL     1       0.244  10.392  20.611  0.00  0.00    +0.000 A 
ATOM      2  C   UNL     1       0.230   9.401  21.619  0.00  0.00    +0.000 A 
ATOM      3  C   UNL     1       0.863   8.157  21.445  0.00  0.00    +0.000 A 
ATOM      4  C   UNL     1       1.515   7.919  20.250  0.00  0.00    +0.000 A 
ATOM      5  C   UNL     1       1.508   8.915  19.262  0.00  0.00    +0.000 A 
ATOM      6  C   UNL     1       0.889  10.142  19.402  0.00  0.00    +0.000 A 
ATOM      7  C   UNL     1       2.294   8.423  18.115  0.00  0.00    +0.000 C 
ATOM      8  O   UNL     1       2.508   9.009  17.075  0.00  0.00    +0.000 OA
ATOM      9  C   UNL     1       2.779   7.082  18.490  0.00  0.00    +0.000 A 
ATOM     10  C   UNL     1       3.587   6.233  17.758  0.00  0.00    +0.000 A 
ATOM     11  C   UNL     1       3.928   5.020  18.351  0.00  0.00    +0.000 A 
ATOM     12  C   UNL     1       3.414   4.686  19.624  0.00  0.00    +0.000 A 
ATOM     13  C   UNL     1       2.597   5.572  20.347  0.00  0.00    +0.000 A 
ATOM     14  C   UNL     1       2.286   6.789  19.772  0.00  0.00    +0.000 A 
ENDROOT
BRANCH   1  15
ATOM     15  O   UNL     1      -0.395  11.559  20.937  0.00  0.00    +0.000 OA
BRANCH  15  17
ATOM     16  C   UNL     1      -2.237  12.059  19.485  0.00  0.00    +0.000 C 
ATOM     17  C   UNL     1      -0.798  12.386  19.842  0.00  0.00    +0.000 C 
ENDBRANCH  15  17
ENDBRANCH   1  15
BRANCH  11  18
ATOM     18  O   UNL     1       4.725   4.066  17.772  0.00  0.00    +0.000 OA
BRANCH  18  19
ATOM     19  C   UNL     1       5.381   4.472  16.558  0.00  0.00    +0.000 C 
BRANCH  19  20
ATOM     20  C   UNL     1       6.882   4.531  16.823  0.00  0.00    +0.000 C 
BRANCH  20  21
ATOM     21  O   UNL     1       7.586   4.817  15.616  0.00  0.00    +0.000 OA
ATOM     22  H   UNL     1       8.309   4.164  15.564  0.00  0.00    +0.000 HD
ENDBRANCH  20  21
ENDBRANCH  19  20
ENDBRANCH  18  19
ENDBRANCH  11  18
TORSDOF 6
ENDMDL
MODEL 9
REMARK VINA RESULT:      -6.3      2.739      4.367
REMARK  Name = 
REMARK  7 active torsions:
REMARK  status: ('A' for Active; 'I' for Inactive)
REMARK    1  A    between atoms: C_1  and  C_2
REMARK    2  A    between atoms: C_2  and  O_3
REMARK    3  A    between atoms: O_3  and  C_4
REMARK    4  A    between atoms: C_14  and  O_15
REMARK    5  A    between atoms: O_15  and  C_16
REMARK    6  A    between atoms: C_16  and  C_17
REMARK    7  A    between atoms: C_17  and  O_18
REMARK                            x       y       z     vdW  Elec       q    Type
REMARK                         _______ _______ _______ _____ _____    ______ ____
ROOT
ATOM      1  C   UNL     1       3.200   4.881  18.656  0.00  0.00    +0.000 A 
ATOM      2  C   UNL     1       2.715   4.693  19.971  0.00  0.00    +0.000 A 
ATOM      3  C   UNL     1       2.082   5.728  20.683  0.00  0.00    +0.000 A 
ATOM      4  C   UNL     1       1.936   6.953  20.060  0.00  0.00    +0.000 A 
ATOM      5  C   UNL     1       2.433   7.117  18.757  0.00  0.00    +0.000 A 
ATOM      6  C   UNL     1       3.065   6.122  18.038  0.00  0.00    +0.000 A 
ATOM      7  C   UNL     1       2.121   8.491  18.322  0.00  0.00    +0.000 C 
ATOM      8  O   UNL     1       2.395   8.995  17.254  0.00  0.00    +0.000 OA
ATOM      9  C   UNL     1       1.396   9.125  19.438  0.00  0.00    +0.000 A 
ATOM     10  C   UNL     1       0.863  10.399  19.493  0.00  0.00    +0.000 A 
ATOM     11  C   UNL     1       0.196  10.753  20.664  0.00  0.00    +0.000 A 
ATOM     12  C   UNL     1       0.128   9.843  21.742  0.00  0.00    +0.000 A 
ATOM     13  C   UNL     1       0.676   8.552  21.655  0.00  0.00    +0.000 A 
ATOM     14  C   UNL     1       1.309   8.189  20.482  0.00  0.00    +0.000 A 
ENDROOT
BRANCH   1  15
ATOM     15  O   UNL     1       3.770   3.774  18.085  0.00  0.00    +0.000 OA
BRANCH  15  17
ATOM     16  C   UNL     1       3.522   1.409  18.398  0.00  0.00    +0.000 C 
ATOM     17  C   UNL     1       2.895   2.671  17.833  0.00  0.00    +0.000 C 
ENDBRANCH  15  17
ENDBRANCH   1  15
BRANCH  11  18
ATOM     18  O   UNL     1      -0.397  11.970  20.885  0.00  0.00    +0.000 OA
BRANCH  18  19
ATOM     19  C   UNL     1      -0.754  12.700  19.699  0.00  0.00    +0.000 C 
BRANCH  19  20
ATOM     20  C   UNL     1      -2.146  12.252  19.263  0.00  0.00    +0.000 C 
BRANCH  20  21
ATOM     21  O   UNL     1      -2.247  12.263  17.841  0.00  0.00    +0.000 OA
ATOM     22  H   UNL     1      -1.439  12.703  17.516  0.00  0.00    +0.000 HD
ENDBRANCH  20  21
ENDBRANCH  19  20
ENDBRANCH  18  19
ENDBRANCH  11  18
TORSDOF 6
ENDMDL
