MODEL 1
REMARK VINA RESULT:      -8.8      0.000      0.000
REMARK  Name = 
REMARK  9 active torsions:
REMARK  status: ('A' for Active; 'I' for Inactive)
REMARK    1  A    between atoms: C_1  and  C_2
REMARK    2  A    between atoms: C_4  and  C_5
REMARK    3  A    between atoms: N_9  and  C_10
REMARK    4  A    between atoms: C_15  and  O_16
REMARK    5  A    between atoms: O_16  and  C_17
REMARK    6  A    between atoms: C_17  and  C_18
REMARK    7  A    between atoms: C_24  and  S_25
REMARK    8  A    between atoms: S_25  and  C_26
REMARK    9  A    between atoms: N_30  and  C_31
REMARK                            x       y       z     vdW  Elec       q    Type
REMARK                         _______ _______ _______ _____ _____    ______ ____
ROOT
ATOM      1  C   UNL     1       1.868   3.432  21.491  0.00  0.00    +0.000 C 
ATOM      2  C   UNL     1       2.396   4.475  20.547  0.00  0.00    +0.000 A 
ATOM      3  C   UNL     1       3.341   4.129  19.597  0.00  0.00    +0.000 A 
ATOM      4  C   UNL     1       3.728   5.053  18.627  0.00  0.00    +0.000 A 
ATOM      5  C   UNL     1       3.123   6.347  18.653  0.00  0.00    +0.000 A 
ATOM      6  C   UNL     1       3.358   7.340  17.667  0.00  0.00    +0.000 A 
ATOM      7  C   UNL     1       2.813   8.613  17.740  0.00  0.00    +0.000 A 
ATOM      8  C   UNL     1       1.991   8.927  18.800  0.00  0.00    +0.000 A 
ATOM      9  C   UNL     1       1.720   7.975  19.798  0.00  0.00    +0.000 A 
ATOM     10  C   UNL     1       2.232   6.658  19.719  0.00  0.00    +0.000 A 
ATOM     11  N   UNL     1       1.880   5.717  20.630  0.00  0.00    +0.000 NA
ENDROOT
BRANCH   4  12
ATOM     12  C   UNL     1       4.792   4.685  17.650  0.00  0.00    +0.000 A 
ATOM     13  C   UNL     1       4.664   4.074  16.407  0.00  0.00    +0.000 A 
ATOM     14  C   UNL     1       5.963   3.882  15.923  0.00  0.00    +0.000 A 
ATOM     15  N   UNL     1       6.875   4.402  16.735  0.00  0.00    +0.000 NA
ATOM     16  N   UNL     1       6.155   4.914  17.756  0.00  0.00    +0.000 N 
ATOM     17  C   UNL     1       6.891   5.625  18.778  0.00  0.00    +0.000 C 
ENDBRANCH   4  12
BRANCH   9  18
ATOM     18  O   UNL     1       0.937   8.293  20.902  0.00  0.00    +0.000 OA
BRANCH  18  19
ATOM     19  C   UNL     1      -0.339   8.856  20.576  0.00  0.00    +0.000 C 
BRANCH  19  20
ATOM     20  C   UNL     1      -0.569  10.307  20.943  0.00  0.00    +0.000 A 
ATOM     21  C   UNL     1      -0.497  10.670  22.309  0.00  0.00    +0.000 A 
ATOM     22 CL   UNL     1      -0.108   9.549  23.571  0.00  0.00    +0.000 Cl
ATOM     23  C   UNL     1      -0.773  11.978  22.690  0.00  0.00    +0.000 A 
ATOM     24  N   UNL     1      -1.136  12.949  21.831  0.00  0.00    +0.000 NA
ATOM     25  C   UNL     1      -1.242  12.578  20.532  0.00  0.00    +0.000 A 
ATOM     26  C   UNL     1      -0.984  11.295  20.028  0.00  0.00    +0.000 A 
BRANCH  26  27
ATOM     27  S   UNL     1      -1.122  11.086  18.261  0.00  0.00    +0.000 S 
BRANCH  27  28
ATOM     28  C   UNL     1      -2.827  11.300  18.015  0.00  0.00    +0.000 A 
ATOM     29  N   UNL     1      -3.721  11.634  18.922  0.00  0.00    +0.000 NA
ATOM     30  C   UNL     1      -4.915  11.690  18.247  0.00  0.00    +0.000 A 
ATOM     31  C   UNL     1      -4.746  11.389  16.917  0.00  0.00    +0.000 A 
ATOM     32  N   UNL     1      -3.406  11.143  16.779  0.00  0.00    +0.000 N 
ATOM     33  C   UNL     1      -2.759  10.793  15.539  0.00  0.00    +0.000 C 
ENDBRANCH  27  28
ENDBRANCH  26  27
ENDBRANCH  19  20
ENDBRANCH  18  19
ENDBRANCH   9  18
TORSDOF 6
ENDMDL
MODEL 2
REMARK VINA RESULT:      -8.7      2.757      8.875
REMARK  Name = 
REMARK  9 active torsions:
REMARK  status: ('A' for Active; 'I' for Inactive)
REMARK    1  A    between atoms: C_1  and  C_2
REMARK    2  A    between atoms: C_4  and  C_5
REMARK    3  A    between atoms: N_9  and  C_10
REMARK    4  A    between atoms: C_15  and  O_16
REMARK    5  A    between atoms: O_16  and  C_17
REMARK    6  A    between atoms: C_17  and  C_18
REMARK    7  A    between atoms: C_24  and  S_25
REMARK    8  A    between atoms: S_25  and  C_26
REMARK    9  A    between atoms: N_30  and  C_31
REMARK                            x       y       z     vdW  Elec       q    Type
REMARK                         _______ _______ _______ _____ _____    ______ ____
ROOT
ATOM      1  C   UNL     1       0.139   9.444  23.586  0.00  0.00    +0.000 C 
ATOM      2  C   UNL     1       0.449   9.602  22.124  0.00  0.00    +0.000 A 
ATOM      3  C   UNL     1       0.269  10.830  21.512  0.00  0.00    +0.000 A 
ATOM      4  C   UNL     1       0.689  11.023  20.196  0.00  0.00    +0.000 A 
ATOM      5  C   UNL     1       1.299   9.924  19.518  0.00  0.00    +0.000 A 
ATOM      6  C   UNL     1       1.855  10.020  18.217  0.00  0.00    +0.000 A 
ATOM      7  C   UNL     1       2.387   8.929  17.546  0.00  0.00    +0.000 A 
ATOM      8  C   UNL     1       2.399   7.702  18.172  0.00  0.00    +0.000 A 
ATOM      9  C   UNL     1       1.868   7.557  19.466  0.00  0.00    +0.000 A 
ATOM     10  C   UNL     1       1.360   8.666  20.183  0.00  0.00    +0.000 A 
ATOM     11  N   UNL     1       0.947   8.537  21.468  0.00  0.00    +0.000 NA
ENDROOT
BRANCH   4  12
ATOM     12  C   UNL     1       0.433  12.333  19.532  0.00  0.00    +0.000 A 
ATOM     13  C   UNL     1       1.194  13.497  19.570  0.00  0.00    +0.000 A 
ATOM     14  C   UNL     1       0.484  14.460  18.844  0.00  0.00    +0.000 A 
ATOM     15  N   UNL     1      -0.614  13.954  18.294  0.00  0.00    +0.000 NA
ATOM     16  N   UNL     1      -0.616  12.662  18.686  0.00  0.00    +0.000 N 
ATOM     17  C   UNL     1      -1.675  11.827  18.168  0.00  0.00    +0.000 C 
ENDBRANCH   4  12
BRANCH   9  18
ATOM     18  O   UNL     1       1.822   6.316  20.090  0.00  0.00    +0.000 OA
BRANCH  18  19
ATOM     19  C   UNL     1       3.059   5.594  20.056  0.00  0.00    +0.000 C 
BRANCH  19  20
ATOM     20  C   UNL     1       3.076   4.285  19.295  0.00  0.00    +0.000 A 
ATOM     21  C   UNL     1       2.387   3.181  19.851  0.00  0.00    +0.000 A 
ATOM     22 CL   UNL     1       1.485   3.268  21.327  0.00  0.00    +0.000 Cl
ATOM     23  C   UNL     1       2.441   1.945  19.217  0.00  0.00    +0.000 A 
ATOM     24  N   UNL     1       3.139   1.710  18.090  0.00  0.00    +0.000 NA
ATOM     25  C   UNL     1       3.828   2.765  17.592  0.00  0.00    +0.000 A 
ATOM     26  C   UNL     1       3.846   4.056  18.137  0.00  0.00    +0.000 A 
BRANCH  26  27
ATOM     27  S   UNL     1       4.773   5.291  17.242  0.00  0.00    +0.000 S 
BRANCH  27  28
ATOM     28  C   UNL     1       6.167   5.486  18.258  0.00  0.00    +0.000 A 
ATOM     29  N   UNL     1       6.529   4.714  19.261  0.00  0.00    +0.000 NA
ATOM     30  C   UNL     1       7.693   5.264  19.738  0.00  0.00    +0.000 A 
ATOM     31  C   UNL     1       8.043   6.381  19.018  0.00  0.00    +0.000 A 
ATOM     32  N   UNL     1       7.061   6.513  18.073  0.00  0.00    +0.000 N 
ATOM     33  C   UNL     1       7.016   7.552  17.074  0.00  0.00    +0.000 C 
ENDBRANCH  27  28
ENDBRANCH  26  27
ENDBRANCH  19  20
ENDBRANCH  18  19
ENDBRANCH   9  18
TORSDOF 6
ENDMDL
MODEL 3
REMARK VINA RESULT:      -8.4      2.126      2.973
REMARK  Name = 
REMARK  9 active torsions:
REMARK  status: ('A' for Active; 'I' for Inactive)
REMARK    1  A    between atoms: C_1  and  C_2
REMARK    2  A    between atoms: C_4  and  C_5
REMARK    3  A    between atoms: N_9  and  C_10
REMARK    4  A    between atoms: C_15  and  O_16
REMARK    5  A    between atoms: O_16  and  C_17
REMARK    6  A    between atoms: C_17  and  C_18
REMARK    7  A    between atoms: C_24  and  S_25
REMARK    8  A    between atoms: S_25  and  C_26
REMARK    9  A    between atoms: N_30  and  C_31
REMARK                            x       y       z     vdW  Elec       q    Type
REMARK                         _______ _______ _______ _____ _____    ______ ____
ROOT
ATOM      1  C   UNL     1       1.877   3.744  21.466  0.00  0.00    +0.000 C 
ATOM      2  C   UNL     1       2.411   4.741  20.477  0.00  0.00    +0.000 A 
ATOM      3  C   UNL     1       3.381   4.355  19.567  0.00  0.00    +0.000 A 
ATOM      4  C   UNL     1       3.776   5.230  18.555  0.00  0.00    +0.000 A 
ATOM      5  C   UNL     1       3.155   6.515  18.498  0.00  0.00    +0.000 A 
ATOM      6  C   UNL     1       3.399   7.455  17.463  0.00  0.00    +0.000 A 
ATOM      7  C   UNL     1       2.838   8.722  17.455  0.00  0.00    +0.000 A 
ATOM      8  C   UNL     1       1.990   9.084  18.479  0.00  0.00    +0.000 A 
ATOM      9  C   UNL     1       1.709   8.185  19.522  0.00  0.00    +0.000 A 
ATOM     10  C   UNL     1       2.238   6.872  19.527  0.00  0.00    +0.000 A 
ATOM     11  N   UNL     1       1.879   5.978  20.481  0.00  0.00    +0.000 NA
ENDROOT
BRANCH   4  12
ATOM     12  C   UNL     1       4.864   4.822  17.622  0.00  0.00    +0.000 A 
ATOM     13  C   UNL     1       4.764   4.237  16.363  0.00  0.00    +0.000 A 
ATOM     14  C   UNL     1       6.073   3.986  15.936  0.00  0.00    +0.000 A 
ATOM     15  N   UNL     1       6.971   4.446  16.798  0.00  0.00    +0.000 NA
ATOM     16  N   UNL     1       6.232   4.979  17.795  0.00  0.00    +0.000 N 
ATOM     17  C   UNL     1       6.953   5.635  18.861  0.00  0.00    +0.000 C 
ENDBRANCH   4  12
BRANCH   9  18
ATOM     18  O   UNL     1       0.900   8.552  20.591  0.00  0.00    +0.000 OA
BRANCH  18  19
ATOM     19  C   UNL     1       1.195   9.845  21.134  0.00  0.00    +0.000 C 
BRANCH  19  20
ATOM     20  C   UNL     1       0.019  10.724  21.506  0.00  0.00    +0.000 A 
ATOM     21  C   UNL     1      -0.590  10.525  22.767  0.00  0.00    +0.000 A 
ATOM     22 CL   UNL     1      -0.026   9.366  23.924  0.00  0.00    +0.000 Cl
ATOM     23  C   UNL     1      -1.715  11.265  23.113  0.00  0.00    +0.000 A 
ATOM     24  N   UNL     1      -2.298  12.167  22.301  0.00  0.00    +0.000 NA
ATOM     25  C   UNL     1      -1.729  12.317  21.081  0.00  0.00    +0.000 A 
ATOM     26  C   UNL     1      -0.593  11.635  20.623  0.00  0.00    +0.000 A 
BRANCH  26  27
ATOM     27  S   UNL     1       0.003  12.073  18.998  0.00  0.00    +0.000 S 
BRANCH  27  28
ATOM     28  C   UNL     1       1.205  13.267  19.376  0.00  0.00    +0.000 A 
ATOM     29  N   UNL     1       2.435  13.047  19.792  0.00  0.00    +0.000 NA
ATOM     30  C   UNL     1       2.993  14.293  19.939  0.00  0.00    +0.000 A 
ATOM     31  C   UNL     1       2.096  15.279  19.609  0.00  0.00    +0.000 A 
ATOM     32  N   UNL     1       0.955  14.612  19.249  0.00  0.00    +0.000 N 
ATOM     33  C   UNL     1      -0.264  15.245  18.813  0.00  0.00    +0.000 C 
ENDBRANCH  27  28
ENDBRANCH  26  27
ENDBRANCH  19  20
ENDBRANCH  18  19
ENDBRANCH   9  18
TORSDOF 6
ENDMDL
MODEL 4
REMARK VINA RESULT:      -8.4      3.062      8.853
REMARK  Name = 
REMARK  9 active torsions:
REMARK  status: ('A' for Active; 'I' for Inactive)
REMARK    1  A    between atoms: C_1  and  C_2
REMARK    2  A    between atoms: C_4  and  C_5
REMARK    3  A    between atoms: N_9  and  C_10
REMARK    4  A    between atoms: C_15  and  O_16
REMARK    5  A    between atoms: O_16  and  C_17
REMARK    6  A    between atoms: C_17  and  C_18
REMARK    7  A    between atoms: C_24  and  S_25
REMARK    8  A    between atoms: S_25  and  C_26
REMARK    9  A    between atoms: N_30  and  C_31
REMARK                            x       y       z     vdW  Elec       q    Type
REMARK                         _______ _______ _______ _____ _____    ______ ____
ROOT
ATOM      1  C   UNL     1      -0.307   9.417  23.533  0.00  0.00    +0.000 C 
ATOM      2  C   UNL     1       0.122   9.628  22.109  0.00  0.00    +0.000 A 
ATOM      3  C   UNL     1       0.030  10.887  21.541  0.00  0.00    +0.000 A 
ATOM      4  C   UNL     1       0.558  11.122  20.272  0.00  0.00    +0.000 A 
ATOM      5  C   UNL     1       1.185  10.032  19.594  0.00  0.00    +0.000 A 
ATOM      6  C   UNL     1       1.844  10.165  18.345  0.00  0.00    +0.000 A 
ATOM      7  C   UNL     1       2.392   9.086  17.668  0.00  0.00    +0.000 A 
ATOM      8  C   UNL     1       2.316   7.833  18.236  0.00  0.00    +0.000 A 
ATOM      9  C   UNL     1       1.681   7.651  19.477  0.00  0.00    +0.000 A 
ATOM     10  C   UNL     1       1.153   8.746  20.203  0.00  0.00    +0.000 A 
ATOM     11  N   UNL     1       0.637   8.575  21.444  0.00  0.00    +0.000 NA
ENDROOT
BRANCH   4  12
ATOM     12  C   UNL     1       0.397  12.468  19.651  0.00  0.00    +0.000 A 
ATOM     13  C   UNL     1      -0.692  12.986  18.957  0.00  0.00    +0.000 A 
ATOM     14  C   UNL     1      -0.314  14.259  18.518  0.00  0.00    +0.000 A 
ATOM     15  N   UNL     1       0.892  14.596  18.959  0.00  0.00    +0.000 NA
ATOM     16  N   UNL     1       1.297  13.523  19.670  0.00  0.00    +0.000 N 
ATOM     17  C   UNL     1       2.570  13.632  20.346  0.00  0.00    +0.000 C 
ENDBRANCH   4  12
BRANCH   9  18
ATOM     18  O   UNL     1       1.547   6.387  20.038  0.00  0.00    +0.000 OA
BRANCH  18  19
ATOM     19  C   UNL     1       2.742   5.598  20.002  0.00  0.00    +0.000 C 
BRANCH  19  20
ATOM     20  C   UNL     1       2.703   4.319  19.192  0.00  0.00    +0.000 A 
ATOM     21  C   UNL     1       2.025   3.204  19.736  0.00  0.00    +0.000 A 
ATOM     22 CL   UNL     1       1.193   3.245  21.255  0.00  0.00    +0.000 Cl
ATOM     23  C   UNL     1       2.030   1.993  19.053  0.00  0.00    +0.000 A 
ATOM     24  N   UNL     1       2.671   1.793  17.886  0.00  0.00    +0.000 NA
ATOM     25  C   UNL     1       3.353   2.858  17.398  0.00  0.00    +0.000 A 
ATOM     26  C   UNL     1       3.415   4.126  17.991  0.00  0.00    +0.000 A 
BRANCH  26  27
ATOM     27  S   UNL     1       4.319   5.382  17.102  0.00  0.00    +0.000 S 
BRANCH  27  28
ATOM     28  C   UNL     1       5.884   5.281  17.846  0.00  0.00    +0.000 A 
ATOM     29  N   UNL     1       6.201   5.639  19.073  0.00  0.00    +0.000 NA
ATOM     30  C   UNL     1       7.539   5.356  19.197  0.00  0.00    +0.000 A 
ATOM     31  C   UNL     1       8.040   4.822  18.035  0.00  0.00    +0.000 A 
ATOM     32  N   UNL     1       6.973   4.777  17.178  0.00  0.00    +0.000 N 
ATOM     33  C   UNL     1       7.024   4.274  15.828  0.00  0.00    +0.000 C 
ENDBRANCH  27  28
ENDBRANCH  26  27
ENDBRANCH  19  20
ENDBRANCH  18  19
ENDBRANCH   9  18
TORSDOF 6
ENDMDL
MODEL 5
REMARK VINA RESULT:      -8.3      2.061      2.832
REMARK  Name = 
REMARK  9 active torsions:
REMARK  status: ('A' for Active; 'I' for Inactive)
REMARK    1  A    between atoms: C_1  and  C_2
REMARK    2  A    between atoms: C_4  and  C_5
REMARK    3  A    between atoms: N_9  and  C_10
REMARK    4  A    between atoms: C_15  and  O_16
REMARK    5  A    between atoms: O_16  and  C_17
REMARK    6  A    between atoms: C_17  and  C_18
REMARK    7  A    between atoms: C_24  and  S_25
REMARK    8  A    between atoms: S_25  and  C_26
REMARK    9  A    between atoms: N_30  and  C_31
REMARK                            x       y       z     vdW  Elec       q    Type
REMARK                         _______ _______ _______ _____ _____    ______ ____
ROOT
ATOM      1  C   UNL     1       1.849   3.725  21.479  0.00  0.00    +0.000 C 
ATOM      2  C   UNL     1       2.389   4.718  20.490  0.00  0.00    +0.000 A 
ATOM      3  C   UNL     1       3.342   4.321  19.567  0.00  0.00    +0.000 A 
ATOM      4  C   UNL     1       3.741   5.195  18.556  0.00  0.00    +0.000 A 
ATOM      5  C   UNL     1       3.141   6.491  18.513  0.00  0.00    +0.000 A 
ATOM      6  C   UNL     1       3.390   7.433  17.481  0.00  0.00    +0.000 A 
ATOM      7  C   UNL     1       2.851   8.710  17.486  0.00  0.00    +0.000 A 
ATOM      8  C   UNL     1       2.020   9.080  18.522  0.00  0.00    +0.000 A 
ATOM      9  C   UNL     1       1.736   8.179  19.563  0.00  0.00    +0.000 A 
ATOM     10  C   UNL     1       2.242   6.857  19.554  0.00  0.00    +0.000 A 
ATOM     11  N   UNL     1       1.879   5.964  20.507  0.00  0.00    +0.000 NA
ENDROOT
BRANCH   4  12
ATOM     12  C   UNL     1       4.812   4.774  17.608  0.00  0.00    +0.000 A 
ATOM     13  C   UNL     1       4.689   4.151  16.370  0.00  0.00    +0.000 A 
ATOM     14  C   UNL     1       5.990   3.905  15.918  0.00  0.00    +0.000 A 
ATOM     15  N   UNL     1       6.903   4.403  16.743  0.00  0.00    +0.000 NA
ATOM     16  N   UNL     1       6.180   4.956  17.742  0.00  0.00    +0.000 N 
ATOM     17  C   UNL     1       6.918   5.653  18.769  0.00  0.00    +0.000 C 
ENDBRANCH   4  12
BRANCH   9  18
ATOM     18  O   UNL     1       0.945   8.554  20.643  0.00  0.00    +0.000 OA
BRANCH  18  19
ATOM     19  C   UNL     1       1.230   9.861  21.154  0.00  0.00    +0.000 C 
BRANCH  19  20
ATOM     20  C   UNL     1       0.047  10.747  21.487  0.00  0.00    +0.000 A 
ATOM     21  C   UNL     1      -0.587  10.571  22.740  0.00  0.00    +0.000 A 
ATOM     22 CL   UNL     1      -0.045   9.433  23.928  0.00  0.00    +0.000 Cl
ATOM     23  C   UNL     1      -1.718  11.317  23.050  0.00  0.00    +0.000 A 
ATOM     24  N   UNL     1      -2.285  12.205  22.211  0.00  0.00    +0.000 NA
ATOM     25  C   UNL     1      -1.693  12.332  20.999  0.00  0.00    +0.000 A 
ATOM     26  C   UNL     1      -0.548  11.642  20.576  0.00  0.00    +0.000 A 
BRANCH  26  27
ATOM     27  S   UNL     1       0.080  12.050  18.955  0.00  0.00    +0.000 S 
BRANCH  27  28
ATOM     28  C   UNL     1       0.415  13.744  19.126  0.00  0.00    +0.000 A 
ATOM     29  N   UNL     1      -0.314  14.744  18.674  0.00  0.00    +0.000 NA
ATOM     30  C   UNL     1       0.349  15.880  19.067  0.00  0.00    +0.000 A 
ATOM     31  C   UNL     1       1.492  15.570  19.763  0.00  0.00    +0.000 A 
ATOM     32  N   UNL     1       1.523  14.200  19.797  0.00  0.00    +0.000 N 
ATOM     33  C   UNL     1       2.549  13.418  20.440  0.00  0.00    +0.000 C 
ENDBRANCH  27  28
ENDBRANCH  26  27
ENDBRANCH  19  20
ENDBRANCH  18  19
ENDBRANCH   9  18
TORSDOF 6
ENDMDL
MODEL 6
REMARK VINA RESULT:      -8.3      2.710      8.887
REMARK  Name = 
REMARK  9 active torsions:
REMARK  status: ('A' for Active; 'I' for Inactive)
REMARK    1  A    between atoms: C_1  and  C_2
REMARK    2  A    between atoms: C_4  and  C_5
REMARK    3  A    between atoms: N_9  and  C_10
REMARK    4  A    between atoms: C_15  and  O_16
REMARK    5  A    between atoms: O_16  and  C_17
REMARK    6  A    between atoms: C_17  and  C_18
REMARK    7  A    between atoms: C_24  and  S_25
REMARK    8  A    between atoms: S_25  and  C_26
REMARK    9  A    between atoms: N_30  and  C_31
REMARK                            x       y       z     vdW  Elec       q    Type
REMARK                         _______ _______ _______ _____ _____    ______ ____
ROOT
ATOM      1  C   UNL     1      -0.132   9.578  23.636  0.00  0.00    +0.000 C 
ATOM      2  C   UNL     1       0.255   9.684  22.188  0.00  0.00    +0.000 A 
ATOM      3  C   UNL     1       0.169  10.903  21.540  0.00  0.00    +0.000 A 
ATOM      4  C   UNL     1       0.662  11.041  20.242  0.00  0.00    +0.000 A 
ATOM      5  C   UNL     1       1.245   9.895  19.621  0.00  0.00    +0.000 A 
ATOM      6  C   UNL     1       1.867   9.930  18.346  0.00  0.00    +0.000 A 
ATOM      7  C   UNL     1       2.372   8.796  17.727  0.00  0.00    +0.000 A 
ATOM      8  C   UNL     1       2.291   7.586  18.381  0.00  0.00    +0.000 A 
ATOM      9  C   UNL     1       1.692   7.502  19.651  0.00  0.00    +0.000 A 
ATOM     10  C   UNL     1       1.209   8.654  20.316  0.00  0.00    +0.000 A 
ATOM     11  N   UNL     1       0.729   8.578  21.582  0.00  0.00    +0.000 NA
ENDROOT
BRANCH   4  12
ATOM     12  C   UNL     1       0.506  12.345  19.537  0.00  0.00    +0.000 A 
ATOM     13  C   UNL     1       1.458  13.330  19.298  0.00  0.00    +0.000 A 
ATOM     14  C   UNL     1       0.790  14.384  18.665  0.00  0.00    +0.000 A 
ATOM     15  N   UNL     1      -0.481  14.089  18.422  0.00  0.00    +0.000 NA
ATOM     16  N   UNL     1      -0.633  12.843  18.921  0.00  0.00    +0.000 N 
ATOM     17  C   UNL     1      -1.923  12.219  18.730  0.00  0.00    +0.000 C 
ENDBRANCH   4  12
BRANCH   9  18
ATOM     18  O   UNL     1       1.552   6.281  20.300  0.00  0.00    +0.000 OA
BRANCH  18  19
ATOM     19  C   UNL     1       2.777   5.556  20.461  0.00  0.00    +0.000 C 
BRANCH  19  20
ATOM     20  C   UNL     1       3.023   4.395  19.520  0.00  0.00    +0.000 A 
ATOM     21  C   UNL     1       2.326   3.187  19.754  0.00  0.00    +0.000 A 
ATOM     22 CL   UNL     1       1.169   2.988  21.028  0.00  0.00    +0.000 Cl
ATOM     23  C   UNL     1       2.580   2.079  18.954  0.00  0.00    +0.000 A 
ATOM     24  N   UNL     1       3.484   2.065  17.956  0.00  0.00    +0.000 NA
ATOM     25  C   UNL     1       4.175   3.216  17.771  0.00  0.00    +0.000 A 
ATOM     26  C   UNL     1       4.003   4.396  18.507  0.00  0.00    +0.000 A 
BRANCH  26  27
ATOM     27  S   UNL     1       4.986   5.801  18.010  0.00  0.00    +0.000 S 
BRANCH  27  28
ATOM     28  C   UNL     1       5.656   5.246  16.508  0.00  0.00    +0.000 A 
ATOM     29  N   UNL     1       5.100   5.328  15.316  0.00  0.00    +0.000 NA
ATOM     30  C   UNL     1       6.013   4.772  14.454  0.00  0.00    +0.000 A 
ATOM     31  C   UNL     1       7.134   4.349  15.127  0.00  0.00    +0.000 A 
ATOM     32  N   UNL     1       6.895   4.659  16.440  0.00  0.00    +0.000 N 
ATOM     33  C   UNL     1       7.812   4.405  17.523  0.00  0.00    +0.000 C 
ENDBRANCH  27  28
ENDBRANCH  26  27
ENDBRANCH  19  20
ENDBRANCH  18  19
ENDBRANCH   9  18
TORSDOF 6
ENDMDL
MODEL 7
REMARK VINA RESULT:      -8.2      3.003      8.599
REMARK  Name = 
REMARK  9 active torsions:
REMARK  status: ('A' for Active; 'I' for Inactive)
REMARK    1  A    between atoms: C_1  and  C_2
REMARK    2  A    between atoms: C_4  and  C_5
REMARK    3  A    between atoms: N_9  and  C_10
REMARK    4  A    between atoms: C_15  and  O_16
REMARK    5  A    between atoms: O_16  and  C_17
REMARK    6  A    between atoms: C_17  and  C_18
REMARK    7  A    between atoms: C_24  and  S_25
REMARK    8  A    between atoms: S_25  and  C_26
REMARK    9  A    between atoms: N_30  and  C_31
REMARK                            x       y       z     vdW  Elec       q    Type
REMARK                         _______ _______ _______ _____ _____    ______ ____
ROOT
ATOM      1  C   UNL     1       0.217   9.264  23.618  0.00  0.00    +0.000 C 
ATOM      2  C   UNL     1       0.512   9.358  22.148  0.00  0.00    +0.000 A 
ATOM      3  C   UNL     1       0.294  10.549  21.477  0.00  0.00    +0.000 A 
ATOM      4  C   UNL     1       0.700  10.688  20.151  0.00  0.00    +0.000 A 
ATOM      5  C   UNL     1       1.336   9.574  19.523  0.00  0.00    +0.000 A 
ATOM      6  C   UNL     1       1.880   9.621  18.213  0.00  0.00    +0.000 A 
ATOM      7  C   UNL     1       2.437   8.513  17.593  0.00  0.00    +0.000 A 
ATOM      8  C   UNL     1       2.488   7.319  18.279  0.00  0.00    +0.000 A 
ATOM      9  C   UNL     1       1.971   7.224  19.582  0.00  0.00    +0.000 A 
ATOM     10  C   UNL     1       1.437   8.353  20.248  0.00  0.00    +0.000 A 
ATOM     11  N   UNL     1       1.036   8.276  21.541  0.00  0.00    +0.000 NA
ENDROOT
BRANCH   4  12
ATOM     12  C   UNL     1       0.403  11.956  19.425  0.00  0.00    +0.000 A 
ATOM     13  C   UNL     1      -0.707  12.282  18.653  0.00  0.00    +0.000 A 
ATOM     14  C   UNL     1      -0.470  13.560  18.134  0.00  0.00    +0.000 A 
ATOM     15  N   UNL     1       0.663  14.077  18.594  0.00  0.00    +0.000 NA
ATOM     16  N   UNL     1       1.164  13.115  19.400  0.00  0.00    +0.000 N 
ATOM     17  C   UNL     1       2.380  13.432  20.113  0.00  0.00    +0.000 C 
ENDBRANCH   4  12
BRANCH   9  18
ATOM     18  O   UNL     1       1.964   6.014  20.267  0.00  0.00    +0.000 OA
BRANCH  18  19
ATOM     19  C   UNL     1       1.811   4.864  19.427  0.00  0.00    +0.000 C 
BRANCH  19  20
ATOM     20  C   UNL     1       2.829   3.754  19.583  0.00  0.00    +0.000 A 
ATOM     21  C   UNL     1       2.836   3.017  20.790  0.00  0.00    +0.000 A 
ATOM     22 CL   UNL     1       1.704   3.287  22.074  0.00  0.00    +0.000 Cl
ATOM     23  C   UNL     1       3.801   2.039  20.996  0.00  0.00    +0.000 A 
ATOM     24  N   UNL     1       4.774   1.748  20.113  0.00  0.00    +0.000 NA
ATOM     25  C   UNL     1       4.783   2.490  18.979  0.00  0.00    +0.000 A 
ATOM     26  C   UNL     1       3.860   3.495  18.657  0.00  0.00    +0.000 A 
BRANCH  26  27
ATOM     27  S   UNL     1       4.046   4.272  17.060  0.00  0.00    +0.000 S 
BRANCH  27  28
ATOM     28  C   UNL     1       5.466   5.239  17.304  0.00  0.00    +0.000 A 
ATOM     29  N   UNL     1       5.886   5.755  18.441  0.00  0.00    +0.000 NA
ATOM     30  C   UNL     1       7.047   6.418  18.128  0.00  0.00    +0.000 A 
ATOM     31  C   UNL     1       7.337   6.303  16.790  0.00  0.00    +0.000 A 
ATOM     32  N   UNL     1       6.320   5.546  16.273  0.00  0.00    +0.000 N 
ATOM     33  C   UNL     1       6.208   5.155  14.889  0.00  0.00    +0.000 C 
ENDBRANCH  27  28
ENDBRANCH  26  27
ENDBRANCH  19  20
ENDBRANCH  18  19
ENDBRANCH   9  18
TORSDOF 6
ENDMDL
MODEL 8
REMARK VINA RESULT:      -8.2      2.478      9.467
REMARK  Name = 
REMARK  9 active torsions:
REMARK  status: ('A' for Active; 'I' for Inactive)
REMARK    1  A    between atoms: C_1  and  C_2
REMARK    2  A    between atoms: C_4  and  C_5
REMARK    3  A    between atoms: N_9  and  C_10
REMARK    4  A    between atoms: C_15  and  O_16
REMARK    5  A    between atoms: O_16  and  C_17
REMARK    6  A    between atoms: C_17  and  C_18
REMARK    7  A    between atoms: C_24  and  S_25
REMARK    8  A    between atoms: S_25  and  C_26
REMARK    9  A    between atoms: N_30  and  C_31
REMARK                            x       y       z     vdW  Elec       q    Type
REMARK                         _______ _______ _______ _____ _____    ______ ____
ROOT
ATOM      1  C   UNL     1      -1.941  10.790  17.163  0.00  0.00    +0.000 C 
ATOM      2  C   UNL     1      -1.353  10.778  18.545  0.00  0.00    +0.000 A 
ATOM      3  C   UNL     1      -1.811  11.674  19.496  0.00  0.00    +0.000 A 
ATOM      4  C   UNL     1      -1.374  11.574  20.817  0.00  0.00    +0.000 A 
ATOM      5  C   UNL     1      -0.452  10.533  21.142  0.00  0.00    +0.000 A 
ATOM      6  C   UNL     1      -0.009  10.266  22.464  0.00  0.00    +0.000 A 
ATOM      7  C   UNL     1       0.935   9.294  22.756  0.00  0.00    +0.000 A 
ATOM      8  C   UNL     1       1.453   8.536  21.729  0.00  0.00    +0.000 A 
ATOM      9  C   UNL     1       1.039   8.755  20.403  0.00  0.00    +0.000 A 
ATOM     10  C   UNL     1       0.046   9.714  20.090  0.00  0.00    +0.000 A 
ATOM     11  N   UNL     1      -0.421   9.845  18.824  0.00  0.00    +0.000 NA
ENDROOT
BRANCH   4  12
ATOM     12  C   UNL     1      -1.830  12.584  21.815  0.00  0.00    +0.000 A 
ATOM     13  C   UNL     1      -3.009  12.614  22.553  0.00  0.00    +0.000 A 
ATOM     14  C   UNL     1      -2.987  13.805  23.287  0.00  0.00    +0.000 A 
ATOM     15  N   UNL     1      -1.849  14.468  23.121  0.00  0.00    +0.000 NA
ATOM     16  N   UNL     1      -1.144  13.705  22.258  0.00  0.00    +0.000 N 
ATOM     17  C   UNL     1       0.195  14.148  21.943  0.00  0.00    +0.000 C 
ENDBRANCH   4  12
BRANCH   9  18
ATOM     18  O   UNL     1       1.592   8.038  19.349  0.00  0.00    +0.000 OA
BRANCH  18  19
ATOM     19  C   UNL     1       2.494   7.001  19.753  0.00  0.00    +0.000 C 
BRANCH  19  20
ATOM     20  C   UNL     1       2.565   5.767  18.878  0.00  0.00    +0.000 A 
ATOM     21  C   UNL     1       1.745   4.663  19.212  0.00  0.00    +0.000 A 
ATOM     22 CL   UNL     1       0.628   4.675  20.536  0.00  0.00    +0.000 Cl
ATOM     23  C   UNL     1       1.837   3.489  18.474  0.00  0.00    +0.000 A 
ATOM     24  N   UNL     1       2.690   3.311  17.449  0.00  0.00    +0.000 NA
ATOM     25  C   UNL     1       3.500   4.361  17.167  0.00  0.00    +0.000 A 
ATOM     26  C   UNL     1       3.495   5.594  17.833  0.00  0.00    +0.000 A 
BRANCH  26  27
ATOM     27  S   UNL     1       4.611   6.843  17.214  0.00  0.00    +0.000 S 
BRANCH  27  28
ATOM     28  C   UNL     1       5.681   5.899  16.226  0.00  0.00    +0.000 A 
ATOM     29  N   UNL     1       5.616   5.739  14.921  0.00  0.00    +0.000 NA
ATOM     30  C   UNL     1       6.677   4.926  14.605  0.00  0.00    +0.000 A 
ATOM     31  C   UNL     1       7.393   4.589  15.728  0.00  0.00    +0.000 A 
ATOM     32  N   UNL     1       6.748   5.218  16.759  0.00  0.00    +0.000 N 
ATOM     33  C   UNL     1       7.155   5.158  18.141  0.00  0.00    +0.000 C 
ENDBRANCH  27  28
ENDBRANCH  26  27
ENDBRANCH  19  20
ENDBRANCH  18  19
ENDBRANCH   9  18
TORSDOF 6
ENDMDL
MODEL 9
REMARK VINA RESULT:      -8.2      1.023      1.376
REMARK  Name = 
REMARK  9 active torsions:
REMARK  status: ('A' for Active; 'I' for Inactive)
REMARK    1  A    between atoms: C_1  and  C_2
REMARK    2  A    between atoms: C_4  and  C_5
REMARK    3  A    between atoms: N_9  and  C_10
REMARK    4  A    between atoms: C_15  and  O_16
REMARK    5  A    between atoms: O_16  and  C_17
REMARK    6  A    between atoms: C_17  and  C_18
REMARK    7  A    between atoms: C_24  and  S_25
REMARK    8  A    between atoms: S_25  and  C_26
REMARK    9  A    between atoms: N_30  and  C_31
REMARK                            x       y       z     vdW  Elec       q    Type
REMARK                         _______ _______ _______ _____ _____    ______ ____
ROOT
ATOM      1  C   UNL     1       1.858   4.012  21.462  0.00  0.00    +0.000 C 
ATOM      2  C   UNL     1       2.409   4.981  20.454  0.00  0.00    +0.000 A 
ATOM      3  C   UNL     1       3.411   4.577  19.588  0.00  0.00    +0.000 A 
ATOM      4  C   UNL     1       3.825   5.421  18.558  0.00  0.00    +0.000 A 
ATOM      5  C   UNL     1       3.189   6.694  18.436  0.00  0.00    +0.000 A 
ATOM      6  C   UNL     1       3.452   7.600  17.376  0.00  0.00    +0.000 A 
ATOM      7  C   UNL     1       2.874   8.859  17.305  0.00  0.00    +0.000 A 
ATOM      8  C   UNL     1       1.990   9.244  18.290  0.00  0.00    +0.000 A 
ATOM      9  C   UNL     1       1.690   8.378  19.356  0.00  0.00    +0.000 A 
ATOM     10  C   UNL     1       2.237   7.074  19.423  0.00  0.00    +0.000 A 
ATOM     11  N   UNL     1       1.861   6.210  20.398  0.00  0.00    +0.000 NA
ENDROOT
BRANCH   4  12
ATOM     12  C   UNL     1       4.947   4.996  17.672  0.00  0.00    +0.000 A 
ATOM     13  C   UNL     1       4.896   4.482  16.381  0.00  0.00    +0.000 A 
ATOM     14  C   UNL     1       6.213   4.175  16.022  0.00  0.00    +0.000 A 
ATOM     15  N   UNL     1       7.078   4.538  16.962  0.00  0.00    +0.000 NA
ATOM     16  N   UNL     1       6.307   5.064  17.937  0.00  0.00    +0.000 N 
ATOM     17  C   UNL     1       6.994   5.623  19.079  0.00  0.00    +0.000 C 
ENDBRANCH   4  12
BRANCH   9  18
ATOM     18  O   UNL     1       0.844   8.772  20.386  0.00  0.00    +0.000 OA
BRANCH  18  19
ATOM     19  C   UNL     1       1.029  10.126  20.814  0.00  0.00    +0.000 C 
BRANCH  19  20
ATOM     20  C   UNL     1      -0.159  10.820  21.447  0.00  0.00    +0.000 A 
ATOM     21  C   UNL     1      -0.507  10.473  22.773  0.00  0.00    +0.000 A 
ATOM     22 CL   UNL     1       0.389   9.335  23.724  0.00  0.00    +0.000 Cl
ATOM     23  C   UNL     1      -1.633  11.038  23.360  0.00  0.00    +0.000 A 
ATOM     24  N   UNL     1      -2.454  11.900  22.732  0.00  0.00    +0.000 NA
ATOM     25  C   UNL     1      -2.133  12.191  21.448  0.00  0.00    +0.000 A 
ATOM     26  C   UNL     1      -1.023  11.691  20.754  0.00  0.00    +0.000 A 
BRANCH  26  27
ATOM     27  S   UNL     1      -0.781  12.294  19.091  0.00  0.00    +0.000 S 
BRANCH  27  28
ATOM     28  C   UNL     1      -1.708  11.154  18.167  0.00  0.00    +0.000 A 
ATOM     29  N   UNL     1      -1.244  10.130  17.480  0.00  0.00    +0.000 NA
ATOM     30  C   UNL     1      -2.353   9.527  16.940  0.00  0.00    +0.000 A 
ATOM     31  C   UNL     1      -3.501  10.188  17.302  0.00  0.00    +0.000 A 
ATOM     32  N   UNL     1      -3.077  11.226  18.088  0.00  0.00    +0.000 N 
ATOM     33  C   UNL     1      -3.946  12.194  18.710  0.00  0.00    +0.000 C 
ENDBRANCH  27  28
ENDBRANCH  26  27
ENDBRANCH  19  20
ENDBRANCH  18  19
ENDBRANCH   9  18
TORSDOF 6
ENDMDL
