MODEL 1
REMARK VINA RESULT:      -8.7      0.000      0.000
REMARK  Name = 
REMARK  3 active torsions:
REMARK  status: ('A' for Active; 'I' for Inactive)
REMARK    1  A    between atoms: C_1  and  C_2
REMARK    2  A    between atoms: C_5  and  N_6
REMARK    3  A    between atoms: C_10  and  C_11
REMARK                            x       y       z     vdW  Elec       q    Type
REMARK                         _______ _______ _______ _____ _____    ______ ____
ROOT
ATOM      1  N   UNL     1       2.698   4.400  18.878  0.00  0.00    +0.000 N 
ATOM      2  C   UNL     1       3.596   4.025  17.917  0.00  0.00    +0.000 A 
ATOM      3  N   UNL     1       4.654   4.794  17.463  0.00  0.00    +0.000 N 
ATOM      4  N   UNL     1       5.046   4.516  16.149  0.00  0.00    +0.000 NA
ATOM      5  C   UNL     1       6.099   5.061  15.619  0.00  0.00    +0.000 C 
ATOM      6  C   UNL     1       6.950   6.063  16.341  0.00  0.00    +0.000 C 
ATOM      7  C   UNL     1       6.386   6.524  17.654  0.00  0.00    +0.000 C 
ATOM      8  C   UNL     1       5.435   5.568  18.317  0.00  0.00    +0.000 C 
ATOM      9  O   UNL     1       5.366   5.558  19.546  0.00  0.00    +0.000 OA
ATOM     10  N   UNL     1       3.396   2.826  17.432  0.00  0.00    +0.000 NA
ATOM     11  N   UNL     1       2.349   2.338  18.131  0.00  0.00    +0.000 N 
ATOM     12  C   UNL     1       1.846   3.299  18.982  0.00  0.00    +0.000 A 
ATOM     13  S   UNL     1       0.409   3.014  19.773  0.00  0.00    +0.000 S 
ATOM     14  H   UNL     1       1.909   1.451  17.902  0.00  0.00    +0.000 HD
ENDROOT
BRANCH   1  19
ATOM     15  C   UNL     1       0.872   9.477  20.897  0.00  0.00    +0.000 C 
ATOM     16  C   UNL     1       1.467   8.194  20.398  0.00  0.00    +0.000 A 
ATOM     17  C   UNL     1       1.966   8.079  19.099  0.00  0.00    +0.000 A 
ATOM     18  C   UNL     1       2.411   6.842  18.605  0.00  0.00    +0.000 A 
ATOM     19  C   UNL     1       2.390   5.692  19.408  0.00  0.00    +0.000 A 
ATOM     20  C   UNL     1       1.963   5.847  20.736  0.00  0.00    +0.000 A 
ATOM     21  C   UNL     1       1.484   7.070  21.221  0.00  0.00    +0.000 A 
ENDBRANCH   1  19
BRANCH   5  22
ATOM     22  C   UNL     1       6.523   4.683  14.216  0.00  0.00    +0.000 A 
ATOM     23  C   UNL     1       5.845   3.676  13.516  0.00  0.00    +0.000 A 
ATOM     24  C   UNL     1       6.223   3.351  12.203  0.00  0.00    +0.000 A 
ATOM     25  C   UNL     1       7.274   4.027  11.583  0.00  0.00    +0.000 A 
ATOM     26  C   UNL     1       7.964   5.015  12.276  0.00  0.00    +0.000 A 
ATOM     27  C   UNL     1       7.594   5.335  13.584  0.00  0.00    +0.000 A 
ENDBRANCH   5  22
TORSDOF 2
ENDMDL
MODEL 2
REMARK VINA RESULT:      -8.6      4.944      6.989
REMARK  Name = 
REMARK  3 active torsions:
REMARK  status: ('A' for Active; 'I' for Inactive)
REMARK    1  A    between atoms: C_1  and  C_2
REMARK    2  A    between atoms: C_5  and  N_6
REMARK    3  A    between atoms: C_10  and  C_11
REMARK                            x       y       z     vdW  Elec       q    Type
REMARK                         _______ _______ _______ _____ _____    ______ ____
ROOT
ATOM      1  N   UNL     1      -0.110  10.199  20.801  0.00  0.00    +0.000 N 
ATOM      2  C   UNL     1       0.777   9.173  20.972  0.00  0.00    +0.000 A 
ATOM      3  N   UNL     1       1.361   8.440  19.955  0.00  0.00    +0.000 N 
ATOM      4  N   UNL     1       1.722   7.137  20.317  0.00  0.00    +0.000 NA
ATOM      5  C   UNL     1       2.392   6.364  19.516  0.00  0.00    +0.000 C 
ATOM      6  C   UNL     1       2.790   6.774  18.131  0.00  0.00    +0.000 C 
ATOM      7  C   UNL     1       2.196   8.076  17.674  0.00  0.00    +0.000 C 
ATOM      8  C   UNL     1       1.806   9.025  18.771  0.00  0.00    +0.000 C 
ATOM      9  O   UNL     1       1.852  10.235  18.553  0.00  0.00    +0.000 OA
ATOM     10  N   UNL     1       1.068   8.917  22.222  0.00  0.00    +0.000 NA
ATOM     11  N   UNL     1       0.394   9.844  22.934  0.00  0.00    +0.000 N 
ATOM     12  C   UNL     1      -0.397  10.609  22.104  0.00  0.00    +0.000 A 
ATOM     13  S   UNL     1      -1.502  11.660  22.774  0.00  0.00    +0.000 S 
ATOM     14  H   UNL     1       0.358   9.830  23.950  0.00  0.00    +0.000 HD
ENDROOT
BRANCH   1  19
ATOM     15  C   UNL     1      -2.831  11.444  15.878  0.00  0.00    +0.000 C 
ATOM     16  C   UNL     1      -2.221  11.175  17.221  0.00  0.00    +0.000 A 
ATOM     17  C   UNL     1      -1.463  12.144  17.884  0.00  0.00    +0.000 A 
ATOM     18  C   UNL     1      -0.798  11.841  19.083  0.00  0.00    +0.000 A 
ATOM     19  C   UNL     1      -0.895  10.569  19.664  0.00  0.00    +0.000 A 
ATOM     20  C   UNL     1      -1.729   9.636  19.025  0.00  0.00    +0.000 A 
ATOM     21  C   UNL     1      -2.363   9.921  17.811  0.00  0.00    +0.000 A 
ENDBRANCH   1  19
BRANCH   5  22
ATOM     22  C   UNL     1       2.816   4.985  19.974  0.00  0.00    +0.000 A 
ATOM     23  C   UNL     1       2.095   4.314  20.971  0.00  0.00    +0.000 A 
ATOM     24  C   UNL     1       2.475   3.022  21.369  0.00  0.00    +0.000 A 
ATOM     25  C   UNL     1       3.571   2.394  20.777  0.00  0.00    +0.000 A 
ATOM     26  C   UNL     1       4.304   3.059  19.800  0.00  0.00    +0.000 A 
ATOM     27  C   UNL     1       3.931   4.347  19.408  0.00  0.00    +0.000 A 
ENDBRANCH   5  22
TORSDOF 2
ENDMDL
MODEL 3
REMARK VINA RESULT:      -8.4      0.380      1.014
REMARK  Name = 
REMARK  3 active torsions:
REMARK  status: ('A' for Active; 'I' for Inactive)
REMARK    1  A    between atoms: C_1  and  C_2
REMARK    2  A    between atoms: C_5  and  N_6
REMARK    3  A    between atoms: C_10  and  C_11
REMARK                            x       y       z     vdW  Elec       q    Type
REMARK                         _______ _______ _______ _____ _____    ______ ____
ROOT
ATOM      1  N   UNL     1       2.708   3.972  18.769  0.00  0.00    +0.000 N 
ATOM      2  C   UNL     1       3.658   3.703  17.823  0.00  0.00    +0.000 A 
ATOM      3  N   UNL     1       4.629   4.585  17.387  0.00  0.00    +0.000 N 
ATOM      4  N   UNL     1       5.072   4.356  16.079  0.00  0.00    +0.000 NA
ATOM      5  C   UNL     1       6.065   5.017  15.566  0.00  0.00    +0.000 C 
ATOM      6  C   UNL     1       6.787   6.106  16.302  0.00  0.00    +0.000 C 
ATOM      7  C   UNL     1       6.154   6.498  17.607  0.00  0.00    +0.000 C 
ATOM      8  C   UNL     1       5.306   5.441  18.254  0.00  0.00    +0.000 C 
ATOM      9  O   UNL     1       5.219   5.419  19.481  0.00  0.00    +0.000 OA
ATOM     10  N   UNL     1       3.600   2.490  17.334  0.00  0.00    +0.000 NA
ATOM     11  N   UNL     1       2.603   1.886  18.016  0.00  0.00    +0.000 N 
ATOM     12  C   UNL     1       1.983   2.783  18.859  0.00  0.00    +0.000 A 
ATOM     13  S   UNL     1       0.574   2.337  19.627  0.00  0.00    +0.000 S 
ATOM     14  H   UNL     1       2.269   0.956  17.780  0.00  0.00    +0.000 HD
ENDROOT
BRANCH   1  19
ATOM     15  C   UNL     1       1.445   9.135  20.992  0.00  0.00    +0.000 C 
ATOM     16  C   UNL     1       1.647   7.773  20.397  0.00  0.00    +0.000 A 
ATOM     17  C   UNL     1       1.554   6.617  21.176  0.00  0.00    +0.000 A 
ATOM     18  C   UNL     1       1.863   5.358  20.636  0.00  0.00    +0.000 A 
ATOM     19  C   UNL     1       2.249   5.221  19.295  0.00  0.00    +0.000 A 
ATOM     20  C   UNL     1       2.255   6.385  18.509  0.00  0.00    +0.000 A 
ATOM     21  C   UNL     1       1.985   7.645  19.052  0.00  0.00    +0.000 A 
ENDBRANCH   1  19
BRANCH   5  22
ATOM     22  C   UNL     1       6.551   4.692  14.171  0.00  0.00    +0.000 A 
ATOM     23  C   UNL     1       5.944   3.672  13.426  0.00  0.00    +0.000 A 
ATOM     24  C   UNL     1       6.378   3.396  12.119  0.00  0.00    +0.000 A 
ATOM     25  C   UNL     1       7.415   4.133  11.549  0.00  0.00    +0.000 A 
ATOM     26  C   UNL     1       8.037   5.136  12.286  0.00  0.00    +0.000 A 
ATOM     27  C   UNL     1       7.610   5.407  13.589  0.00  0.00    +0.000 A 
ENDBRANCH   5  22
TORSDOF 2
ENDMDL
MODEL 4
REMARK VINA RESULT:      -8.2      4.807      6.981
REMARK  Name = 
REMARK  3 active torsions:
REMARK  status: ('A' for Active; 'I' for Inactive)
REMARK    1  A    between atoms: C_1  and  C_2
REMARK    2  A    between atoms: C_5  and  N_6
REMARK    3  A    between atoms: C_10  and  C_11
REMARK                            x       y       z     vdW  Elec       q    Type
REMARK                         _______ _______ _______ _____ _____    ______ ____
ROOT
ATOM      1  N   UNL     1       0.032  10.099  20.538  0.00  0.00    +0.000 N 
ATOM      2  C   UNL     1       0.896   9.064  20.764  0.00  0.00    +0.000 A 
ATOM      3  N   UNL     1       1.484   8.280  19.787  0.00  0.00    +0.000 N 
ATOM      4  N   UNL     1       1.814   6.987  20.206  0.00  0.00    +0.000 NA
ATOM      5  C   UNL     1       2.481   6.170  19.448  0.00  0.00    +0.000 C 
ATOM      6  C   UNL     1       2.910   6.518  18.055  0.00  0.00    +0.000 C 
ATOM      7  C   UNL     1       2.349   7.812  17.537  0.00  0.00    +0.000 C 
ATOM      8  C   UNL     1       1.958   8.810  18.589  0.00  0.00    +0.000 C 
ATOM      9  O   UNL     1       2.031  10.009  18.325  0.00  0.00    +0.000 OA
ATOM     10  N   UNL     1       1.162   8.852  22.028  0.00  0.00    +0.000 NA
ATOM     11  N   UNL     1       0.494   9.819  22.692  0.00  0.00    +0.000 N 
ATOM     12  C   UNL     1      -0.269  10.565  21.818  0.00  0.00    +0.000 A 
ATOM     13  S   UNL     1      -1.365  11.661  22.428  0.00  0.00    +0.000 S 
ATOM     14  H   UNL     1       0.441   9.845  23.706  0.00  0.00    +0.000 HD
ENDROOT
BRANCH   1  19
ATOM     15  C   UNL     1      -3.468  11.640  16.229  0.00  0.00    +0.000 C 
ATOM     16  C   UNL     1      -2.472  11.203  17.262  0.00  0.00    +0.000 A 
ATOM     17  C   UNL     1      -2.378   9.869  17.664  0.00  0.00    +0.000 A 
ATOM     18  C   UNL     1      -1.527   9.491  18.715  0.00  0.00    +0.000 A 
ATOM     19  C   UNL     1      -0.727  10.437  19.374  0.00  0.00    +0.000 A 
ATOM     20  C   UNL     1      -0.775  11.758  18.898  0.00  0.00    +0.000 A 
ATOM     21  C   UNL     1      -1.650  12.144  17.877  0.00  0.00    +0.000 A 
ENDBRANCH   1  19
BRANCH   5  22
ATOM     22  C   UNL     1       2.872   4.804  19.967  0.00  0.00    +0.000 A 
ATOM     23  C   UNL     1       3.953   4.111  19.403  0.00  0.00    +0.000 A 
ATOM     24  C   UNL     1       4.330   2.857  19.909  0.00  0.00    +0.000 A 
ATOM     25  C   UNL     1       3.635   2.288  20.977  0.00  0.00    +0.000 A 
ATOM     26  C   UNL     1       2.550   2.958  21.531  0.00  0.00    +0.000 A 
ATOM     27  C   UNL     1       2.169   4.203  21.024  0.00  0.00    +0.000 A 
ENDBRANCH   5  22
TORSDOF 2
ENDMDL
MODEL 5
REMARK VINA RESULT:      -7.8      2.551      7.699
REMARK  Name = 
REMARK  3 active torsions:
REMARK  status: ('A' for Active; 'I' for Inactive)
REMARK    1  A    between atoms: C_1  and  C_2
REMARK    2  A    between atoms: C_5  and  N_6
REMARK    3  A    between atoms: C_10  and  C_11
REMARK                            x       y       z     vdW  Elec       q    Type
REMARK                         _______ _______ _______ _____ _____    ______ ____
ROOT
ATOM      1  N   UNL     1       3.412   4.308  19.710  0.00  0.00    +0.000 N 
ATOM      2  C   UNL     1       2.457   5.187  20.142  0.00  0.00    +0.000 A 
ATOM      3  N   UNL     1       2.197   6.426  19.586  0.00  0.00    +0.000 N 
ATOM      4  N   UNL     1       1.658   7.359  20.480  0.00  0.00    +0.000 NA
ATOM      5  C   UNL     1       1.244   8.525  20.087  0.00  0.00    +0.000 C 
ATOM      6  C   UNL     1       1.350   8.991  18.666  0.00  0.00    +0.000 C 
ATOM      7  C   UNL     1       2.139   8.079  17.770  0.00  0.00    +0.000 C 
ATOM      8  C   UNL     1       2.203   6.644  18.210  0.00  0.00    +0.000 C 
ATOM      9  O   UNL     1       2.305   5.766  17.354  0.00  0.00    +0.000 OA
ATOM     10  N   UNL     1       1.756   4.761  21.162  0.00  0.00    +0.000 NA
ATOM     11  N   UNL     1       2.213   3.513  21.402  0.00  0.00    +0.000 N 
ATOM     12  C   UNL     1       3.278   3.222  20.577  0.00  0.00    +0.000 A 
ATOM     13  S   UNL     1       4.163   1.837  20.848  0.00  0.00    +0.000 S 
ATOM     14  H   UNL     1       1.911   2.970  22.206  0.00  0.00    +0.000 HD
ENDROOT
BRANCH   1  19
ATOM     15  C   UNL     1       7.689   5.606  16.075  0.00  0.00    +0.000 C 
ATOM     16  C   UNL     1       6.647   5.169  17.063  0.00  0.00    +0.000 A 
ATOM     17  C   UNL     1       5.726   4.166  16.754  0.00  0.00    +0.000 A 
ATOM     18  C   UNL     1       4.682   3.849  17.638  0.00  0.00    +0.000 A 
ATOM     19  C   UNL     1       4.548   4.512  18.866  0.00  0.00    +0.000 A 
ATOM     20  C   UNL     1       5.533   5.459  19.193  0.00  0.00    +0.000 A 
ATOM     21  C   UNL     1       6.553   5.804  18.299  0.00  0.00    +0.000 A 
ENDBRANCH   1  19
BRANCH   5  22
ATOM     22  C   UNL     1       0.611   9.477  21.077  0.00  0.00    +0.000 A 
ATOM     23  C   UNL     1       0.487  10.840  20.774  0.00  0.00    +0.000 A 
ATOM     24  C   UNL     1      -0.131  11.713  21.684  0.00  0.00    +0.000 A 
ATOM     25  C   UNL     1      -0.627  11.235  22.897  0.00  0.00    +0.000 A 
ATOM     26  C   UNL     1      -0.493   9.887  23.215  0.00  0.00    +0.000 A 
ATOM     27  C   UNL     1       0.127   9.019  22.313  0.00  0.00    +0.000 A 
ENDBRANCH   5  22
TORSDOF 2
ENDMDL
MODEL 6
REMARK VINA RESULT:      -7.4      2.698      7.870
REMARK  Name = 
REMARK  3 active torsions:
REMARK  status: ('A' for Active; 'I' for Inactive)
REMARK    1  A    between atoms: C_1  and  C_2
REMARK    2  A    between atoms: C_5  and  N_6
REMARK    3  A    between atoms: C_10  and  C_11
REMARK                            x       y       z     vdW  Elec       q    Type
REMARK                         _______ _______ _______ _____ _____    ______ ____
ROOT
ATOM      1  N   UNL     1       3.074   4.625  19.694  0.00  0.00    +0.000 N 
ATOM      2  C   UNL     1       2.144   5.534  20.116  0.00  0.00    +0.000 A 
ATOM      3  N   UNL     1       1.949   6.793  19.576  0.00  0.00    +0.000 N 
ATOM      4  N   UNL     1       1.424   7.730  20.472  0.00  0.00    +0.000 NA
ATOM      5  C   UNL     1       1.068   8.919  20.090  0.00  0.00    +0.000 C 
ATOM      6  C   UNL     1       1.233   9.406  18.681  0.00  0.00    +0.000 C 
ATOM      7  C   UNL     1       2.009   8.479  17.791  0.00  0.00    +0.000 C 
ATOM      8  C   UNL     1       2.003   7.034  18.205  0.00  0.00    +0.000 C 
ATOM      9  O   UNL     1       2.093   6.168  17.336  0.00  0.00    +0.000 OA
ATOM     10  N   UNL     1       1.397   5.119  21.107  0.00  0.00    +0.000 NA
ATOM     11  N   UNL     1       1.797   3.850  21.337  0.00  0.00    +0.000 N 
ATOM     12  C   UNL     1       2.872   3.530  20.536  0.00  0.00    +0.000 A 
ATOM     13  S   UNL     1       3.693   2.106  20.806  0.00  0.00    +0.000 S 
ATOM     14  H   UNL     1       1.451   3.305  22.122  0.00  0.00    +0.000 HD
ENDROOT
BRANCH   1  19
ATOM     15  C   UNL     1       7.954   4.771  16.635  0.00  0.00    +0.000 C 
ATOM     16  C   UNL     1       6.657   4.850  17.385  0.00  0.00    +0.000 A 
ATOM     17  C   UNL     1       6.567   5.496  18.620  0.00  0.00    +0.000 A 
ATOM     18  C   UNL     1       5.379   5.461  19.367  0.00  0.00    +0.000 A 
ATOM     19  C   UNL     1       4.241   4.798  18.886  0.00  0.00    +0.000 A 
ATOM     20  C   UNL     1       4.327   4.225  17.606  0.00  0.00    +0.000 A 
ATOM     21  C   UNL     1       5.520   4.226  16.875  0.00  0.00    +0.000 A 
ENDBRANCH   1  19
BRANCH   5  22
ATOM     22  C   UNL     1       0.445   9.879  21.080  0.00  0.00    +0.000 A 
ATOM     23  C   UNL     1       0.459  11.259  20.837  0.00  0.00    +0.000 A 
ATOM     24  C   UNL     1      -0.149  12.142  21.744  0.00  0.00    +0.000 A 
ATOM     25  C   UNL     1      -0.771  11.656  22.895  0.00  0.00    +0.000 A 
ATOM     26  C   UNL     1      -0.773  10.290  23.154  0.00  0.00    +0.000 A 
ATOM     27  C   UNL     1      -0.164   9.411  22.255  0.00  0.00    +0.000 A 
ENDBRANCH   5  22
TORSDOF 2
ENDMDL
MODEL 7
REMARK VINA RESULT:      -7.4      6.856     10.150
REMARK  Name = 
REMARK  3 active torsions:
REMARK  status: ('A' for Active; 'I' for Inactive)
REMARK    1  A    between atoms: C_1  and  C_2
REMARK    2  A    between atoms: C_5  and  N_6
REMARK    3  A    between atoms: C_10  and  C_11
REMARK                            x       y       z     vdW  Elec       q    Type
REMARK                         _______ _______ _______ _____ _____    ______ ____
ROOT
ATOM      1  N   UNL     1      -2.732  13.465  21.805  0.00  0.00    +0.000 N 
ATOM      2  C   UNL     1      -2.239  12.387  21.124  0.00  0.00    +0.000 A 
ATOM      3  N   UNL     1      -1.382  11.433  21.643  0.00  0.00    +0.000 N 
ATOM      4  N   UNL     1      -0.563  10.814  20.692  0.00  0.00    +0.000 NA
ATOM      5  C   UNL     1       0.206   9.813  20.997  0.00  0.00    +0.000 C 
ATOM      6  C   UNL     1       0.321   9.268  22.390  0.00  0.00    +0.000 C 
ATOM      7  C   UNL     1      -0.380  10.087  23.436  0.00  0.00    +0.000 C 
ATOM      8  C   UNL     1      -1.516  10.933  22.936  0.00  0.00    +0.000 C 
ATOM      9  O   UNL     1      -2.455  11.172  23.695  0.00  0.00    +0.000 OA
ATOM     10  N   UNL     1      -2.655  12.296  19.886  0.00  0.00    +0.000 NA
ATOM     11  N   UNL     1      -3.514  13.326  19.731  0.00  0.00    +0.000 N 
ATOM     12  C   UNL     1      -3.538  14.110  20.865  0.00  0.00    +0.000 A 
ATOM     13  S   UNL     1      -4.339  15.569  20.829  0.00  0.00    +0.000 S 
ATOM     14  H   UNL     1      -3.924  13.561  18.831  0.00  0.00    +0.000 HD
ENDROOT
BRANCH   1  19
ATOM     15  C   UNL     1      -1.236  16.428  26.513  0.00  0.00    +0.000 C 
ATOM     16  C   UNL     1      -1.565  15.556  25.338  0.00  0.00    +0.000 A 
ATOM     17  C   UNL     1      -0.659  15.374  24.290  0.00  0.00    +0.000 A 
ATOM     18  C   UNL     1      -1.023  14.653  23.141  0.00  0.00    +0.000 A 
ATOM     19  C   UNL     1      -2.295  14.074  23.023  0.00  0.00    +0.000 A 
ATOM     20  C   UNL     1      -3.159  14.198  24.122  0.00  0.00    +0.000 A 
ATOM     21  C   UNL     1      -2.815  14.947  25.253  0.00  0.00    +0.000 A 
ENDBRANCH   1  19
BRANCH   5  22
ATOM     22  C   UNL     1       1.027   9.134  19.924  0.00  0.00    +0.000 A 
ATOM     23  C   UNL     1       1.148   9.708  18.651  0.00  0.00    +0.000 A 
ATOM     24  C   UNL     1       1.937   9.089  17.668  0.00  0.00    +0.000 A 
ATOM     25  C   UNL     1       2.609   7.898  17.947  0.00  0.00    +0.000 A 
ATOM     26  C   UNL     1       2.481   7.311  19.201  0.00  0.00    +0.000 A 
ATOM     27  C   UNL     1       1.690   7.922  20.178  0.00  0.00    +0.000 A 
ENDBRANCH   5  22
TORSDOF 2
ENDMDL
MODEL 8
REMARK VINA RESULT:      -7.1      2.967      7.223
REMARK  Name = 
REMARK  3 active torsions:
REMARK  status: ('A' for Active; 'I' for Inactive)
REMARK    1  A    between atoms: C_1  and  C_2
REMARK    2  A    between atoms: C_5  and  N_6
REMARK    3  A    between atoms: C_10  and  C_11
REMARK                            x       y       z     vdW  Elec       q    Type
REMARK                         _______ _______ _______ _____ _____    ______ ____
ROOT
ATOM      1  N   UNL     1       3.959   5.645  17.300  0.00  0.00    +0.000 N 
ATOM      2  C   UNL     1       3.668   6.953  17.573  0.00  0.00    +0.000 A 
ATOM      3  N   UNL     1       2.778   7.393  18.536  0.00  0.00    +0.000 N 
ATOM      4  N   UNL     1       2.197   8.636  18.260  0.00  0.00    +0.000 NA
ATOM      5  C   UNL     1       1.437   9.243  19.121  0.00  0.00    +0.000 C 
ATOM      6  C   UNL     1       1.080   8.653  20.452  0.00  0.00    +0.000 C 
ATOM      7  C   UNL     1       1.516   7.228  20.636  0.00  0.00    +0.000 C 
ATOM      8  C   UNL     1       2.681   6.797  19.791  0.00  0.00    +0.000 C 
ATOM      9  O   UNL     1       3.438   5.929  20.224  0.00  0.00    +0.000 OA
ATOM     10  N   UNL     1       4.324   7.815  16.838  0.00  0.00    +0.000 NA
ATOM     11  N   UNL     1       5.141   7.065  16.067  0.00  0.00    +0.000 N 
ATOM     12  C   UNL     1       4.899   5.723  16.271  0.00  0.00    +0.000 A 
ATOM     13  S   UNL     1       5.612   4.605  15.262  0.00  0.00    +0.000 S 
ATOM     14  H   UNL     1       5.707   7.466  15.325  0.00  0.00    +0.000 HD
ENDROOT
BRANCH   1  19
ATOM     15  C   UNL     1       1.038   1.069  19.228  0.00  0.00    +0.000 C 
ATOM     16  C   UNL     1       1.814   2.197  18.615  0.00  0.00    +0.000 A 
ATOM     17  C   UNL     1       3.211   2.210  18.625  0.00  0.00    +0.000 A 
ATOM     18  C   UNL     1       3.925   3.325  18.156  0.00  0.00    +0.000 A 
ATOM     19  C   UNL     1       3.258   4.447  17.643  0.00  0.00    +0.000 A 
ATOM     20  C   UNL     1       1.857   4.379  17.566  0.00  0.00    +0.000 A 
ATOM     21  C   UNL     1       1.141   3.286  18.066  0.00  0.00    +0.000 A 
ENDBRANCH   1  19
BRANCH   5  22
ATOM     22  C   UNL     1       0.882  10.615  18.805  0.00  0.00    +0.000 A 
ATOM     23  C   UNL     1      -0.491  10.792  18.586  0.00  0.00    +0.000 A 
ATOM     24  C   UNL     1      -1.006  12.072  18.325  0.00  0.00    +0.000 A 
ATOM     25  C   UNL     1      -0.158  13.179  18.281  0.00  0.00    +0.000 A 
ATOM     26  C   UNL     1       1.209  13.011  18.478  0.00  0.00    +0.000 A 
ATOM     27  C   UNL     1       1.722  11.737  18.732  0.00  0.00    +0.000 A 
ENDBRANCH   5  22
TORSDOF 2
ENDMDL
MODEL 9
REMARK VINA RESULT:      -7.0      7.287     10.469
REMARK  Name = 
REMARK  3 active torsions:
REMARK  status: ('A' for Active; 'I' for Inactive)
REMARK    1  A    between atoms: C_1  and  C_2
REMARK    2  A    between atoms: C_5  and  N_6
REMARK    3  A    between atoms: C_10  and  C_11
REMARK                            x       y       z     vdW  Elec       q    Type
REMARK                         _______ _______ _______ _____ _____    ______ ____
ROOT
ATOM      1  N   UNL     1      -3.586  13.000  21.942  0.00  0.00    +0.000 N 
ATOM      2  C   UNL     1      -2.430  12.289  21.776  0.00  0.00    +0.000 A 
ATOM      3  N   UNL     1      -1.633  12.306  20.645  0.00  0.00    +0.000 N 
ATOM      4  N   UNL     1      -0.896  11.134  20.441  0.00  0.00    +0.000 NA
ATOM      5  C   UNL     1      -0.010  11.037  19.496  0.00  0.00    +0.000 C 
ATOM      6  C   UNL     1       0.265  12.142  18.520  0.00  0.00    +0.000 C 
ATOM      7  C   UNL     1      -0.692  13.296  18.604  0.00  0.00    +0.000 C 
ATOM      8  C   UNL     1      -1.372  13.474  19.932  0.00  0.00    +0.000 C 
ATOM      9  O   UNL     1      -1.695  14.607  20.285  0.00  0.00    +0.000 OA
ATOM     10  N   UNL     1      -2.093  11.560  22.809  0.00  0.00    +0.000 NA
ATOM     11  N   UNL     1      -3.030  11.827  23.744  0.00  0.00    +0.000 N 
ATOM     12  C   UNL     1      -4.005  12.654  23.228  0.00  0.00    +0.000 A 
ATOM     13  S   UNL     1      -5.389  12.931  24.112  0.00  0.00    +0.000 S 
ATOM     14  H   UNL     1      -3.075  11.326  24.627  0.00  0.00    +0.000 HD
ENDROOT
BRANCH   1  19
ATOM     15  C   UNL     1      -7.436  15.513  18.471  0.00  0.00    +0.000 C 
ATOM     16  C   UNL     1      -6.346  14.877  19.282  0.00  0.00    +0.000 A 
ATOM     17  C   UNL     1      -6.010  13.531  19.121  0.00  0.00    +0.000 A 
ATOM     18  C   UNL     1      -5.073  12.916  19.967  0.00  0.00    +0.000 A 
ATOM     19  C   UNL     1      -4.429  13.640  20.981  0.00  0.00    +0.000 A 
ATOM     20  C   UNL     1      -4.720  15.011  21.072  0.00  0.00    +0.000 A 
ATOM     21  C   UNL     1      -5.681  15.619  20.255  0.00  0.00    +0.000 A 
ENDBRANCH   1  19
BRANCH   5  22
ATOM     22  C   UNL     1       0.809   9.773  19.352  0.00  0.00    +0.000 A 
ATOM     23  C   UNL     1       1.404   9.447  18.126  0.00  0.00    +0.000 A 
ATOM     24  C   UNL     1       2.189   8.289  18.007  0.00  0.00    +0.000 A 
ATOM     25  C   UNL     1       2.385   7.452  19.106  0.00  0.00    +0.000 A 
ATOM     26  C   UNL     1       1.784   7.757  20.322  0.00  0.00    +0.000 A 
ATOM     27  C   UNL     1       0.997   8.906  20.440  0.00  0.00    +0.000 A 
ENDBRANCH   5  22
TORSDOF 2
ENDMDL
