MODEL 1
REMARK VINA RESULT:      -7.5      0.000      0.000
REMARK  Name = 
REMARK  7 active torsions:
REMARK  status: ('A' for Active; 'I' for Inactive)
REMARK    1  A    between atoms: C_1  and  C_2
REMARK    2  A    between atoms: C_4  and  C_5
REMARK    3  A    between atoms: N_6  and  C_7
REMARK    4  A    between atoms: C_7  and  C_8
REMARK    5  A    between atoms: N_12  and  C_13
REMARK    6  A    between atoms: C_13  and  C_14
REMARK    7  A    between atoms: C_17  and  C_18
REMARK                            x       y       z     vdW  Elec       q    Type
REMARK                         _______ _______ _______ _____ _____    ______ ____
ROOT
ATOM      1  C   UNL     1       2.060   4.961  19.125  0.00  0.00    +0.000 C 
ATOM      2  C   UNL     1       1.247   4.139  20.127  0.00  0.00    +0.000 C 
ATOM      3  C   UNL     1       0.980   2.851  19.384  0.00  0.00    +0.000 C 
ATOM      4  C   UNL     1       2.212   2.662  18.516  0.00  0.00    +0.000 C 
ATOM      5  N   UNL     1       2.922   3.960  18.441  0.00  0.00    +0.000 NA
ENDROOT
BRANCH   1   6
ATOM      6  C   UNL     1       2.585   6.241  19.815  0.00  0.00    +0.000 C 
BRANCH   6  12
ATOM      7  C   UNL     1       0.455  10.402  18.632  0.00  0.00    +0.000 C 
ATOM      8  C   UNL     1       1.430   9.295  18.634  0.00  0.00    +0.000 A 
ATOM      9  N   UNL     1       2.293   9.056  17.599  0.00  0.00    +0.000 NA
ATOM     10  C   UNL     1       2.888   7.932  17.952  0.00  0.00    +0.000 A 
ATOM     11  C   UNL     1       3.960   7.227  17.212  0.00  0.00    +0.000 C 
ATOM     12  N   UNL     1       2.338   7.493  19.132  0.00  0.00    +0.000 N 
ATOM     13  N   UNL     1       1.495   8.414  19.633  0.00  0.00    +0.000 NA
ENDBRANCH   6  12
ENDBRANCH   1   6
BRANCH   5  14
ATOM     14  C   UNL     1       4.316   3.769  18.861  0.00  0.00    +0.000 C 
BRANCH  14  15
ATOM     15  C   UNL     1       5.341   4.095  17.832  0.00  0.00    +0.000 A 
ATOM     16  C   UNL     1       6.595   4.637  17.961  0.00  0.00    +0.000 A 
ATOM     17  O   UNL     1       7.142   4.756  16.717  0.00  0.00    +0.000 OA
ATOM     18  C   UNL     1       6.170   4.282  15.864  0.00  0.00    +0.000 A 
ATOM     19  N   UNL     1       5.071   3.898  16.494  0.00  0.00    +0.000 NA
BRANCH  18  20
ATOM     20  C   UNL     1       6.357   4.147  14.446  0.00  0.00    +0.000 A 
ATOM     21  C   UNL     1       5.575   3.419  13.572  0.00  0.00    +0.000 A 
ATOM     22  C   UNL     1       5.993   3.565  12.216  0.00  0.00    +0.000 A 
ATOM     23  C   UNL     1       7.102   4.372  12.103  0.00  0.00    +0.000 A 
ATOM     24  S   UNL     1       7.615   4.970  13.621  0.00  0.00    +0.000 S 
ENDBRANCH  18  20
ENDBRANCH  14  15
ENDBRANCH   5  14
TORSDOF 5
ENDMDL
MODEL 2
REMARK VINA RESULT:      -7.4      3.016      6.506
REMARK  Name = 
REMARK  7 active torsions:
REMARK  status: ('A' for Active; 'I' for Inactive)
REMARK    1  A    between atoms: C_1  and  C_2
REMARK    2  A    between atoms: C_4  and  C_5
REMARK    3  A    between atoms: N_6  and  C_7
REMARK    4  A    between atoms: C_7  and  C_8
REMARK    5  A    between atoms: N_12  and  C_13
REMARK    6  A    between atoms: C_13  and  C_14
REMARK    7  A    between atoms: C_17  and  C_18
REMARK                            x       y       z     vdW  Elec       q    Type
REMARK                         _______ _______ _______ _____ _____    ______ ____
ROOT
ATOM      1  C   UNL     1       4.056   3.528  17.221  0.00  0.00    +0.000 C 
ATOM      2  C   UNL     1       2.540   3.326  17.190  0.00  0.00    +0.000 C 
ATOM      3  C   UNL     1       2.341   2.064  17.996  0.00  0.00    +0.000 C 
ATOM      4  C   UNL     1       3.445   2.113  19.039  0.00  0.00    +0.000 C 
ATOM      5  N   UNL     1       4.457   3.095  18.587  0.00  0.00    +0.000 NA
ENDROOT
BRANCH   1   6
ATOM      6  C   UNL     1       4.405   4.900  16.601  0.00  0.00    +0.000 C 
BRANCH   6  12
ATOM      7  C   UNL     1       6.956   3.906  12.632  0.00  0.00    +0.000 C 
ATOM      8  C   UNL     1       6.585   4.507  13.926  0.00  0.00    +0.000 A 
ATOM      9  N   UNL     1       7.492   5.090  14.770  0.00  0.00    +0.000 NA
ATOM     10  C   UNL     1       6.773   5.382  15.836  0.00  0.00    +0.000 A 
ATOM     11  C   UNL     1       7.242   6.074  17.059  0.00  0.00    +0.000 C 
ATOM     12  N   UNL     1       5.492   4.922  15.646  0.00  0.00    +0.000 N 
ATOM     13  N   UNL     1       5.334   4.471  14.388  0.00  0.00    +0.000 NA
ENDBRANCH   6  12
ENDBRANCH   1   6
BRANCH   5  14
ATOM     14  C   UNL     1       4.669   4.089  19.649  0.00  0.00    +0.000 C 
BRANCH  14  15
ATOM     15  C   UNL     1       3.502   4.964  19.941  0.00  0.00    +0.000 A 
ATOM     16  C   UNL     1       2.396   4.746  20.724  0.00  0.00    +0.000 A 
ATOM     17  O   UNL     1       1.599   5.851  20.660  0.00  0.00    +0.000 OA
ATOM     18  C   UNL     1       2.263   6.709  19.812  0.00  0.00    +0.000 A 
ATOM     19  N   UNL     1       3.394   6.204  19.346  0.00  0.00    +0.000 NA
BRANCH  18  20
ATOM     20  C   UNL     1       1.814   8.042  19.522  0.00  0.00    +0.000 A 
ATOM     21  C   UNL     1       1.930   8.713  18.321  0.00  0.00    +0.000 A 
ATOM     22  C   UNL     1       1.305   9.995  18.350  0.00  0.00    +0.000 A 
ATOM     23  C   UNL     1       0.763  10.275  19.584  0.00  0.00    +0.000 A 
ATOM     24  S   UNL     1       0.984   8.987  20.687  0.00  0.00    +0.000 S 
ENDBRANCH  18  20
ENDBRANCH  14  15
ENDBRANCH   5  14
TORSDOF 5
ENDMDL
MODEL 3
REMARK VINA RESULT:      -7.4      3.594      7.499
REMARK  Name = 
REMARK  7 active torsions:
REMARK  status: ('A' for Active; 'I' for Inactive)
REMARK    1  A    between atoms: C_1  and  C_2
REMARK    2  A    between atoms: C_4  and  C_5
REMARK    3  A    between atoms: N_6  and  C_7
REMARK    4  A    between atoms: C_7  and  C_8
REMARK    5  A    between atoms: N_12  and  C_13
REMARK    6  A    between atoms: C_13  and  C_14
REMARK    7  A    between atoms: C_17  and  C_18
REMARK                            x       y       z     vdW  Elec       q    Type
REMARK                         _______ _______ _______ _____ _____    ______ ____
ROOT
ATOM      1  C   UNL     1       4.457   4.596  19.322  0.00  0.00    +0.000 C 
ATOM      2  C   UNL     1       4.173   3.332  18.507  0.00  0.00    +0.000 C 
ATOM      3  C   UNL     1       2.695   3.105  18.724  0.00  0.00    +0.000 C 
ATOM      4  C   UNL     1       2.121   4.505  18.861  0.00  0.00    +0.000 C 
ATOM      5  N   UNL     1       3.240   5.433  19.141  0.00  0.00    +0.000 NA
ENDROOT
BRANCH   1   6
ATOM      6  C   UNL     1       5.899   5.076  19.040  0.00  0.00    +0.000 C 
BRANCH   6  12
ATOM      7  C   UNL     1       6.429   4.126  14.342  0.00  0.00    +0.000 C 
ATOM      8  C   UNL     1       6.473   4.858  15.621  0.00  0.00    +0.000 A 
ATOM      9  N   UNL     1       7.276   5.946  15.835  0.00  0.00    +0.000 NA
ATOM     10  C   UNL     1       7.096   6.210  17.115  0.00  0.00    +0.000 A 
ATOM     11  C   UNL     1       7.697   7.327  17.882  0.00  0.00    +0.000 C 
ATOM     12  N   UNL     1       6.260   5.260  17.650  0.00  0.00    +0.000 N 
ATOM     13  N   UNL     1       5.765   4.467  16.682  0.00  0.00    +0.000 NA
ENDBRANCH   6  12
ENDBRANCH   1   6
BRANCH   5  14
ATOM     14  C   UNL     1       3.225   6.516  18.148  0.00  0.00    +0.000 C 
BRANCH  14  15
ATOM     15  C   UNL     1       2.434   7.717  18.531  0.00  0.00    +0.000 A 
ATOM     16  C   UNL     1       2.080   8.823  17.799  0.00  0.00    +0.000 A 
ATOM     17  O   UNL     1       1.362   9.659  18.603  0.00  0.00    +0.000 OA
ATOM     18  C   UNL     1       1.317   9.016  19.820  0.00  0.00    +0.000 A 
ATOM     19  N   UNL     1       1.967   7.862  19.820  0.00  0.00    +0.000 NA
BRANCH  18  20
ATOM     20  C   UNL     1       0.582   9.509  20.951  0.00  0.00    +0.000 A 
ATOM     21  C   UNL     1       0.511   8.940  22.206  0.00  0.00    +0.000 A 
ATOM     22  C   UNL     1      -0.243   9.732  23.123  0.00  0.00    +0.000 A 
ATOM     23  C   UNL     1      -0.754  10.862  22.526  0.00  0.00    +0.000 A 
ATOM     24  S   UNL     1      -0.300  10.978  20.881  0.00  0.00    +0.000 S 
ENDBRANCH  18  20
ENDBRANCH  14  15
ENDBRANCH   5  14
TORSDOF 5
ENDMDL
MODEL 4
REMARK VINA RESULT:      -7.3      2.857      6.164
REMARK  Name = 
REMARK  7 active torsions:
REMARK  status: ('A' for Active; 'I' for Inactive)
REMARK    1  A    between atoms: C_1  and  C_2
REMARK    2  A    between atoms: C_4  and  C_5
REMARK    3  A    between atoms: N_6  and  C_7
REMARK    4  A    between atoms: C_7  and  C_8
REMARK    5  A    between atoms: N_12  and  C_13
REMARK    6  A    between atoms: C_13  and  C_14
REMARK    7  A    between atoms: C_17  and  C_18
REMARK                            x       y       z     vdW  Elec       q    Type
REMARK                         _______ _______ _______ _____ _____    ______ ____
ROOT
ATOM      1  C   UNL     1       3.976   3.610  17.226  0.00  0.00    +0.000 C 
ATOM      2  C   UNL     1       2.481   3.287  17.245  0.00  0.00    +0.000 C 
ATOM      3  C   UNL     1       2.415   1.993  18.021  0.00  0.00    +0.000 C 
ATOM      4  C   UNL     1       3.553   2.102  19.022  0.00  0.00    +0.000 C 
ATOM      5  N   UNL     1       4.465   3.174  18.562  0.00  0.00    +0.000 NA
ENDROOT
BRANCH   1   6
ATOM      6  C   UNL     1       4.190   5.022  16.634  0.00  0.00    +0.000 C 
BRANCH   6  12
ATOM      7  C   UNL     1       7.957   7.817  17.752  0.00  0.00    +0.000 C 
ATOM      8  C   UNL     1       7.173   6.726  17.144  0.00  0.00    +0.000 A 
ATOM      9  N   UNL     1       7.591   6.025  16.045  0.00  0.00    +0.000 NA
ATOM     10  C   UNL     1       6.563   5.245  15.771  0.00  0.00    +0.000 A 
ATOM     11  C   UNL     1       6.481   4.233  14.693  0.00  0.00    +0.000 C 
ATOM     12  N   UNL     1       5.545   5.532  16.649  0.00  0.00    +0.000 N 
ATOM     13  N   UNL     1       5.966   6.387  17.599  0.00  0.00    +0.000 NA
ENDBRANCH   6  12
ENDBRANCH   1   6
BRANCH   5  14
ATOM     14  C   UNL     1       4.640   4.152  19.644  0.00  0.00    +0.000 C 
BRANCH  14  15
ATOM     15  C   UNL     1       3.432   4.956  19.975  0.00  0.00    +0.000 A 
ATOM     16  C   UNL     1       2.317   4.633  20.707  0.00  0.00    +0.000 A 
ATOM     17  O   UNL     1       1.479   5.708  20.711  0.00  0.00    +0.000 OA
ATOM     18  C   UNL     1       2.128   6.658  19.954  0.00  0.00    +0.000 A 
ATOM     19  N   UNL     1       3.290   6.235  19.479  0.00  0.00    +0.000 NA
BRANCH  18  20
ATOM     20  C   UNL     1       1.634   7.992  19.761  0.00  0.00    +0.000 A 
ATOM     21  C   UNL     1       0.991   8.782  20.694  0.00  0.00    +0.000 A 
ATOM     22  C   UNL     1       0.704  10.088  20.197  0.00  0.00    +0.000 A 
ATOM     23  C   UNL     1       1.106  10.241  18.889  0.00  0.00    +0.000 A 
ATOM     24  S   UNL     1       1.848   8.827  18.279  0.00  0.00    +0.000 S 
ENDBRANCH  18  20
ENDBRANCH  14  15
ENDBRANCH   5  14
TORSDOF 5
ENDMDL
MODEL 5
REMARK VINA RESULT:      -7.2      1.018      1.209
REMARK  Name = 
REMARK  7 active torsions:
REMARK  status: ('A' for Active; 'I' for Inactive)
REMARK    1  A    between atoms: C_1  and  C_2
REMARK    2  A    between atoms: C_4  and  C_5
REMARK    3  A    between atoms: N_6  and  C_7
REMARK    4  A    between atoms: C_7  and  C_8
REMARK    5  A    between atoms: N_12  and  C_13
REMARK    6  A    between atoms: C_13  and  C_14
REMARK    7  A    between atoms: C_17  and  C_18
REMARK                            x       y       z     vdW  Elec       q    Type
REMARK                         _______ _______ _______ _____ _____    ______ ____
ROOT
ATOM      1  C   UNL     1       2.276   5.202  19.060  0.00  0.00    +0.000 C 
ATOM      2  C   UNL     1       1.405   4.316  19.952  0.00  0.00    +0.000 C 
ATOM      3  C   UNL     1       1.068   3.147  19.056  0.00  0.00    +0.000 C 
ATOM      4  C   UNL     1       2.295   2.990  18.174  0.00  0.00    +0.000 C 
ATOM      5  N   UNL     1       3.083   4.241  18.260  0.00  0.00    +0.000 NA
ENDROOT
BRANCH   1   6
ATOM      6  C   UNL     1       2.871   6.353  19.903  0.00  0.00    +0.000 C 
BRANCH   6  12
ATOM      7  C   UNL     1      -0.324   9.463  21.739  0.00  0.00    +0.000 C 
ATOM      8  C   UNL     1       0.694   8.893  20.838  0.00  0.00    +0.000 A 
ATOM      9  N   UNL     1       0.900   9.339  19.561  0.00  0.00    +0.000 NA
ATOM     10  C   UNL     1       1.796   8.498  19.084  0.00  0.00    +0.000 A 
ATOM     11  C   UNL     1       2.421   8.536  17.742  0.00  0.00    +0.000 C 
ATOM     12  N   UNL     1       2.059   7.544  20.038  0.00  0.00    +0.000 N 
ATOM     13  N   UNL     1       1.453   7.856  21.198  0.00  0.00    +0.000 NA
ENDBRANCH   6  12
ENDBRANCH   1   6
BRANCH   5  14
ATOM     14  C   UNL     1       4.458   3.915  18.658  0.00  0.00    +0.000 C 
BRANCH  14  15
ATOM     15  C   UNL     1       5.499   4.188  17.629  0.00  0.00    +0.000 A 
ATOM     16  C   UNL     1       6.779   4.666  17.759  0.00  0.00    +0.000 A 
ATOM     17  O   UNL     1       7.332   4.757  16.516  0.00  0.00    +0.000 OA
ATOM     18  C   UNL     1       6.338   4.334  15.662  0.00  0.00    +0.000 A 
ATOM     19  N   UNL     1       5.220   4.007  16.291  0.00  0.00    +0.000 NA
BRANCH  18  20
ATOM     20  C   UNL     1       6.518   4.191  14.244  0.00  0.00    +0.000 A 
ATOM     21  C   UNL     1       5.768   3.412  13.387  0.00  0.00    +0.000 A 
ATOM     22  C   UNL     1       6.164   3.562  12.025  0.00  0.00    +0.000 A 
ATOM     23  C   UNL     1       7.229   4.425  11.891  0.00  0.00    +0.000 A 
ATOM     24  S   UNL     1       7.724   5.068  13.396  0.00  0.00    +0.000 S 
ENDBRANCH  18  20
ENDBRANCH  14  15
ENDBRANCH   5  14
TORSDOF 5
ENDMDL
MODEL 6
REMARK VINA RESULT:      -7.0      3.741      8.238
REMARK  Name = 
REMARK  7 active torsions:
REMARK  status: ('A' for Active; 'I' for Inactive)
REMARK    1  A    between atoms: C_1  and  C_2
REMARK    2  A    between atoms: C_4  and  C_5
REMARK    3  A    between atoms: N_6  and  C_7
REMARK    4  A    between atoms: C_7  and  C_8
REMARK    5  A    between atoms: N_12  and  C_13
REMARK    6  A    between atoms: C_13  and  C_14
REMARK    7  A    between atoms: C_17  and  C_18
REMARK                            x       y       z     vdW  Elec       q    Type
REMARK                         _______ _______ _______ _____ _____    ______ ____
ROOT
ATOM      1  C   UNL     1       4.230   6.223  18.236  0.00  0.00    +0.000 C 
ATOM      2  C   UNL     1       3.845   4.816  17.775  0.00  0.00    +0.000 C 
ATOM      3  C   UNL     1       2.799   4.395  18.780  0.00  0.00    +0.000 C 
ATOM      4  C   UNL     1       2.091   5.689  19.143  0.00  0.00    +0.000 C 
ATOM      5  N   UNL     1       2.951   6.816  18.715  0.00  0.00    +0.000 NA
ENDROOT
BRANCH   1   6
ATOM      6  C   UNL     1       5.156   6.875  17.184  0.00  0.00    +0.000 C 
BRANCH   6  12
ATOM      7  C   UNL     1       6.556   4.059  13.528  0.00  0.00    +0.000 C 
ATOM      8  C   UNL     1       6.589   4.777  14.816  0.00  0.00    +0.000 A 
ATOM      9  N   UNL     1       7.438   4.445  15.838  0.00  0.00    +0.000 NA
ATOM     10  C   UNL     1       7.061   5.243  16.818  0.00  0.00    +0.000 A 
ATOM     11  C   UNL     1       7.672   5.343  18.164  0.00  0.00    +0.000 C 
ATOM     12  N   UNL     1       5.977   5.977  16.400  0.00  0.00    +0.000 N 
ATOM     13  N   UNL     1       5.746   5.773  15.090  0.00  0.00    +0.000 NA
ENDBRANCH   6  12
ENDBRANCH   1   6
BRANCH   5  14
ATOM     14  C   UNL     1       2.175   7.709  17.844  0.00  0.00    +0.000 C 
BRANCH  14  15
ATOM     15  C   UNL     1       1.738   8.985  18.472  0.00  0.00    +0.000 A 
ATOM     16  C   UNL     1       1.925  10.286  18.073  0.00  0.00    +0.000 A 
ATOM     17  O   UNL     1       1.345  11.106  18.996  0.00  0.00    +0.000 OA
ATOM     18  C   UNL     1       0.828  10.251  19.944  0.00  0.00    +0.000 A 
ATOM     19  N   UNL     1       1.063   8.976  19.674  0.00  0.00    +0.000 NA
BRANCH  18  20
ATOM     20  C   UNL     1       0.051  10.690  21.069  0.00  0.00    +0.000 A 
ATOM     21  C   UNL     1      -0.630  11.885  21.190  0.00  0.00    +0.000 A 
ATOM     22  C   UNL     1      -1.369  11.970  22.408  0.00  0.00    +0.000 A 
ATOM     23  C   UNL     1      -1.199  10.851  23.192  0.00  0.00    +0.000 A 
ATOM     24  S   UNL     1      -0.179   9.698  22.448  0.00  0.00    +0.000 S 
ENDBRANCH  18  20
ENDBRANCH  14  15
ENDBRANCH   5  14
TORSDOF 5
ENDMDL
MODEL 7
REMARK VINA RESULT:      -6.9      3.141      7.170
REMARK  Name = 
REMARK  7 active torsions:
REMARK  status: ('A' for Active; 'I' for Inactive)
REMARK    1  A    between atoms: C_1  and  C_2
REMARK    2  A    between atoms: C_4  and  C_5
REMARK    3  A    between atoms: N_6  and  C_7
REMARK    4  A    between atoms: C_7  and  C_8
REMARK    5  A    between atoms: N_12  and  C_13
REMARK    6  A    between atoms: C_13  and  C_14
REMARK    7  A    between atoms: C_17  and  C_18
REMARK                            x       y       z     vdW  Elec       q    Type
REMARK                         _______ _______ _______ _____ _____    ______ ____
ROOT
ATOM      1  C   UNL     1       4.145   4.127  18.616  0.00  0.00    +0.000 C 
ATOM      2  C   UNL     1       3.692   3.320  17.398  0.00  0.00    +0.000 C 
ATOM      3  C   UNL     1       2.194   3.235  17.576  0.00  0.00    +0.000 C 
ATOM      4  C   UNL     1       1.826   4.543  18.256  0.00  0.00    +0.000 C 
ATOM      5  N   UNL     1       3.064   5.130  18.817  0.00  0.00    +0.000 NA
ENDROOT
BRANCH   1   6
ATOM      6  C   UNL     1       5.644   4.473  18.475  0.00  0.00    +0.000 C 
BRANCH   6  12
ATOM      7  C   UNL     1       6.580   4.070  13.761  0.00  0.00    +0.000 C 
ATOM      8  C   UNL     1       6.494   4.656  15.112  0.00  0.00    +0.000 A 
ATOM      9  N   UNL     1       7.233   5.738  15.508  0.00  0.00    +0.000 NA
ATOM     10  C   UNL     1       6.943   5.852  16.790  0.00  0.00    +0.000 A 
ATOM     11  C   UNL     1       7.436   6.894  17.720  0.00  0.00    +0.000 C 
ATOM     12  N   UNL     1       6.106   4.822  17.148  0.00  0.00    +0.000 N 
ATOM     13  N   UNL     1       5.721   4.127  16.062  0.00  0.00    +0.000 NA
ENDBRANCH   6  12
ENDBRANCH   1   6
BRANCH   5  14
ATOM     14  C   UNL     1       3.219   6.500  18.308  0.00  0.00    +0.000 C 
BRANCH  14  15
ATOM     15  C   UNL     1       2.359   7.522  18.965  0.00  0.00    +0.000 A 
ATOM     16  C   UNL     1       1.985   7.663  20.278  0.00  0.00    +0.000 A 
ATOM     17  O   UNL     1       1.173   8.755  20.378  0.00  0.00    +0.000 OA
ATOM     18  C   UNL     1       1.077   9.235  19.091  0.00  0.00    +0.000 A 
ATOM     19  N   UNL     1       1.755   8.510  18.216  0.00  0.00    +0.000 NA
BRANCH  18  20
ATOM     20  C   UNL     1       0.375  10.439  18.744  0.00  0.00    +0.000 A 
ATOM     21  C   UNL     1      -0.910  10.537  18.250  0.00  0.00    +0.000 A 
ATOM     22  C   UNL     1      -1.331  11.891  18.088  0.00  0.00    +0.000 A 
ATOM     23  C   UNL     1      -0.339  12.782  18.431  0.00  0.00    +0.000 A 
ATOM     24  S   UNL     1       1.076  11.988  18.970  0.00  0.00    +0.000 S 
ENDBRANCH  18  20
ENDBRANCH  14  15
ENDBRANCH   5  14
TORSDOF 5
ENDMDL
MODEL 8
REMARK VINA RESULT:      -6.9      3.719      7.334
REMARK  Name = 
REMARK  7 active torsions:
REMARK  status: ('A' for Active; 'I' for Inactive)
REMARK    1  A    between atoms: C_1  and  C_2
REMARK    2  A    between atoms: C_4  and  C_5
REMARK    3  A    between atoms: N_6  and  C_7
REMARK    4  A    between atoms: C_7  and  C_8
REMARK    5  A    between atoms: N_12  and  C_13
REMARK    6  A    between atoms: C_13  and  C_14
REMARK    7  A    between atoms: C_17  and  C_18
REMARK                            x       y       z     vdW  Elec       q    Type
REMARK                         _______ _______ _______ _____ _____    ______ ____
ROOT
ATOM      1  C   UNL     1       4.522   4.394  19.288  0.00  0.00    +0.000 C 
ATOM      2  C   UNL     1       3.541   3.229  19.429  0.00  0.00    +0.000 C 
ATOM      3  C   UNL     1       2.585   3.707  20.497  0.00  0.00    +0.000 C 
ATOM      4  C   UNL     1       2.519   5.211  20.289  0.00  0.00    +0.000 C 
ATOM      5  N   UNL     1       3.679   5.609  19.459  0.00  0.00    +0.000 NA
ENDROOT
BRANCH   1   6
ATOM      6  C   UNL     1       5.454   4.139  18.082  0.00  0.00    +0.000 C 
BRANCH   6  12
ATOM      7  C   UNL     1       8.301   8.019  18.386  0.00  0.00    +0.000 C 
ATOM      8  C   UNL     1       7.534   6.906  17.797  0.00  0.00    +0.000 A 
ATOM      9  N   UNL     1       7.166   6.863  16.479  0.00  0.00    +0.000 NA
ATOM     10  C   UNL     1       6.414   5.782  16.408  0.00  0.00    +0.000 A 
ATOM     11  C   UNL     1       5.776   5.226  15.192  0.00  0.00    +0.000 C 
ATOM     12  N   UNL     1       6.292   5.243  17.666  0.00  0.00    +0.000 N 
ATOM     13  N   UNL     1       7.098   5.882  18.534  0.00  0.00    +0.000 NA
ENDBRANCH   6  12
ENDBRANCH   1   6
BRANCH   5  14
ATOM     14  C   UNL     1       3.198   6.349  18.285  0.00  0.00    +0.000 C 
BRANCH  14  15
ATOM     15  C   UNL     1       2.421   7.583  18.586  0.00  0.00    +0.000 A 
ATOM     16  C   UNL     1       2.098   8.652  17.788  0.00  0.00    +0.000 A 
ATOM     17  O   UNL     1       1.382   9.543  18.531  0.00  0.00    +0.000 OA
ATOM     18  C   UNL     1       1.308   8.971  19.782  0.00  0.00    +0.000 A 
ATOM     19  N   UNL     1       1.937   7.809  19.858  0.00  0.00    +0.000 NA
BRANCH  18  20
ATOM     20  C   UNL     1       0.564   9.539  20.871  0.00  0.00    +0.000 A 
ATOM     21  C   UNL     1      -0.003   8.860  21.931  0.00  0.00    +0.000 A 
ATOM     22  C   UNL     1      -0.604   9.738  22.882  0.00  0.00    +0.000 A 
ATOM     23  C   UNL     1      -0.507  11.057  22.498  0.00  0.00    +0.000 A 
ATOM     24  S   UNL     1       0.329  11.231  21.016  0.00  0.00    +0.000 S 
ENDBRANCH  18  20
ENDBRANCH  14  15
ENDBRANCH   5  14
TORSDOF 5
ENDMDL
MODEL 9
REMARK VINA RESULT:      -6.9      1.467      1.781
REMARK  Name = 
REMARK  7 active torsions:
REMARK  status: ('A' for Active; 'I' for Inactive)
REMARK    1  A    between atoms: C_1  and  C_2
REMARK    2  A    between atoms: C_4  and  C_5
REMARK    3  A    between atoms: N_6  and  C_7
REMARK    4  A    between atoms: C_7  and  C_8
REMARK    5  A    between atoms: N_12  and  C_13
REMARK    6  A    between atoms: C_13  and  C_14
REMARK    7  A    between atoms: C_17  and  C_18
REMARK                            x       y       z     vdW  Elec       q    Type
REMARK                         _______ _______ _______ _____ _____    ______ ____
ROOT
ATOM      1  C   UNL     1       1.892   5.244  19.510  0.00  0.00    +0.000 C 
ATOM      2  C   UNL     1       1.514   4.501  20.792  0.00  0.00    +0.000 C 
ATOM      3  C   UNL     1       0.945   3.198  20.283  0.00  0.00    +0.000 C 
ATOM      4  C   UNL     1       1.734   2.919  19.015  0.00  0.00    +0.000 C 
ATOM      5  N   UNL     1       2.391   4.179  18.599  0.00  0.00    +0.000 NA
ENDROOT
BRANCH   1   6
ATOM      6  C   UNL     1       2.678   6.525  19.871  0.00  0.00    +0.000 C 
BRANCH   6  12
ATOM      7  C   UNL     1      -0.324   9.631  22.013  0.00  0.00    +0.000 C 
ATOM      8  C   UNL     1       0.616   9.070  21.026  0.00  0.00    +0.000 A 
ATOM      9  N   UNL     1       0.733   9.546  19.747  0.00  0.00    +0.000 NA
ATOM     10  C   UNL     1       1.579   8.704  19.186  0.00  0.00    +0.000 A 
ATOM     11  C   UNL     1       2.104   8.767  17.801  0.00  0.00    +0.000 C 
ATOM     12  N   UNL     1       1.897   7.723  20.094  0.00  0.00    +0.000 N 
ATOM     13  N   UNL     1       1.384   8.015  21.303  0.00  0.00    +0.000 NA
ENDBRANCH   6  12
ENDBRANCH   1   6
BRANCH   5  14
ATOM     14  C   UNL     1       3.834   3.942  18.453  0.00  0.00    +0.000 C 
BRANCH  14  15
ATOM     15  C   UNL     1       4.486   4.670  17.331  0.00  0.00    +0.000 A 
ATOM     16  C   UNL     1       4.745   6.008  17.165  0.00  0.00    +0.000 A 
ATOM     17  O   UNL     1       5.351   6.181  15.956  0.00  0.00    +0.000 OA
ATOM     18  C   UNL     1       5.426   4.915  15.420  0.00  0.00    +0.000 A 
ATOM     19  N   UNL     1       4.899   3.989  16.205  0.00  0.00    +0.000 NA
BRANCH  18  20
ATOM     20  C   UNL     1       6.075   4.618  14.174  0.00  0.00    +0.000 A 
ATOM     21  C   UNL     1       7.287   5.109  13.732  0.00  0.00    +0.000 A 
ATOM     22  C   UNL     1       7.680   4.547  12.481  0.00  0.00    +0.000 A 
ATOM     23  C   UNL     1       6.737   3.673  11.991  0.00  0.00    +0.000 A 
ATOM     24  S   UNL     1       5.403   3.512  13.049  0.00  0.00    +0.000 S 
ENDBRANCH  18  20
ENDBRANCH  14  15
ENDBRANCH   5  14
TORSDOF 5
ENDMDL
