MODEL 1
REMARK VINA RESULT:      -6.3      0.000      0.000
REMARK  Name = 
REMARK  8 active torsions:
REMARK  status: ('A' for Active; 'I' for Inactive)
REMARK    1  A    between atoms: C_1  and  C_2
REMARK    2  A    between atoms: C_2  and  O_3
REMARK    3  A    between atoms: O_3  and  C_4
REMARK    4  A    between atoms: C_6  and  O_7
REMARK    5  A    between atoms: O_7  and  C_8
REMARK    6  A    between atoms: C_8  and  C_9
REMARK    7  A    between atoms: C_11  and  S_12
REMARK    8  A    between atoms: S_12  and  C_13
REMARK                            x       y       z     vdW  Elec       q    Type
REMARK                         _______ _______ _______ _____ _____    ______ ____
ROOT
ATOM      1  C   UNL     1       3.619   5.703  18.245  0.00  0.00    +0.000 A 
ATOM      2  C   UNL     1       3.133   4.610  18.934  0.00  0.00    +0.000 A 
ATOM      3  C   UNL     1       4.081   3.727  19.401  0.00  0.00    +0.000 A 
ATOM      4  N   UNL     1       5.399   3.898  19.230  0.00  0.00    +0.000 NA
ATOM      5  C   UNL     1       5.740   4.998  18.549  0.00  0.00    +0.000 A 
ATOM      6  N   UNL     1       4.923   5.915  18.008  0.00  0.00    +0.000 NA
ENDROOT
BRANCH   5   7
ATOM      7  S   UNL     1       7.484   5.276  18.320  0.00  0.00    +0.000 S 
ATOM      8  C   UNL     1       7.541   6.933  17.695  0.00  0.00    +0.000 C 
ATOM      9  O   UNL     1       8.129   5.263  19.625  0.00  0.00    +0.000 OA
ATOM     10  O   UNL     1       7.969   4.411  17.256  0.00  0.00    +0.000 OA
ENDBRANCH   5   7
BRANCH   1  11
ATOM     11  O   UNL     1       2.703   6.600  17.728  0.00  0.00    +0.000 OA
BRANCH  11  13
ATOM     12  C   UNL     1       2.028   8.912  17.824  0.00  0.00    +0.000 C 
ATOM     13  C   UNL     1       2.445   7.689  18.624  0.00  0.00    +0.000 C 
ENDBRANCH  11  13
ENDBRANCH   1  11
BRANCH   3  14
ATOM     14  O   UNL     1       3.649   2.628  20.123  0.00  0.00    +0.000 OA
BRANCH  14  15
ATOM     15  C   UNL     1       2.216   2.556  20.184  0.00  0.00    +0.000 C 
ATOM     16  C   UNL     1       1.762   2.621  21.632  0.00  0.00    +0.000 C 
ENDBRANCH  14  15
ENDBRANCH   3  14
TORSDOF 5
ENDMDL
MODEL 2
REMARK VINA RESULT:      -6.1      2.969      5.570
REMARK  Name = 
REMARK  8 active torsions:
REMARK  status: ('A' for Active; 'I' for Inactive)
REMARK    1  A    between atoms: C_1  and  C_2
REMARK    2  A    between atoms: C_2  and  O_3
REMARK    3  A    between atoms: O_3  and  C_4
REMARK    4  A    between atoms: C_6  and  O_7
REMARK    5  A    between atoms: O_7  and  C_8
REMARK    6  A    between atoms: C_8  and  C_9
REMARK    7  A    between atoms: C_11  and  S_12
REMARK    8  A    between atoms: S_12  and  C_13
REMARK                            x       y       z     vdW  Elec       q    Type
REMARK                         _______ _______ _______ _____ _____    ______ ____
ROOT
ATOM      1  C   UNL     1       6.720   4.444  17.796  0.00  0.00    +0.000 A 
ATOM      2  C   UNL     1       6.604   4.479  16.421  0.00  0.00    +0.000 A 
ATOM      3  C   UNL     1       5.355   4.184  15.919  0.00  0.00    +0.000 A 
ATOM      4  N   UNL     1       4.298   3.894  16.689  0.00  0.00    +0.000 NA
ATOM      5  C   UNL     1       4.543   3.897  18.004  0.00  0.00    +0.000 A 
ATOM      6  N   UNL     1       5.711   4.127  18.622  0.00  0.00    +0.000 NA
ENDROOT
BRANCH   5   7
ATOM      7  S   UNL     1       3.157   3.541  19.065  0.00  0.00    +0.000 S 
ATOM      8  C   UNL     1       2.114   2.549  18.032  0.00  0.00    +0.000 C 
ATOM      9  O   UNL     1       3.621   2.711  20.168  0.00  0.00    +0.000 OA
ATOM     10  O   UNL     1       2.431   4.772  19.332  0.00  0.00    +0.000 OA
ENDBRANCH   5   7
BRANCH   1  11
ATOM     11  O   UNL     1       7.963   4.701  18.345  0.00  0.00    +0.000 OA
BRANCH  11  13
ATOM     12  C   UNL     1       8.003   7.109  18.433  0.00  0.00    +0.000 C 
ATOM     13  C   UNL     1       7.940   5.823  19.238  0.00  0.00    +0.000 C 
ENDBRANCH  11  13
ENDBRANCH   1  11
BRANCH   3  14
ATOM     14  O   UNL     1       5.177   4.231  14.547  0.00  0.00    +0.000 OA
BRANCH  14  15
ATOM     15  C   UNL     1       6.409   4.030  13.838  0.00  0.00    +0.000 C 
ATOM     16  C   UNL     1       6.121   3.433  12.472  0.00  0.00    +0.000 C 
ENDBRANCH  14  15
ENDBRANCH   3  14
TORSDOF 5
ENDMDL
MODEL 3
REMARK VINA RESULT:      -6.0      2.958      5.437
REMARK  Name = 
REMARK  8 active torsions:
REMARK  status: ('A' for Active; 'I' for Inactive)
REMARK    1  A    between atoms: C_1  and  C_2
REMARK    2  A    between atoms: C_2  and  O_3
REMARK    3  A    between atoms: O_3  and  C_4
REMARK    4  A    between atoms: C_6  and  O_7
REMARK    5  A    between atoms: O_7  and  C_8
REMARK    6  A    between atoms: C_8  and  C_9
REMARK    7  A    between atoms: C_11  and  S_12
REMARK    8  A    between atoms: S_12  and  C_13
REMARK                            x       y       z     vdW  Elec       q    Type
REMARK                         _______ _______ _______ _____ _____    ______ ____
ROOT
ATOM      1  C   UNL     1       5.337   4.117  15.953  0.00  0.00    +0.000 A 
ATOM      2  C   UNL     1       6.587   4.433  16.447  0.00  0.00    +0.000 A 
ATOM      3  C   UNL     1       6.705   4.432  17.820  0.00  0.00    +0.000 A 
ATOM      4  N   UNL     1       5.696   4.132  18.648  0.00  0.00    +0.000 NA
ATOM      5  C   UNL     1       4.538   3.840  18.043  0.00  0.00    +0.000 A 
ATOM      6  N   UNL     1       4.276   3.842  16.727  0.00  0.00    +0.000 NA
ENDROOT
BRANCH   5   7
ATOM      7  S   UNL     1       3.176   3.411  19.109  0.00  0.00    +0.000 S 
ATOM      8  C   UNL     1       2.118   2.477  18.038  0.00  0.00    +0.000 C 
ATOM      9  O   UNL     1       3.668   2.519  20.149  0.00  0.00    +0.000 OA
ATOM     10  O   UNL     1       2.450   4.619  19.464  0.00  0.00    +0.000 OA
ENDBRANCH   5   7
BRANCH   1  11
ATOM     11  O   UNL     1       5.162   4.139  14.581  0.00  0.00    +0.000 OA
BRANCH  11  13
ATOM     12  C   UNL     1       6.167   3.441  12.505  0.00  0.00    +0.000 C 
ATOM     13  C   UNL     1       6.407   4.051  13.875  0.00  0.00    +0.000 C 
ENDBRANCH  11  13
ENDBRANCH   1  11
BRANCH   3  14
ATOM     14  O   UNL     1       7.944   4.714  18.368  0.00  0.00    +0.000 OA
BRANCH  14  15
ATOM     15  C   UNL     1       7.905   5.873  19.215  0.00  0.00    +0.000 C 
ATOM     16  C   UNL     1       8.020   7.128  18.368  0.00  0.00    +0.000 C 
ENDBRANCH  14  15
ENDBRANCH   3  14
TORSDOF 5
ENDMDL
MODEL 4
REMARK VINA RESULT:      -6.0      3.089      5.454
REMARK  Name = 
REMARK  8 active torsions:
REMARK  status: ('A' for Active; 'I' for Inactive)
REMARK    1  A    between atoms: C_1  and  C_2
REMARK    2  A    between atoms: C_2  and  O_3
REMARK    3  A    between atoms: O_3  and  C_4
REMARK    4  A    between atoms: C_6  and  O_7
REMARK    5  A    between atoms: O_7  and  C_8
REMARK    6  A    between atoms: C_8  and  C_9
REMARK    7  A    between atoms: C_11  and  S_12
REMARK    8  A    between atoms: S_12  and  C_13
REMARK                            x       y       z     vdW  Elec       q    Type
REMARK                         _______ _______ _______ _____ _____    ______ ____
ROOT
ATOM      1  C   UNL     1       5.340   4.349  15.667  0.00  0.00    +0.000 A 
ATOM      2  C   UNL     1       6.560   4.572  16.274  0.00  0.00    +0.000 A 
ATOM      3  C   UNL     1       6.572   4.465  17.648  0.00  0.00    +0.000 A 
ATOM      4  N   UNL     1       5.492   4.149  18.375  0.00  0.00    +0.000 NA
ATOM      5  C   UNL     1       4.374   3.955  17.666  0.00  0.00    +0.000 A 
ATOM      6  N   UNL     1       4.213   4.065  16.338  0.00  0.00    +0.000 NA
ENDROOT
BRANCH   5   7
ATOM      7  S   UNL     1       2.919   3.509  18.593  0.00  0.00    +0.000 S 
ATOM      8  C   UNL     1       2.730   4.873  19.708  0.00  0.00    +0.000 C 
ATOM      9  O   UNL     1       1.779   3.504  17.687  0.00  0.00    +0.000 OA
ATOM     10  O   UNL     1       3.212   2.341  19.407  0.00  0.00    +0.000 OA
ENDBRANCH   5   7
BRANCH   1  11
ATOM     11  O   UNL     1       5.271   4.479  14.292  0.00  0.00    +0.000 OA
BRANCH  11  13
ATOM     12  C   UNL     1       5.946   3.321  12.289  0.00  0.00    +0.000 C 
ATOM     13  C   UNL     1       6.391   3.871  13.634  0.00  0.00    +0.000 C 
ENDBRANCH  11  13
ENDBRANCH   1  11
BRANCH   3  14
ATOM     14  O   UNL     1       7.776   4.651  18.305  0.00  0.00    +0.000 OA
BRANCH  14  15
ATOM     15  C   UNL     1       7.737   5.786  19.184  0.00  0.00    +0.000 C 
ATOM     16  C   UNL     1       7.978   7.057  18.389  0.00  0.00    +0.000 C 
ENDBRANCH  14  15
ENDBRANCH   3  14
TORSDOF 5
ENDMDL
MODEL 5
REMARK VINA RESULT:      -6.0      0.772      3.945
REMARK  Name = 
REMARK  8 active torsions:
REMARK  status: ('A' for Active; 'I' for Inactive)
REMARK    1  A    between atoms: C_1  and  C_2
REMARK    2  A    between atoms: C_2  and  O_3
REMARK    3  A    between atoms: O_3  and  C_4
REMARK    4  A    between atoms: C_6  and  O_7
REMARK    5  A    between atoms: O_7  and  C_8
REMARK    6  A    between atoms: C_8  and  C_9
REMARK    7  A    between atoms: C_11  and  S_12
REMARK    8  A    between atoms: S_12  and  C_13
REMARK                            x       y       z     vdW  Elec       q    Type
REMARK                         _______ _______ _______ _____ _____    ______ ____
ROOT
ATOM      1  C   UNL     1       4.270   3.882  19.297  0.00  0.00    +0.000 A 
ATOM      2  C   UNL     1       3.220   4.706  18.942  0.00  0.00    +0.000 A 
ATOM      3  C   UNL     1       3.549   5.786  18.151  0.00  0.00    +0.000 A 
ATOM      4  N   UNL     1       4.793   6.038  17.724  0.00  0.00    +0.000 NA
ATOM      5  C   UNL     1       5.718   5.163  18.135  0.00  0.00    +0.000 A 
ATOM      6  N   UNL     1       5.544   4.098  18.933  0.00  0.00    +0.000 NA
ENDROOT
BRANCH   5   7
ATOM      7  S   UNL     1       7.382   5.449  17.568  0.00  0.00    +0.000 S 
ATOM      8  C   UNL     1       8.088   6.403  18.884  0.00  0.00    +0.000 C 
ATOM      9  O   UNL     1       8.077   4.170  17.515  0.00  0.00    +0.000 OA
ATOM     10  O   UNL     1       7.347   6.311  16.399  0.00  0.00    +0.000 OA
ENDBRANCH   5   7
BRANCH   1  11
ATOM     11  O   UNL     1       3.995   2.804  20.118  0.00  0.00    +0.000 OA
BRANCH  11  13
ATOM     12  C   UNL     1       2.207   2.594  21.720  0.00  0.00    +0.000 C 
ATOM     13  C   UNL     1       2.586   2.570  20.249  0.00  0.00    +0.000 C 
ENDBRANCH  11  13
ENDBRANCH   1  11
BRANCH   3  14
ATOM     14  O   UNL     1       2.529   6.628  17.743  0.00  0.00    +0.000 OA
BRANCH  14  15
ATOM     15  C   UNL     1       2.411   7.779  18.595  0.00  0.00    +0.000 C 
ATOM     16  C   UNL     1       1.836   8.941  17.805  0.00  0.00    +0.000 C 
ENDBRANCH  14  15
ENDBRANCH   3  14
TORSDOF 5
ENDMDL
MODEL 6
REMARK VINA RESULT:      -6.0      3.137      5.649
REMARK  Name = 
REMARK  8 active torsions:
REMARK  status: ('A' for Active; 'I' for Inactive)
REMARK    1  A    between atoms: C_1  and  C_2
REMARK    2  A    between atoms: C_2  and  O_3
REMARK    3  A    between atoms: O_3  and  C_4
REMARK    4  A    between atoms: C_6  and  O_7
REMARK    5  A    between atoms: O_7  and  C_8
REMARK    6  A    between atoms: C_8  and  C_9
REMARK    7  A    between atoms: C_11  and  S_12
REMARK    8  A    between atoms: S_12  and  C_13
REMARK                            x       y       z     vdW  Elec       q    Type
REMARK                         _______ _______ _______ _____ _____    ______ ____
ROOT
ATOM      1  C   UNL     1       6.558   4.460  17.636  0.00  0.00    +0.000 A 
ATOM      2  C   UNL     1       6.564   4.509  16.256  0.00  0.00    +0.000 A 
ATOM      3  C   UNL     1       5.344   4.310  15.646  0.00  0.00    +0.000 A 
ATOM      4  N   UNL     1       4.206   4.098  16.320  0.00  0.00    +0.000 NA
ATOM      5  C   UNL     1       4.336   4.078  17.652  0.00  0.00    +0.000 A 
ATOM      6  N   UNL     1       5.461   4.217  18.370  0.00  0.00    +0.000 NA
ENDROOT
BRANCH   5   7
ATOM      7  S   UNL     1       2.841   3.824  18.587  0.00  0.00    +0.000 S 
ATOM      8  C   UNL     1       3.264   2.467  19.645  0.00  0.00    +0.000 C 
ATOM      9  O   UNL     1       2.615   4.994  19.423  0.00  0.00    +0.000 OA
ATOM     10  O   UNL     1       1.796   3.349  17.696  0.00  0.00    +0.000 OA
ENDBRANCH   5   7
BRANCH   1  11
ATOM     11  O   UNL     1       7.765   4.620  18.291  0.00  0.00    +0.000 OA
BRANCH  11  13
ATOM     12  C   UNL     1       7.942   7.022  18.369  0.00  0.00    +0.000 C 
ATOM     13  C   UNL     1       7.756   5.749  19.176  0.00  0.00    +0.000 C 
ENDBRANCH  11  13
ENDBRANCH   1  11
BRANCH   3  14
ATOM     14  O   UNL     1       5.288   4.376  14.265  0.00  0.00    +0.000 OA
BRANCH  14  15
ATOM     15  C   UNL     1       6.529   3.983  13.658  0.00  0.00    +0.000 C 
ATOM     16  C   UNL     1       6.261   3.393  12.285  0.00  0.00    +0.000 C 
ENDBRANCH  14  15
ENDBRANCH   3  14
TORSDOF 5
ENDMDL
MODEL 7
REMARK VINA RESULT:      -5.8      1.821      4.124
REMARK  Name = 
REMARK  8 active torsions:
REMARK  status: ('A' for Active; 'I' for Inactive)
REMARK    1  A    between atoms: C_1  and  C_2
REMARK    2  A    between atoms: C_2  and  O_3
REMARK    3  A    between atoms: O_3  and  C_4
REMARK    4  A    between atoms: C_6  and  O_7
REMARK    5  A    between atoms: O_7  and  C_8
REMARK    6  A    between atoms: C_8  and  C_9
REMARK    7  A    between atoms: C_11  and  S_12
REMARK    8  A    between atoms: S_12  and  C_13
REMARK                            x       y       z     vdW  Elec       q    Type
REMARK                         _______ _______ _______ _____ _____    ______ ____
ROOT
ATOM      1  C   UNL     1       3.385   4.208  17.394  0.00  0.00    +0.000 A 
ATOM      2  C   UNL     1       2.797   5.329  17.947  0.00  0.00    +0.000 A 
ATOM      3  C   UNL     1       3.604   6.441  18.045  0.00  0.00    +0.000 A 
ATOM      4  N   UNL     1       4.876   6.471  17.625  0.00  0.00    +0.000 NA
ATOM      5  C   UNL     1       5.324   5.322  17.105  0.00  0.00    +0.000 A 
ATOM      6  N   UNL     1       4.662   4.161  16.986  0.00  0.00    +0.000 NA
ENDROOT
BRANCH   5   7
ATOM      7  S   UNL     1       7.004   5.326  16.511  0.00  0.00    +0.000 S 
ATOM      8  C   UNL     1       6.848   4.643  14.883  0.00  0.00    +0.000 C 
ATOM      9  O   UNL     1       7.443   6.708  16.381  0.00  0.00    +0.000 OA
ATOM     10  O   UNL     1       7.787   4.380  17.289  0.00  0.00    +0.000 OA
ENDBRANCH   5   7
BRANCH   1  11
ATOM     11  O   UNL     1       2.623   3.058  17.306  0.00  0.00    +0.000 OA
BRANCH  11  13
ATOM     12  C   UNL     1       1.801   2.018  19.318  0.00  0.00    +0.000 C 
ATOM     13  C   UNL     1       1.535   3.055  18.241  0.00  0.00    +0.000 C 
ENDBRANCH  11  13
ENDBRANCH   1  11
BRANCH   3  14
ATOM     14  O   UNL     1       3.057   7.600  18.567  0.00  0.00    +0.000 OA
BRANCH  14  15
ATOM     15  C   UNL     1       2.293   8.321  17.587  0.00  0.00    +0.000 C 
ATOM     16  C   UNL     1       1.651   9.536  18.234  0.00  0.00    +0.000 C 
ENDBRANCH  14  15
ENDBRANCH   3  14
TORSDOF 5
ENDMDL
MODEL 8
REMARK VINA RESULT:      -5.8      3.183      5.811
REMARK  Name = 
REMARK  8 active torsions:
REMARK  status: ('A' for Active; 'I' for Inactive)
REMARK    1  A    between atoms: C_1  and  C_2
REMARK    2  A    between atoms: C_2  and  O_3
REMARK    3  A    between atoms: O_3  and  C_4
REMARK    4  A    between atoms: C_6  and  O_7
REMARK    5  A    between atoms: O_7  and  C_8
REMARK    6  A    between atoms: C_8  and  C_9
REMARK    7  A    between atoms: C_11  and  S_12
REMARK    8  A    between atoms: S_12  and  C_13
REMARK                            x       y       z     vdW  Elec       q    Type
REMARK                         _______ _______ _______ _____ _____    ______ ____
ROOT
ATOM      1  C   UNL     1       6.172   3.988  15.317  0.00  0.00    +0.000 A 
ATOM      2  C   UNL     1       6.998   5.093  15.371  0.00  0.00    +0.000 A 
ATOM      3  C   UNL     1       6.902   5.857  16.514  0.00  0.00    +0.000 A 
ATOM      4  N   UNL     1       6.083   5.563  17.532  0.00  0.00    +0.000 NA
ATOM      5  C   UNL     1       5.340   4.465  17.358  0.00  0.00    +0.000 A 
ATOM      6  N   UNL     1       5.305   3.658  16.286  0.00  0.00    +0.000 NA
ENDROOT
BRANCH   5   7
ATOM      7  S   UNL     1       4.254   4.025  18.700  0.00  0.00    +0.000 S 
ATOM      8  C   UNL     1       3.018   3.038  17.901  0.00  0.00    +0.000 C 
ATOM      9  O   UNL     1       4.986   3.170  19.624  0.00  0.00    +0.000 OA
ATOM     10  O   UNL     1       3.585   5.221  19.185  0.00  0.00    +0.000 OA
ENDBRANCH   5   7
BRANCH   1  11
ATOM     11  O   UNL     1       6.209   3.210  14.175  0.00  0.00    +0.000 OA
BRANCH  11  13
ATOM     12  C   UNL     1       5.127   3.277  12.022  0.00  0.00    +0.000 C 
ATOM     13  C   UNL     1       6.062   3.993  12.982  0.00  0.00    +0.000 C 
ENDBRANCH  11  13
ENDBRANCH   1  11
BRANCH   3  14
ATOM     14  O   UNL     1       7.728   6.961  16.631  0.00  0.00    +0.000 OA
BRANCH  14  15
ATOM     15  C   UNL     1       7.790   7.444  17.982  0.00  0.00    +0.000 C 
ATOM     16  C   UNL     1       8.200   8.906  17.983  0.00  0.00    +0.000 C 
ENDBRANCH  14  15
ENDBRANCH   3  14
TORSDOF 5
ENDMDL
MODEL 9
REMARK VINA RESULT:      -5.8      1.619      1.701
REMARK  Name = 
REMARK  8 active torsions:
REMARK  status: ('A' for Active; 'I' for Inactive)
REMARK    1  A    between atoms: C_1  and  C_2
REMARK    2  A    between atoms: C_2  and  O_3
REMARK    3  A    between atoms: O_3  and  C_4
REMARK    4  A    between atoms: C_6  and  O_7
REMARK    5  A    between atoms: O_7  and  C_8
REMARK    6  A    between atoms: C_8  and  C_9
REMARK    7  A    between atoms: C_11  and  S_12
REMARK    8  A    between atoms: S_12  and  C_13
REMARK                            x       y       z     vdW  Elec       q    Type
REMARK                         _______ _______ _______ _____ _____    ______ ____
ROOT
ATOM      1  C   UNL     1       3.154   6.364  18.283  0.00  0.00    +0.000 A 
ATOM      2  C   UNL     1       2.282   5.317  18.054  0.00  0.00    +0.000 A 
ATOM      3  C   UNL     1       2.852   4.159  17.571  0.00  0.00    +0.000 A 
ATOM      4  N   UNL     1       4.165   4.020  17.344  0.00  0.00    +0.000 NA
ATOM      5  C   UNL     1       4.900   5.105  17.609  0.00  0.00    +0.000 A 
ATOM      6  N   UNL     1       4.473   6.301  18.043  0.00  0.00    +0.000 NA
ENDROOT
BRANCH   5   7
ATOM      7  S   UNL     1       6.655   4.954  17.344  0.00  0.00    +0.000 S 
ATOM      8  C   UNL     1       7.185   6.641  17.234  0.00  0.00    +0.000 C 
ATOM      9  O   UNL     1       7.253   4.370  18.537  0.00  0.00    +0.000 OA
ATOM     10  O   UNL     1       6.891   4.355  16.041  0.00  0.00    +0.000 OA
ENDBRANCH   5   7
BRANCH   1  11
ATOM     11  O   UNL     1       2.624   7.557  18.736  0.00  0.00    +0.000 OA
BRANCH  11  13
ATOM     12  C   UNL     1       1.257   9.426  18.066  0.00  0.00    +0.000 C 
ATOM     13  C   UNL     1       2.378   8.481  17.667  0.00  0.00    +0.000 C 
ENDBRANCH  11  13
ENDBRANCH   1  11
BRANCH   3  14
ATOM     14  O   UNL     1       2.027   3.071  17.350  0.00  0.00    +0.000 OA
BRANCH  14  15
ATOM     15  C   UNL     1       1.156   2.822  18.465  0.00  0.00    +0.000 C 
ATOM     16  C   UNL     1       1.888   1.999  19.510  0.00  0.00    +0.000 C 
ENDBRANCH  14  15
ENDBRANCH   3  14
TORSDOF 5
ENDMDL
