MODEL 1
REMARK VINA RESULT:      -7.7      0.000      0.000
REMARK  Name = 
REMARK  11 active torsions:
REMARK  status: ('A' for Active; 'I' for Inactive)
REMARK    1  A    between atoms: C_1  and  C_2
REMARK    2  A    between atoms: C_4  and  C_5
REMARK    3  A    between atoms: C_6  and  C_7
REMARK    4  A    between atoms: C_7  and  C_8
REMARK    5  A    between atoms: C_8  and  C_9
REMARK    6  A    between atoms: C_9  and  C_10
REMARK    7  A    between atoms: C_10  and  C_11
REMARK    8  A    between atoms: C_11  and  C_12
REMARK    9  A    between atoms: C_15  and  C_16
REMARK   10  A    between atoms: CA_20  and  C_21
REMARK   11  A    between atoms: C_21  and  O_22
REMARK                            x       y       z     vdW  Elec       q    Type
REMARK                         _______ _______ _______ _____ _____    ______ ____
ROOT
ATOM      1  C   UNL     1       2.238   7.356  19.515  0.00  0.00    +0.000 A 
ATOM      2  C   UNL     1       2.275   7.928  18.219  0.00  0.00    +0.000 A 
ATOM      3  C   UNL     1       1.569   9.110  17.972  0.00  0.00    +0.000 A 
ATOM      4  C   UNL     1       0.838   9.725  19.042  0.00  0.00    +0.000 A 
ATOM      5  C   UNL     1       0.882   9.164  20.297  0.00  0.00    +0.000 A 
ATOM      6  C   UNL     1       1.556   7.994  20.541  0.00  0.00    +0.000 A 
ENDROOT
BRANCH   4   7
ATOM      7  C   UNL     1      -0.082  10.901  18.812  0.00  0.00    +0.000 C 
ATOM      8  C   UNL     1       0.595  12.251  18.676  0.00  0.00    +0.000 C 
ATOM      9  C   UNL     1      -0.662  13.089  18.524  0.00  0.00    +0.000 C 
ATOM     10  N   UNL     1      -1.481  12.376  17.535  0.00  0.00    +0.000 NA
ATOM     11  CA  UNL     1      -1.123  10.942  17.675  0.00  0.00    +0.000 C 
ATOM     12  H   UNL     1      -1.166  12.705  16.590  0.00  0.00    +0.000 HD
BRANCH  11  13
ATOM     13  C   UNL     1      -2.371  10.130  18.076  0.00  0.00    +0.000 C 
BRANCH  13  14
ATOM     14  O   UNL     1      -3.516  10.934  18.070  0.00  0.00    +0.000 OA
ATOM     15  H   UNL     1      -3.528  11.396  17.192  0.00  0.00    +0.000 HD
ENDBRANCH  13  14
ENDBRANCH  11  13
ENDBRANCH   4   7
BRANCH   1  16
ATOM     16  C   UNL     1       2.843   6.034  19.852  0.00  0.00    +0.000 C 
BRANCH  16  17
ATOM     17  C   UNL     1       1.825   5.009  20.328  0.00  0.00    +0.000 C 
BRANCH  17  18
ATOM     18  C   UNL     1       1.387   4.127  19.170  0.00  0.00    +0.000 C 
BRANCH  18  19
ATOM     19  C   UNL     1       2.490   3.140  18.837  0.00  0.00    +0.000 C 
BRANCH  19  20
ATOM     20  C   UNL     1       2.689   3.055  17.356  0.00  0.00    +0.000 C 
BRANCH  20  22
ATOM     21  C   UNL     1       4.981   3.927  17.501  0.00  0.00    +0.000 C 
ATOM     22  C   UNL     1       3.754   4.013  16.995  0.00  0.00    +0.000 C 
BRANCH  21  26
ATOM     23  C   UNL     1       7.790   7.916  17.698  0.00  0.00    +0.000 C 
ATOM     24  C   UNL     1       7.174   6.657  17.189  0.00  0.00    +0.000 A 
ATOM     25  N   UNL     1       6.236   6.007  17.890  0.00  0.00    +0.000 NA
ATOM     26  C   UNL     1       5.953   4.946  17.115  0.00  0.00    +0.000 A 
ATOM     27  C   UNL     1       6.717   4.979  15.983  0.00  0.00    +0.000 A 
ATOM     28  O   UNL     1       7.471   6.068  16.060  0.00  0.00    +0.000 OA
ENDBRANCH  21  26
ENDBRANCH  20  22
ENDBRANCH  19  20
ENDBRANCH  18  19
ENDBRANCH  17  18
ENDBRANCH  16  17
ENDBRANCH   1  16
TORSDOF 10
ENDMDL
MODEL 2
REMARK VINA RESULT:      -7.6      1.837      2.305
REMARK  Name = 
REMARK  11 active torsions:
REMARK  status: ('A' for Active; 'I' for Inactive)
REMARK    1  A    between atoms: C_1  and  C_2
REMARK    2  A    between atoms: C_4  and  C_5
REMARK    3  A    between atoms: C_6  and  C_7
REMARK    4  A    between atoms: C_7  and  C_8
REMARK    5  A    between atoms: C_8  and  C_9
REMARK    6  A    between atoms: C_9  and  C_10
REMARK    7  A    between atoms: C_10  and  C_11
REMARK    8  A    between atoms: C_11  and  C_12
REMARK    9  A    between atoms: C_15  and  C_16
REMARK   10  A    between atoms: CA_20  and  C_21
REMARK   11  A    between atoms: C_21  and  O_22
REMARK                            x       y       z     vdW  Elec       q    Type
REMARK                         _______ _______ _______ _____ _____    ______ ____
ROOT
ATOM      1  C   UNL     1       2.329   7.170  19.473  0.00  0.00    +0.000 A 
ATOM      2  C   UNL     1       2.414   7.734  18.175  0.00  0.00    +0.000 A 
ATOM      3  C   UNL     1       1.756   8.940  17.910  0.00  0.00    +0.000 A 
ATOM      4  C   UNL     1       1.024   9.585  18.962  0.00  0.00    +0.000 A 
ATOM      5  C   UNL     1       1.022   9.028  20.219  0.00  0.00    +0.000 A 
ATOM      6  C   UNL     1       1.650   7.836  20.482  0.00  0.00    +0.000 A 
ENDROOT
BRANCH   4   7
ATOM      7  C   UNL     1       0.152  10.792  18.708  0.00  0.00    +0.000 C 
ATOM      8  C   UNL     1      -1.207  10.508  18.099  0.00  0.00    +0.000 C 
ATOM      9  C   UNL     1      -1.676  11.947  17.979  0.00  0.00    +0.000 C 
ATOM     10  N   UNL     1      -1.368  12.561  19.277  0.00  0.00    +0.000 NA
ATOM     11  CA  UNL     1      -0.189  11.826  19.800  0.00  0.00    +0.000 C 
ATOM     12  H   UNL     1      -2.185  12.364  19.905  0.00  0.00    +0.000 HD
BRANCH  11  13
ATOM     13  C   UNL     1       0.992  12.801  19.987  0.00  0.00    +0.000 C 
BRANCH  13  14
ATOM     14  O   UNL     1       1.702  12.509  21.158  0.00  0.00    +0.000 OA
ATOM     15  H   UNL     1       1.308  13.075  21.871  0.00  0.00    +0.000 HD
ENDBRANCH  13  14
ENDBRANCH  11  13
ENDBRANCH   4   7
BRANCH   1  16
ATOM     16  C   UNL     1       2.881   5.829  19.828  0.00  0.00    +0.000 C 
BRANCH  16  17
ATOM     17  C   UNL     1       1.960   5.018  20.725  0.00  0.00    +0.000 C 
BRANCH  17  18
ATOM     18  C   UNL     1       1.562   3.721  20.038  0.00  0.00    +0.000 C 
BRANCH  18  19
ATOM     19  C   UNL     1       1.907   3.803  18.563  0.00  0.00    +0.000 C 
BRANCH  19  20
ATOM     20  C   UNL     1       2.560   2.536  18.105  0.00  0.00    +0.000 C 
BRANCH  20  22
ATOM     21  C   UNL     1       4.044   4.072  16.890  0.00  0.00    +0.000 C 
ATOM     22  C   UNL     1       3.854   2.901  17.492  0.00  0.00    +0.000 C 
BRANCH  21  26
ATOM     23  C   UNL     1       7.439   4.939  13.489  0.00  0.00    +0.000 C 
ATOM     24  C   UNL     1       6.818   4.703  14.824  0.00  0.00    +0.000 A 
ATOM     25  N   UNL     1       5.505   4.470  14.950  0.00  0.00    +0.000 NA
ATOM     26  C   UNL     1       5.346   4.323  16.277  0.00  0.00    +0.000 A 
ATOM     27  C   UNL     1       6.548   4.470  16.910  0.00  0.00    +0.000 A 
ATOM     28  O   UNL     1       7.451   4.707  15.967  0.00  0.00    +0.000 OA
ENDBRANCH  21  26
ENDBRANCH  20  22
ENDBRANCH  19  20
ENDBRANCH  18  19
ENDBRANCH  17  18
ENDBRANCH  16  17
ENDBRANCH   1  16
TORSDOF 10
ENDMDL
MODEL 3
REMARK VINA RESULT:      -7.4      1.167      1.446
REMARK  Name = 
REMARK  11 active torsions:
REMARK  status: ('A' for Active; 'I' for Inactive)
REMARK    1  A    between atoms: C_1  and  C_2
REMARK    2  A    between atoms: C_4  and  C_5
REMARK    3  A    between atoms: C_6  and  C_7
REMARK    4  A    between atoms: C_7  and  C_8
REMARK    5  A    between atoms: C_8  and  C_9
REMARK    6  A    between atoms: C_9  and  C_10
REMARK    7  A    between atoms: C_10  and  C_11
REMARK    8  A    between atoms: C_11  and  C_12
REMARK    9  A    between atoms: C_15  and  C_16
REMARK   10  A    between atoms: CA_20  and  C_21
REMARK   11  A    between atoms: C_21  and  O_22
REMARK                            x       y       z     vdW  Elec       q    Type
REMARK                         _______ _______ _______ _____ _____    ______ ____
ROOT
ATOM      1  C   UNL     1       2.134   7.353  19.612  0.00  0.00    +0.000 A 
ATOM      2  C   UNL     1       2.226   7.924  18.318  0.00  0.00    +0.000 A 
ATOM      3  C   UNL     1       1.556   9.122  18.050  0.00  0.00    +0.000 A 
ATOM      4  C   UNL     1       0.806   9.754  19.096  0.00  0.00    +0.000 A 
ATOM      5  C   UNL     1       0.796   9.193  20.352  0.00  0.00    +0.000 A 
ATOM      6  C   UNL     1       1.435   8.007  20.616  0.00  0.00    +0.000 A 
ENDROOT
BRANCH   4   7
ATOM      7  C   UNL     1      -0.078  10.952  18.837  0.00  0.00    +0.000 C 
ATOM      8  C   UNL     1       0.639  12.276  18.663  0.00  0.00    +0.000 C 
ATOM      9  C   UNL     1      -0.593  13.148  18.492  0.00  0.00    +0.000 C 
ATOM     10  N   UNL     1      -1.437  12.434  17.526  0.00  0.00    +0.000 NA
ATOM     11  CA  UNL     1      -1.122  10.994  17.703  0.00  0.00    +0.000 C 
ATOM     12  H   UNL     1      -1.117  12.727  16.571  0.00  0.00    +0.000 HD
BRANCH  11  13
ATOM     13  C   UNL     1      -2.393  10.232  18.130  0.00  0.00    +0.000 C 
BRANCH  13  14
ATOM     14  O   UNL     1      -3.221   9.979  17.030  0.00  0.00    +0.000 OA
ATOM     15  H   UNL     1      -3.052   9.038  16.765  0.00  0.00    +0.000 HD
ENDBRANCH  13  14
ENDBRANCH  11  13
ENDBRANCH   4   7
BRANCH   1  16
ATOM     16  C   UNL     1       2.697   6.017  19.968  0.00  0.00    +0.000 C 
BRANCH  16  17
ATOM     17  C   UNL     1       1.710   5.123  20.700  0.00  0.00    +0.000 C 
BRANCH  17  18
ATOM     18  C   UNL     1       1.389   3.896  19.863  0.00  0.00    +0.000 C 
BRANCH  18  19
ATOM     19  C   UNL     1       2.677   3.188  19.485  0.00  0.00    +0.000 C 
BRANCH  19  20
ATOM     20  C   UNL     1       2.543   2.533  18.146  0.00  0.00    +0.000 C 
BRANCH  20  22
ATOM     21  C   UNL     1       4.562   3.872  17.733  0.00  0.00    +0.000 C 
ATOM     22  C   UNL     1       3.728   2.910  17.347  0.00  0.00    +0.000 C 
BRANCH  21  26
ATOM     23  C   UNL     1       7.100   4.802  13.667  0.00  0.00    +0.000 C 
ATOM     24  C   UNL     1       6.785   4.609  15.112  0.00  0.00    +0.000 A 
ATOM     25  N   UNL     1       5.558   4.261  15.517  0.00  0.00    +0.000 NA
ATOM     26  C   UNL     1       5.681   4.200  16.854  0.00  0.00    +0.000 A 
ATOM     27  C   UNL     1       6.961   4.510  17.219  0.00  0.00    +0.000 A 
ATOM     28  O   UNL     1       7.629   4.760  16.100  0.00  0.00    +0.000 OA
ENDBRANCH  21  26
ENDBRANCH  20  22
ENDBRANCH  19  20
ENDBRANCH  18  19
ENDBRANCH  17  18
ENDBRANCH  16  17
ENDBRANCH   1  16
TORSDOF 10
ENDMDL
MODEL 4
REMARK VINA RESULT:      -7.4      1.792      2.346
REMARK  Name = 
REMARK  11 active torsions:
REMARK  status: ('A' for Active; 'I' for Inactive)
REMARK    1  A    between atoms: C_1  and  C_2
REMARK    2  A    between atoms: C_4  and  C_5
REMARK    3  A    between atoms: C_6  and  C_7
REMARK    4  A    between atoms: C_7  and  C_8
REMARK    5  A    between atoms: C_8  and  C_9
REMARK    6  A    between atoms: C_9  and  C_10
REMARK    7  A    between atoms: C_10  and  C_11
REMARK    8  A    between atoms: C_11  and  C_12
REMARK    9  A    between atoms: C_15  and  C_16
REMARK   10  A    between atoms: CA_20  and  C_21
REMARK   11  A    between atoms: C_21  and  O_22
REMARK                            x       y       z     vdW  Elec       q    Type
REMARK                         _______ _______ _______ _____ _____    ______ ____
ROOT
ATOM      1  C   UNL     1       2.227   7.299  19.334  0.00  0.00    +0.000 A 
ATOM      2  C   UNL     1       2.506   7.947  18.105  0.00  0.00    +0.000 A 
ATOM      3  C   UNL     1       2.032   9.246  17.894  0.00  0.00    +0.000 A 
ATOM      4  C   UNL     1       1.290   9.898  18.934  0.00  0.00    +0.000 A 
ATOM      5  C   UNL     1       1.097   9.250  20.132  0.00  0.00    +0.000 A 
ATOM      6  C   UNL     1       1.542   7.968  20.338  0.00  0.00    +0.000 A 
ENDROOT
BRANCH   4   7
ATOM      7  C   UNL     1       0.604  11.227  18.717  0.00  0.00    +0.000 C 
ATOM      8  C   UNL     1      -0.895  11.242  18.946  0.00  0.00    +0.000 C 
ATOM      9  C   UNL     1      -1.139  12.693  18.572  0.00  0.00    +0.000 C 
ATOM     10  N   UNL     1      -0.101  13.452  19.281  0.00  0.00    +0.000 NA
ATOM     11  CA  UNL     1       1.053  12.527  19.414  0.00  0.00    +0.000 C 
ATOM     12  H   UNL     1      -0.476  13.652  20.240  0.00  0.00    +0.000 HD
BRANCH  11  13
ATOM     13  C   UNL     1       2.280  13.116  18.687  0.00  0.00    +0.000 C 
BRANCH  13  14
ATOM     14  O   UNL     1       2.251  12.805  17.323  0.00  0.00    +0.000 OA
ATOM     15  H   UNL     1       2.148  13.667  16.843  0.00  0.00    +0.000 HD
ENDBRANCH  13  14
ENDBRANCH  11  13
ENDBRANCH   4   7
BRANCH   1  16
ATOM     16  C   UNL     1       2.569   5.873  19.612  0.00  0.00    +0.000 C 
BRANCH  16  17
ATOM     17  C   UNL     1       1.617   5.205  20.591  0.00  0.00    +0.000 C 
BRANCH  17  18
ATOM     18  C   UNL     1       1.070   3.916  19.998  0.00  0.00    +0.000 C 
BRANCH  18  19
ATOM     19  C   UNL     1       1.704   3.673  18.641  0.00  0.00    +0.000 C 
BRANCH  19  20
ATOM     20  C   UNL     1       2.796   2.655  18.747  0.00  0.00    +0.000 C 
BRANCH  20  22
ATOM     21  C   UNL     1       4.904   3.784  18.182  0.00  0.00    +0.000 C 
ATOM     22  C   UNL     1       3.863   3.047  17.803  0.00  0.00    +0.000 C 
BRANCH  21  26
ATOM     23  C   UNL     1       6.888   4.678  13.811  0.00  0.00    +0.000 C 
ATOM     24  C   UNL     1       6.750   4.551  15.290  0.00  0.00    +0.000 A 
ATOM     25  N   UNL     1       5.613   4.118  15.849  0.00  0.00    +0.000 NA
ATOM     26  C   UNL     1       5.885   4.156  17.166  0.00  0.00    +0.000 A 
ATOM     27  C   UNL     1       7.159   4.605  17.366  0.00  0.00    +0.000 A 
ATOM     28  O   UNL     1       7.676   4.843  16.167  0.00  0.00    +0.000 OA
ENDBRANCH  21  26
ENDBRANCH  20  22
ENDBRANCH  19  20
ENDBRANCH  18  19
ENDBRANCH  17  18
ENDBRANCH  16  17
ENDBRANCH   1  16
TORSDOF 10
ENDMDL
MODEL 5
REMARK VINA RESULT:      -7.3      2.075      7.096
REMARK  Name = 
REMARK  11 active torsions:
REMARK  status: ('A' for Active; 'I' for Inactive)
REMARK    1  A    between atoms: C_1  and  C_2
REMARK    2  A    between atoms: C_4  and  C_5
REMARK    3  A    between atoms: C_6  and  C_7
REMARK    4  A    between atoms: C_7  and  C_8
REMARK    5  A    between atoms: C_8  and  C_9
REMARK    6  A    between atoms: C_9  and  C_10
REMARK    7  A    between atoms: C_10  and  C_11
REMARK    8  A    between atoms: C_11  and  C_12
REMARK    9  A    between atoms: C_15  and  C_16
REMARK   10  A    between atoms: CA_20  and  C_21
REMARK   11  A    between atoms: C_21  and  O_22
REMARK                            x       y       z     vdW  Elec       q    Type
REMARK                         _______ _______ _______ _____ _____    ______ ____
ROOT
ATOM      1  C   UNL     1       3.132   2.645  18.438  0.00  0.00    +0.000 A 
ATOM      2  C   UNL     1       3.103   3.345  17.207  0.00  0.00    +0.000 A 
ATOM      3  C   UNL     1       4.134   4.241  16.906  0.00  0.00    +0.000 A 
ATOM      4  C   UNL     1       5.205   4.417  17.844  0.00  0.00    +0.000 A 
ATOM      5  C   UNL     1       5.219   3.669  18.997  0.00  0.00    +0.000 A 
ATOM      6  C   UNL     1       4.201   2.803  19.308  0.00  0.00    +0.000 A 
ENDROOT
BRANCH   4   7
ATOM      7  C   UNL     1       6.258   5.486  17.667  0.00  0.00    +0.000 C 
ATOM      8  C   UNL     1       5.753   6.842  17.214  0.00  0.00    +0.000 C 
ATOM      9  C   UNL     1       7.100   7.536  17.123  0.00  0.00    +0.000 C 
ATOM     10  N   UNL     1       7.794   7.192  18.370  0.00  0.00    +0.000 NA
ATOM     11  CA  UNL     1       7.263   5.866  18.773  0.00  0.00    +0.000 C 
ATOM     12  H   UNL     1       7.496   7.899  19.086  0.00  0.00    +0.000 HD
BRANCH  11  13
ATOM     13  C   UNL     1       8.411   4.836  18.816  0.00  0.00    +0.000 C 
BRANCH  13  14
ATOM     14  O   UNL     1       8.392   4.017  17.682  0.00  0.00    +0.000 OA
ATOM     15  H   UNL     1       8.670   4.590  16.920  0.00  0.00    +0.000 HD
ENDBRANCH  13  14
ENDBRANCH  11  13
ENDBRANCH   4   7
BRANCH   1  16
ATOM     16  C   UNL     1       2.022   1.768  18.916  0.00  0.00    +0.000 C 
BRANCH  16  17
ATOM     17  C   UNL     1       0.652   2.421  18.811  0.00  0.00    +0.000 C 
BRANCH  17  18
ATOM     18  C   UNL     1       0.654   3.766  19.519  0.00  0.00    +0.000 C 
BRANCH  18  19
ATOM     19  C   UNL     1       1.177   3.594  20.933  0.00  0.00    +0.000 C 
BRANCH  19  20
ATOM     20  C   UNL     1       2.181   4.657  21.254  0.00  0.00    +0.000 C 
BRANCH  20  22
ATOM     21  C   UNL     1       2.686   6.488  19.696  0.00  0.00    +0.000 C 
ATOM     22  C   UNL     1       1.815   5.862  20.483  0.00  0.00    +0.000 C 
BRANCH  21  26
ATOM     23  C   UNL     1       0.541  10.799  18.887  0.00  0.00    +0.000 C 
ATOM     24  C   UNL     1       1.328   9.555  18.646  0.00  0.00    +0.000 A 
ATOM     25  N   UNL     1       1.480   8.631  19.602  0.00  0.00    +0.000 NA
ATOM     26  C   UNL     1       2.241   7.696  19.006  0.00  0.00    +0.000 A 
ATOM     27  C   UNL     1       2.526   8.074  17.725  0.00  0.00    +0.000 A 
ATOM     28  O   UNL     1       1.936   9.246  17.530  0.00  0.00    +0.000 OA
ENDBRANCH  21  26
ENDBRANCH  20  22
ENDBRANCH  19  20
ENDBRANCH  18  19
ENDBRANCH  17  18
ENDBRANCH  16  17
ENDBRANCH   1  16
TORSDOF 10
ENDMDL
MODEL 6
REMARK VINA RESULT:      -7.3      1.809      2.180
REMARK  Name = 
REMARK  11 active torsions:
REMARK  status: ('A' for Active; 'I' for Inactive)
REMARK    1  A    between atoms: C_1  and  C_2
REMARK    2  A    between atoms: C_4  and  C_5
REMARK    3  A    between atoms: C_6  and  C_7
REMARK    4  A    between atoms: C_7  and  C_8
REMARK    5  A    between atoms: C_8  and  C_9
REMARK    6  A    between atoms: C_9  and  C_10
REMARK    7  A    between atoms: C_10  and  C_11
REMARK    8  A    between atoms: C_11  and  C_12
REMARK    9  A    between atoms: C_15  and  C_16
REMARK   10  A    between atoms: CA_20  and  C_21
REMARK   11  A    between atoms: C_21  and  O_22
REMARK                            x       y       z     vdW  Elec       q    Type
REMARK                         _______ _______ _______ _____ _____    ______ ____
ROOT
ATOM      1  C   UNL     1       1.940   6.828  20.148  0.00  0.00    +0.000 A 
ATOM      2  C   UNL     1       2.332   7.187  18.834  0.00  0.00    +0.000 A 
ATOM      3  C   UNL     1       2.001   8.454  18.343  0.00  0.00    +0.000 A 
ATOM      4  C   UNL     1       1.286   9.367  19.188  0.00  0.00    +0.000 A 
ATOM      5  C   UNL     1       0.981   8.994  20.476  0.00  0.00    +0.000 A 
ATOM      6  C   UNL     1       1.286   7.746  20.957  0.00  0.00    +0.000 A 
ENDROOT
BRANCH   4   7
ATOM      7  C   UNL     1       0.747  10.680  18.672  0.00  0.00    +0.000 C 
ATOM      8  C   UNL     1      -0.700  10.980  19.012  0.00  0.00    +0.000 C 
ATOM      9  C   UNL     1      -0.808  12.303  18.276  0.00  0.00    +0.000 C 
ATOM     10  N   UNL     1       0.394  13.055  18.660  0.00  0.00    +0.000 NA
ATOM     11  CA  UNL     1       1.433  12.034  18.945  0.00  0.00    +0.000 C 
ATOM     12  H   UNL     1       0.165  13.552  19.555  0.00  0.00    +0.000 HD
BRANCH  11  13
ATOM     13  C   UNL     1       2.626  12.222  17.985  0.00  0.00    +0.000 C 
BRANCH  13  14
ATOM     14  O   UNL     1       2.925  13.579  17.818  0.00  0.00    +0.000 OA
ATOM     15  H   UNL     1       3.407  13.653  16.953  0.00  0.00    +0.000 HD
ENDBRANCH  13  14
ENDBRANCH  11  13
ENDBRANCH   4   7
BRANCH   1  16
ATOM     16  C   UNL     1       2.126   5.463  20.722  0.00  0.00    +0.000 C 
BRANCH  16  17
ATOM     17  C   UNL     1       1.191   4.424  20.120  0.00  0.00    +0.000 C 
BRANCH  17  18
ATOM     18  C   UNL     1       1.883   3.073  20.047  0.00  0.00    +0.000 C 
BRANCH  18  19
ATOM     19  C   UNL     1       1.650   2.457  18.680  0.00  0.00    +0.000 C 
BRANCH  19  20
ATOM     20  C   UNL     1       1.968   3.441  17.599  0.00  0.00    +0.000 C 
BRANCH  20  22
ATOM     21  C   UNL     1       4.194   4.049  16.754  0.00  0.00    +0.000 C 
ATOM     22  C   UNL     1       3.371   3.866  17.784  0.00  0.00    +0.000 C 
BRANCH  21  26
ATOM     23  C   UNL     1       8.093   5.765  19.141  0.00  0.00    +0.000 C 
ATOM     24  C   UNL     1       7.263   5.159  18.060  0.00  0.00    +0.000 A 
ATOM     25  N   UNL     1       5.941   5.005  18.200  0.00  0.00    +0.000 NA
ATOM     26  C   UNL     1       5.574   4.429  17.041  0.00  0.00    +0.000 A 
ATOM     27  C   UNL     1       6.669   4.251  16.243  0.00  0.00    +0.000 A 
ATOM     28  O   UNL     1       7.713   4.721  16.913  0.00  0.00    +0.000 OA
ENDBRANCH  21  26
ENDBRANCH  20  22
ENDBRANCH  19  20
ENDBRANCH  18  19
ENDBRANCH  17  18
ENDBRANCH  16  17
ENDBRANCH   1  16
TORSDOF 10
ENDMDL
MODEL 7
REMARK VINA RESULT:      -7.3      2.401      8.613
REMARK  Name = 
REMARK  11 active torsions:
REMARK  status: ('A' for Active; 'I' for Inactive)
REMARK    1  A    between atoms: C_1  and  C_2
REMARK    2  A    between atoms: C_4  and  C_5
REMARK    3  A    between atoms: C_6  and  C_7
REMARK    4  A    between atoms: C_7  and  C_8
REMARK    5  A    between atoms: C_8  and  C_9
REMARK    6  A    between atoms: C_9  and  C_10
REMARK    7  A    between atoms: C_10  and  C_11
REMARK    8  A    between atoms: C_11  and  C_12
REMARK    9  A    between atoms: C_15  and  C_16
REMARK   10  A    between atoms: CA_20  and  C_21
REMARK   11  A    between atoms: C_21  and  O_22
REMARK                            x       y       z     vdW  Elec       q    Type
REMARK                         _______ _______ _______ _____ _____    ______ ____
ROOT
ATOM      1  C   UNL     1       2.130   3.540  18.567  0.00  0.00    +0.000 A 
ATOM      2  C   UNL     1       2.209   4.774  17.875  0.00  0.00    +0.000 A 
ATOM      3  C   UNL     1       3.337   5.048  17.094  0.00  0.00    +0.000 A 
ATOM      4  C   UNL     1       4.379   4.067  17.000  0.00  0.00    +0.000 A 
ATOM      5  C   UNL     1       4.227   2.860  17.642  0.00  0.00    +0.000 A 
ATOM      6  C   UNL     1       3.132   2.592  18.425  0.00  0.00    +0.000 A 
ENDROOT
BRANCH   4   7
ATOM      7  C   UNL     1       5.696   4.358  16.320  0.00  0.00    +0.000 C 
ATOM      8  C   UNL     1       5.639   4.522  14.814  0.00  0.00    +0.000 C 
ATOM      9  C   UNL     1       7.124   4.733  14.580  0.00  0.00    +0.000 C 
ATOM     10  N   UNL     1       7.536   5.717  15.589  0.00  0.00    +0.000 NA
ATOM     11  CA  UNL     1       6.618   5.521  16.740  0.00  0.00    +0.000 C 
ATOM     12  H   UNL     1       7.352   6.665  15.179  0.00  0.00    +0.000 HD
BRANCH  11  13
ATOM     13  C   UNL     1       7.428   5.124  17.991  0.00  0.00    +0.000 C 
BRANCH  13  14
ATOM     14  O   UNL     1       8.195   3.978  17.749  0.00  0.00    +0.000 OA
ATOM     15  H   UNL     1       8.737   4.171  16.941  0.00  0.00    +0.000 HD
ENDBRANCH  13  14
ENDBRANCH  11  13
ENDBRANCH   4   7
BRANCH   1  16
ATOM     16  C   UNL     1       1.038   3.202  19.527  0.00  0.00    +0.000 C 
BRANCH  16  17
ATOM     17  C   UNL     1       1.355   3.592  20.963  0.00  0.00    +0.000 C 
BRANCH  17  18
ATOM     18  C   UNL     1       2.168   4.876  20.992  0.00  0.00    +0.000 C 
BRANCH  18  19
ATOM     19  C   UNL     1       1.237   6.069  20.874  0.00  0.00    +0.000 C 
BRANCH  19  20
ATOM     20  C   UNL     1       2.021   7.339  20.767  0.00  0.00    +0.000 C 
BRANCH  20  22
ATOM     21  C   UNL     1       0.964   9.240  21.910  0.00  0.00    +0.000 C 
ATOM     22  C   UNL     1       1.062   8.460  20.836  0.00  0.00    +0.000 C 
BRANCH  21  26
ATOM     23  C   UNL     1      -2.038  12.752  23.488  0.00  0.00    +0.000 C 
ATOM     24  C   UNL     1      -1.337  11.816  22.563  0.00  0.00    +0.000 A 
ATOM     25  N   UNL     1      -0.446  10.926  23.017  0.00  0.00    +0.000 NA
ATOM     26  C   UNL     1      -0.044  10.297  21.899  0.00  0.00    +0.000 A 
ATOM     27  C   UNL     1      -0.691  10.816  20.814  0.00  0.00    +0.000 A 
ATOM     28  O   UNL     1      -1.498  11.768  21.267  0.00  0.00    +0.000 OA
ENDBRANCH  21  26
ENDBRANCH  20  22
ENDBRANCH  19  20
ENDBRANCH  18  19
ENDBRANCH  17  18
ENDBRANCH  16  17
ENDBRANCH   1  16
TORSDOF 10
ENDMDL
MODEL 8
REMARK VINA RESULT:      -7.1      1.021      1.427
REMARK  Name = 
REMARK  11 active torsions:
REMARK  status: ('A' for Active; 'I' for Inactive)
REMARK    1  A    between atoms: C_1  and  C_2
REMARK    2  A    between atoms: C_4  and  C_5
REMARK    3  A    between atoms: C_6  and  C_7
REMARK    4  A    between atoms: C_7  and  C_8
REMARK    5  A    between atoms: C_8  and  C_9
REMARK    6  A    between atoms: C_9  and  C_10
REMARK    7  A    between atoms: C_10  and  C_11
REMARK    8  A    between atoms: C_11  and  C_12
REMARK    9  A    between atoms: C_15  and  C_16
REMARK   10  A    between atoms: CA_20  and  C_21
REMARK   11  A    between atoms: C_21  and  O_22
REMARK                            x       y       z     vdW  Elec       q    Type
REMARK                         _______ _______ _______ _____ _____    ______ ____
ROOT
ATOM      1  C   UNL     1       2.030   7.850  19.117  0.00  0.00    +0.000 A 
ATOM      2  C   UNL     1       1.512   8.281  20.364  0.00  0.00    +0.000 A 
ATOM      3  C   UNL     1       0.878   9.524  20.448  0.00  0.00    +0.000 A 
ATOM      4  C   UNL     1       0.751  10.326  19.265  0.00  0.00    +0.000 A 
ATOM      5  C   UNL     1       1.215   9.837  18.067  0.00  0.00    +0.000 A 
ATOM      6  C   UNL     1       1.857   8.627  17.982  0.00  0.00    +0.000 A 
ENDROOT
BRANCH   4   7
ATOM      7  C   UNL     1       0.233  11.745  19.311  0.00  0.00    +0.000 C 
ATOM      8  C   UNL     1       1.289  12.833  19.314  0.00  0.00    +0.000 C 
ATOM      9  C   UNL     1       0.349  14.021  19.419  0.00  0.00    +0.000 C 
ATOM     10  N   UNL     1      -0.700  13.771  18.423  0.00  0.00    +0.000 NA
ATOM     11  CA  UNL     1      -0.799  12.295  18.306  0.00  0.00    +0.000 C 
ATOM     12  H   UNL     1      -0.346  14.151  17.511  0.00  0.00    +0.000 HD
BRANCH  11  13
ATOM     13  C   UNL     1      -2.217  11.835  18.705  0.00  0.00    +0.000 C 
BRANCH  13  14
ATOM     14  O   UNL     1      -2.842  12.786  19.518  0.00  0.00    +0.000 OA
ATOM     15  H   UNL     1      -2.899  12.384  20.424  0.00  0.00    +0.000 HD
ENDBRANCH  13  14
ENDBRANCH  11  13
ENDBRANCH   4   7
BRANCH   1  16
ATOM     16  C   UNL     1       2.837   6.606  18.944  0.00  0.00    +0.000 C 
BRANCH  16  17
ATOM     17  C   UNL     1       2.176   5.371  19.537  0.00  0.00    +0.000 C 
BRANCH  17  18
ATOM     18  C   UNL     1       1.710   4.440  18.429  0.00  0.00    +0.000 C 
BRANCH  18  19
ATOM     19  C   UNL     1       2.171   3.026  18.727  0.00  0.00    +0.000 C 
BRANCH  19  20
ATOM     20  C   UNL     1       3.080   2.530  17.647  0.00  0.00    +0.000 C 
BRANCH  20  22
ATOM     21  C   UNL     1       4.628   3.943  16.363  0.00  0.00    +0.000 C 
ATOM     22  C   UNL     1       4.203   3.485  17.538  0.00  0.00    +0.000 C 
BRANCH  21  26
ATOM     23  C   UNL     1       7.627   7.575  17.650  0.00  0.00    +0.000 C 
ATOM     24  C   UNL     1       7.075   6.408  16.903  0.00  0.00    +0.000 A 
ATOM     25  N   UNL     1       5.904   5.854  17.241  0.00  0.00    +0.000 NA
ATOM     26  C   UNL     1       5.771   4.851  16.356  0.00  0.00    +0.000 A 
ATOM     27  C   UNL     1       6.850   4.823  15.518  0.00  0.00    +0.000 A 
ATOM     28  O   UNL     1       7.649   5.815  15.888  0.00  0.00    +0.000 OA
ENDBRANCH  21  26
ENDBRANCH  20  22
ENDBRANCH  19  20
ENDBRANCH  18  19
ENDBRANCH  17  18
ENDBRANCH  16  17
ENDBRANCH   1  16
TORSDOF 10
ENDMDL
MODEL 9
REMARK VINA RESULT:      -7.1      1.596      2.012
REMARK  Name = 
REMARK  11 active torsions:
REMARK  status: ('A' for Active; 'I' for Inactive)
REMARK    1  A    between atoms: C_1  and  C_2
REMARK    2  A    between atoms: C_4  and  C_5
REMARK    3  A    between atoms: C_6  and  C_7
REMARK    4  A    between atoms: C_7  and  C_8
REMARK    5  A    between atoms: C_8  and  C_9
REMARK    6  A    between atoms: C_9  and  C_10
REMARK    7  A    between atoms: C_10  and  C_11
REMARK    8  A    between atoms: C_11  and  C_12
REMARK    9  A    between atoms: C_15  and  C_16
REMARK   10  A    between atoms: CA_20  and  C_21
REMARK   11  A    between atoms: C_21  and  O_22
REMARK                            x       y       z     vdW  Elec       q    Type
REMARK                         _______ _______ _______ _____ _____    ______ ____
ROOT
ATOM      1  C   UNL     1       2.181   7.079  19.821  0.00  0.00    +0.000 A 
ATOM      2  C   UNL     1       2.336   7.552  18.494  0.00  0.00    +0.000 A 
ATOM      3  C   UNL     1       1.756   8.772  18.132  0.00  0.00    +0.000 A 
ATOM      4  C   UNL     1       1.032   9.524  19.116  0.00  0.00    +0.000 A 
ATOM      5  C   UNL     1       0.962   9.051  20.406  0.00  0.00    +0.000 A 
ATOM      6  C   UNL     1       1.511   7.845  20.763  0.00  0.00    +0.000 A 
ENDROOT
BRANCH   4   7
ATOM      7  C   UNL     1       0.238  10.758  18.758  0.00  0.00    +0.000 C 
ATOM      8  C   UNL     1      -1.151  10.512  18.203  0.00  0.00    +0.000 C 
ATOM      9  C   UNL     1      -1.523  11.962  17.948  0.00  0.00    +0.000 C 
ATOM     10  N   UNL     1      -1.145  12.676  19.174  0.00  0.00    +0.000 NA
ATOM     11  CA  UNL     1      -0.007  11.915  19.748  0.00  0.00    +0.000 C 
ATOM     12  H   UNL     1      -1.959  12.599  19.832  0.00  0.00    +0.000 HD
BRANCH  11  13
ATOM     13  C   UNL     1       1.242  12.819  19.820  0.00  0.00    +0.000 C 
BRANCH  13  14
ATOM     14  O   UNL     1       1.873  12.704  21.063  0.00  0.00    +0.000 OA
ATOM     15  H   UNL     1       2.627  12.072  20.935  0.00  0.00    +0.000 HD
ENDBRANCH  13  14
ENDBRANCH  11  13
ENDBRANCH   4   7
BRANCH   1  16
ATOM     16  C   UNL     1       2.644   5.735  20.278  0.00  0.00    +0.000 C 
BRANCH  16  17
ATOM     17  C   UNL     1       1.529   4.702  20.337  0.00  0.00    +0.000 C 
BRANCH  17  18
ATOM     18  C   UNL     1       2.097   3.333  20.675  0.00  0.00    +0.000 C 
BRANCH  18  19
ATOM     19  C   UNL     1       2.428   2.590  19.395  0.00  0.00    +0.000 C 
BRANCH  19  20
ATOM     20  C   UNL     1       3.895   2.305  19.317  0.00  0.00    +0.000 C 
BRANCH  20  22
ATOM     21  C   UNL     1       4.541   3.892  17.556  0.00  0.00    +0.000 C 
ATOM     22  C   UNL     1       4.562   3.533  18.837  0.00  0.00    +0.000 C 
BRANCH  21  26
ATOM     23  C   UNL     1       7.714   7.600  17.713  0.00  0.00    +0.000 C 
ATOM     24  C   UNL     1       6.630   6.700  17.224  0.00  0.00    +0.000 A 
ATOM     25  N   UNL     1       6.222   5.647  17.944  0.00  0.00    +0.000 NA
ATOM     26  C   UNL     1       5.264   5.102  17.173  0.00  0.00    +0.000 A 
ATOM     27  C   UNL     1       5.121   5.826  16.024  0.00  0.00    +0.000 A 
ATOM     28  O   UNL     1       5.994   6.824  16.089  0.00  0.00    +0.000 OA
ENDBRANCH  21  26
ENDBRANCH  20  22
ENDBRANCH  19  20
ENDBRANCH  18  19
ENDBRANCH  17  18
ENDBRANCH  16  17
ENDBRANCH   1  16
TORSDOF 10
ENDMDL
