MODEL 1
REMARK VINA RESULT:      -7.6      0.000      0.000
REMARK  Name = 
REMARK  10 active torsions:
REMARK  status: ('A' for Active; 'I' for Inactive)
REMARK    1  A    between atoms: C_1  and  C_2
REMARK    2  A    between atoms: C_2  and  C_3
REMARK    3  A    between atoms: C_2  and  N_5
REMARK    4  A    between atoms: C_3  and  O_4
REMARK    5  A    between atoms: C_7  and  C_8
REMARK    6  A    between atoms: C_7  and  C_9
REMARK    7  A    between atoms: C_10  and  O_11
REMARK    8  A    between atoms: O_11  and  C_12
REMARK    9  A    between atoms: C_15  and  C_16
REMARK   10  A    between atoms: C_18  and  C_19
REMARK                            x       y       z     vdW  Elec       q    Type
REMARK                         _______ _______ _______ _____ _____    ______ ____
ROOT
ATOM      1  N   UNL     1       4.752   4.845  17.846  0.00  0.00    +0.000 N 
ATOM      2  C   UNL     1       3.976   4.055  18.769  0.00  0.00    +0.000 C 
ATOM      3  C   UNL     1       2.562   4.649  18.706  0.00  0.00    +0.000 C 
ATOM      4  C   UNL     1       1.826   4.447  20.033  0.00  0.00    +0.000 C 
ATOM      5  C   UNL     1       1.771   3.934  17.588  0.00  0.00    +0.000 C 
ATOM      6  C   UNL     1       2.803   6.142  18.316  0.00  0.00    +0.000 C 
ATOM      7  C   UNL     1       4.125   6.044  17.532  0.00  0.00    +0.000 C 
ATOM      8  O   UNL     1       4.555   6.876  16.744  0.00  0.00    +0.000 OA
ENDROOT
BRANCH   1  10
ATOM      9  C   UNL     1       5.581   4.141  15.592  0.00  0.00    +0.000 C 
ATOM     10  C   UNL     1       5.895   4.338  17.074  0.00  0.00    +0.000 C 
BRANCH  10  11
ATOM     11  C   UNL     1       7.147   5.222  17.281  0.00  0.00    +0.000 C 
BRANCH  11  12
ATOM     12  O   UNL     1       7.420   6.049  16.149  0.00  0.00    +0.000 OA
ATOM     13  H   UNL     1       6.566   6.342  15.789  0.00  0.00    +0.000 HD
ENDBRANCH  11  12
ENDBRANCH  10  11
ENDBRANCH   1  10
BRANCH   6  14
ATOM     14  O   UNL     1       2.864   6.996  19.460  0.00  0.00    +0.000 OA
BRANCH  14  15
ATOM     15  C   UNL     1       1.960   8.026  19.529  0.00  0.00    +0.000 A 
ATOM     16  C   UNL     1       1.533   8.809  18.460  0.00  0.00    +0.000 A 
ATOM     17  C   UNL     1       0.720   9.926  18.682  0.00  0.00    +0.000 A 
ATOM     18  C   UNL     1       0.274  10.254  19.969  0.00  0.00    +0.000 A 
ATOM     19  C   UNL     1       0.595   9.406  21.041  0.00  0.00    +0.000 A 
ATOM     20  C   UNL     1       1.448   8.300  20.801  0.00  0.00    +0.000 A 
BRANCH  19  21
ATOM     21  C   UNL     1       0.072   9.607  22.442  0.00  0.00    +0.000 C 
ATOM     22  F   UNL     1      -0.325  10.870  22.740  0.00  0.00    +0.000 F 
ATOM     23  F   UNL     1      -1.013   8.818  22.689  0.00  0.00    +0.000 F 
ATOM     24  F   UNL     1       0.991   9.275  23.390  0.00  0.00    +0.000 F 
ENDBRANCH  19  21
BRANCH  18  25
ATOM     25  C   UNL     1      -0.472  11.476  20.125  0.00  0.00    +0.000 C 
ATOM     26  N   UNL     1      -1.082  12.457  20.207  0.00  0.00    +0.000 NA
ENDBRANCH  18  25
ENDBRANCH  14  15
ENDBRANCH   6  14
TORSDOF 7
ENDMDL
MODEL 2
REMARK VINA RESULT:      -7.6      1.393      1.548
REMARK  Name = 
REMARK  10 active torsions:
REMARK  status: ('A' for Active; 'I' for Inactive)
REMARK    1  A    between atoms: C_1  and  C_2
REMARK    2  A    between atoms: C_2  and  C_3
REMARK    3  A    between atoms: C_2  and  N_5
REMARK    4  A    between atoms: C_3  and  O_4
REMARK    5  A    between atoms: C_7  and  C_8
REMARK    6  A    between atoms: C_7  and  C_9
REMARK    7  A    between atoms: C_10  and  O_11
REMARK    8  A    between atoms: O_11  and  C_12
REMARK    9  A    between atoms: C_15  and  C_16
REMARK   10  A    between atoms: C_18  and  C_19
REMARK                            x       y       z     vdW  Elec       q    Type
REMARK                         _______ _______ _______ _____ _____    ______ ____
ROOT
ATOM      1  N   UNL     1       5.517   4.884  18.557  0.00  0.00    +0.000 N 
ATOM      2  C   UNL     1       4.652   3.881  19.129  0.00  0.00    +0.000 C 
ATOM      3  C   UNL     1       3.253   4.212  18.591  0.00  0.00    +0.000 C 
ATOM      4  C   UNL     1       2.170   3.754  19.571  0.00  0.00    +0.000 C 
ATOM      5  C   UNL     1       3.050   3.475  17.249  0.00  0.00    +0.000 C 
ATOM      6  C   UNL     1       3.303   5.754  18.350  0.00  0.00    +0.000 C 
ATOM      7  C   UNL     1       4.803   5.973  18.075  0.00  0.00    +0.000 C 
ATOM      8  O   UNL     1       5.295   6.941  17.509  0.00  0.00    +0.000 OA
ENDROOT
BRANCH   1  10
ATOM      9  C   UNL     1       7.196   4.650  16.716  0.00  0.00    +0.000 C 
ATOM     10  C   UNL     1       6.931   4.668  18.220  0.00  0.00    +0.000 C 
BRANCH  10  11
ATOM     11  C   UNL     1       7.841   5.683  18.950  0.00  0.00    +0.000 C 
BRANCH  11  12
ATOM     12  O   UNL     1       7.930   5.423  20.351  0.00  0.00    +0.000 OA
ATOM     13  H   UNL     1       8.874   5.380  20.581  0.00  0.00    +0.000 HD
ENDBRANCH  11  12
ENDBRANCH  10  11
ENDBRANCH   1  10
BRANCH   6  14
ATOM     14  O   UNL     1       2.800   6.492  19.465  0.00  0.00    +0.000 OA
BRANCH  14  15
ATOM     15  C   UNL     1       2.148   7.670  19.201  0.00  0.00    +0.000 A 
ATOM     16  C   UNL     1       2.091   8.311  17.967  0.00  0.00    +0.000 A 
ATOM     17  C   UNL     1       1.520   9.584  17.856  0.00  0.00    +0.000 A 
ATOM     18  C   UNL     1       0.949  10.222  18.966  0.00  0.00    +0.000 A 
ATOM     19  C   UNL     1       0.890   9.539  20.191  0.00  0.00    +0.000 A 
ATOM     20  C   UNL     1       1.504   8.265  20.290  0.00  0.00    +0.000 A 
BRANCH  19  21
ATOM     21  C   UNL     1       0.198  10.089  21.414  0.00  0.00    +0.000 C 
ATOM     22  F   UNL     1      -1.113  10.398  21.250  0.00  0.00    +0.000 F 
ATOM     23  F   UNL     1       0.235   9.204  22.452  0.00  0.00    +0.000 F 
ATOM     24  F   UNL     1       0.789  11.224  21.877  0.00  0.00    +0.000 F 
ENDBRANCH  19  21
BRANCH  18  25
ATOM     25  C   UNL     1       0.477  11.571  18.790  0.00  0.00    +0.000 C 
ATOM     26  N   UNL     1       0.110  12.664  18.690  0.00  0.00    +0.000 NA
ENDBRANCH  18  25
ENDBRANCH  14  15
ENDBRANCH   6  14
TORSDOF 7
ENDMDL
MODEL 3
REMARK VINA RESULT:      -7.4      0.970      1.215
REMARK  Name = 
REMARK  10 active torsions:
REMARK  status: ('A' for Active; 'I' for Inactive)
REMARK    1  A    between atoms: C_1  and  C_2
REMARK    2  A    between atoms: C_2  and  C_3
REMARK    3  A    between atoms: C_2  and  N_5
REMARK    4  A    between atoms: C_3  and  O_4
REMARK    5  A    between atoms: C_7  and  C_8
REMARK    6  A    between atoms: C_7  and  C_9
REMARK    7  A    between atoms: C_10  and  O_11
REMARK    8  A    between atoms: O_11  and  C_12
REMARK    9  A    between atoms: C_15  and  C_16
REMARK   10  A    between atoms: C_18  and  C_19
REMARK                            x       y       z     vdW  Elec       q    Type
REMARK                         _______ _______ _______ _____ _____    ______ ____
ROOT
ATOM      1  N   UNL     1       5.408   5.084  17.583  0.00  0.00    +0.000 N 
ATOM      2  C   UNL     1       4.904   4.121  18.533  0.00  0.00    +0.000 C 
ATOM      3  C   UNL     1       3.381   4.312  18.518  0.00  0.00    +0.000 C 
ATOM      4  C   UNL     1       2.771   3.930  19.869  0.00  0.00    +0.000 C 
ATOM      5  C   UNL     1       2.776   3.400  17.427  0.00  0.00    +0.000 C 
ATOM      6  C   UNL     1       3.197   5.811  18.121  0.00  0.00    +0.000 C 
ATOM      7  C   UNL     1       4.470   6.066  17.291  0.00  0.00    +0.000 C 
ATOM      8  O   UNL     1       4.633   6.977  16.489  0.00  0.00    +0.000 OA
ENDROOT
BRANCH   1  10
ATOM      9  C   UNL     1       7.825   4.437  17.590  0.00  0.00    +0.000 C 
ATOM     10  C   UNL     1       6.619   4.897  16.773  0.00  0.00    +0.000 C 
BRANCH  10  11
ATOM     11  C   UNL     1       6.350   3.961  15.572  0.00  0.00    +0.000 C 
BRANCH  11  12
ATOM     12  O   UNL     1       5.660   4.624  14.512  0.00  0.00    +0.000 OA
ATOM     13  H   UNL     1       6.328   4.933  13.877  0.00  0.00    +0.000 HD
ENDBRANCH  11  12
ENDBRANCH  10  11
ENDBRANCH   1  10
BRANCH   6  14
ATOM     14  O   UNL     1       3.064   6.660  19.262  0.00  0.00    +0.000 OA
BRANCH  14  15
ATOM     15  C   UNL     1       2.193   7.715  19.166  0.00  0.00    +0.000 A 
ATOM     16  C   UNL     1       1.805   8.349  17.988  0.00  0.00    +0.000 A 
ATOM     17  C   UNL     1       1.026   9.510  18.032  0.00  0.00    +0.000 A 
ATOM     18  C   UNL     1       0.574  10.034  19.250  0.00  0.00    +0.000 A 
ATOM     19  C   UNL     1       0.854   9.341  20.439  0.00  0.00    +0.000 A 
ATOM     20  C   UNL     1       1.673   8.186  20.376  0.00  0.00    +0.000 A 
BRANCH  19  21
ATOM     21  C   UNL     1       0.319   9.758  21.787  0.00  0.00    +0.000 C 
ATOM     22  F   UNL     1       0.506  11.062  22.109  0.00  0.00    +0.000 F 
ATOM     23  F   UNL     1      -1.026   9.550  21.879  0.00  0.00    +0.000 F 
ATOM     24  F   UNL     1       0.871   9.043  22.806  0.00  0.00    +0.000 F 
ENDBRANCH  19  21
BRANCH  18  25
ATOM     25  C   UNL     1      -0.134  11.287  19.215  0.00  0.00    +0.000 C 
ATOM     26  N   UNL     1      -0.692  12.300  19.145  0.00  0.00    +0.000 NA
ENDBRANCH  18  25
ENDBRANCH  14  15
ENDBRANCH   6  14
TORSDOF 7
ENDMDL
MODEL 4
REMARK VINA RESULT:      -7.3      0.837      1.002
REMARK  Name = 
REMARK  10 active torsions:
REMARK  status: ('A' for Active; 'I' for Inactive)
REMARK    1  A    between atoms: C_1  and  C_2
REMARK    2  A    between atoms: C_2  and  C_3
REMARK    3  A    between atoms: C_2  and  N_5
REMARK    4  A    between atoms: C_3  and  O_4
REMARK    5  A    between atoms: C_7  and  C_8
REMARK    6  A    between atoms: C_7  and  C_9
REMARK    7  A    between atoms: C_10  and  O_11
REMARK    8  A    between atoms: O_11  and  C_12
REMARK    9  A    between atoms: C_15  and  C_16
REMARK   10  A    between atoms: C_18  and  C_19
REMARK                            x       y       z     vdW  Elec       q    Type
REMARK                         _______ _______ _______ _____ _____    ______ ____
ROOT
ATOM      1  N   UNL     1       4.863   4.849  17.992  0.00  0.00    +0.000 N 
ATOM      2  C   UNL     1       4.087   4.061  18.918  0.00  0.00    +0.000 C 
ATOM      3  C   UNL     1       2.641   4.539  18.729  0.00  0.00    +0.000 C 
ATOM      4  C   UNL     1       1.837   4.364  20.020  0.00  0.00    +0.000 C 
ATOM      5  C   UNL     1       1.980   3.696  17.616  0.00  0.00    +0.000 C 
ATOM      6  C   UNL     1       2.797   6.018  18.254  0.00  0.00    +0.000 C 
ATOM      7  C   UNL     1       4.171   5.974  17.560  0.00  0.00    +0.000 C 
ATOM      8  O   UNL     1       4.590   6.785  16.745  0.00  0.00    +0.000 OA
ENDROOT
BRANCH   1  10
ATOM      9  C   UNL     1       5.863   3.967  15.875  0.00  0.00    +0.000 C 
ATOM     10  C   UNL     1       6.088   4.385  17.327  0.00  0.00    +0.000 C 
BRANCH  10  11
ATOM     11  C   UNL     1       7.223   5.426  17.454  0.00  0.00    +0.000 C 
BRANCH  11  12
ATOM     12  O   UNL     1       7.466   6.117  16.228  0.00  0.00    +0.000 OA
ATOM     13  H   UNL     1       6.602   6.297  15.819  0.00  0.00    +0.000 HD
ENDBRANCH  11  12
ENDBRANCH  10  11
ENDBRANCH   1  10
BRANCH   6  14
ATOM     14  O   UNL     1       2.721   6.945  19.340  0.00  0.00    +0.000 OA
BRANCH  14  15
ATOM     15  C   UNL     1       2.060   8.126  19.116  0.00  0.00    +0.000 A 
ATOM     16  C   UNL     1       2.122   8.888  17.952  0.00  0.00    +0.000 A 
ATOM     17  C   UNL     1       1.520  10.150  17.900  0.00  0.00    +0.000 A 
ATOM     18  C   UNL     1       0.799  10.656  18.990  0.00  0.00    +0.000 A 
ATOM     19  C   UNL     1       0.625   9.851  20.127  0.00  0.00    +0.000 A 
ATOM     20  C   UNL     1       1.271   8.590  20.174  0.00  0.00    +0.000 A 
BRANCH  19  21
ATOM     21  C   UNL     1      -0.226  10.254  21.306  0.00  0.00    +0.000 C 
ATOM     22  F   UNL     1       0.315  11.196  22.119  0.00  0.00    +0.000 F 
ATOM     23  F   UNL     1      -1.426  10.766  20.907  0.00  0.00    +0.000 F 
ATOM     24  F   UNL     1      -0.527   9.199  22.112  0.00  0.00    +0.000 F 
ENDBRANCH  19  21
BRANCH  18  25
ATOM     25  C   UNL     1       0.300  12.003  18.893  0.00  0.00    +0.000 C 
ATOM     26  N   UNL     1      -0.139  13.070  18.799  0.00  0.00    +0.000 NA
ENDBRANCH  18  25
ENDBRANCH  14  15
ENDBRANCH   6  14
TORSDOF 7
ENDMDL
MODEL 5
REMARK VINA RESULT:      -7.3      1.893      2.940
REMARK  Name = 
REMARK  10 active torsions:
REMARK  status: ('A' for Active; 'I' for Inactive)
REMARK    1  A    between atoms: C_1  and  C_2
REMARK    2  A    between atoms: C_2  and  C_3
REMARK    3  A    between atoms: C_2  and  N_5
REMARK    4  A    between atoms: C_3  and  O_4
REMARK    5  A    between atoms: C_7  and  C_8
REMARK    6  A    between atoms: C_7  and  C_9
REMARK    7  A    between atoms: C_10  and  O_11
REMARK    8  A    between atoms: O_11  and  C_12
REMARK    9  A    between atoms: C_15  and  C_16
REMARK   10  A    between atoms: C_18  and  C_19
REMARK                            x       y       z     vdW  Elec       q    Type
REMARK                         _______ _______ _______ _____ _____    ______ ____
ROOT
ATOM      1  N   UNL     1       2.803   4.122  18.720  0.00  0.00    +0.000 N 
ATOM      2  C   UNL     1       3.710   4.489  17.659  0.00  0.00    +0.000 C 
ATOM      3  C   UNL     1       4.234   5.878  18.050  0.00  0.00    +0.000 C 
ATOM      4  C   UNL     1       4.610   6.687  16.806  0.00  0.00    +0.000 C 
ATOM      5  C   UNL     1       5.493   5.705  18.927  0.00  0.00    +0.000 C 
ATOM      6  C   UNL     1       3.074   6.488  18.898  0.00  0.00    +0.000 C 
ATOM      7  C   UNL     1       2.418   5.220  19.477  0.00  0.00    +0.000 C 
ATOM      8  O   UNL     1       1.686   5.175  20.457  0.00  0.00    +0.000 OA
ENDROOT
BRANCH   1  10
ATOM      9  C   UNL     1       1.205   2.197  18.717  0.00  0.00    +0.000 C 
ATOM     10  C   UNL     1       2.560   2.744  19.165  0.00  0.00    +0.000 C 
BRANCH  10  11
ATOM     11  C   UNL     1       3.720   1.808  18.753  0.00  0.00    +0.000 C 
BRANCH  11  12
ATOM     12  O   UNL     1       4.846   1.925  19.624  0.00  0.00    +0.000 OA
ATOM     13  H   UNL     1       5.361   2.697  19.332  0.00  0.00    +0.000 HD
ENDBRANCH  11  12
ENDBRANCH  10  11
ENDBRANCH   1  10
BRANCH   6  14
ATOM     14  O   UNL     1       2.194   7.293  18.110  0.00  0.00    +0.000 OA
BRANCH  14  15
ATOM     15  C   UNL     1       1.779   8.485  18.646  0.00  0.00    +0.000 A 
ATOM     16  C   UNL     1       1.932   9.740  18.063  0.00  0.00    +0.000 A 
ATOM     17  C   UNL     1       1.601  10.897  18.776  0.00  0.00    +0.000 A 
ATOM     18  C   UNL     1       1.060  10.824  20.066  0.00  0.00    +0.000 A 
ATOM     19  C   UNL     1       0.787   9.564  20.623  0.00  0.00    +0.000 A 
ATOM     20  C   UNL     1       1.161   8.405  19.899  0.00  0.00    +0.000 A 
BRANCH  19  21
ATOM     21  C   UNL     1       0.102   9.378  21.955  0.00  0.00    +0.000 C 
ATOM     22  F   UNL     1      -0.836  10.308  22.262  0.00  0.00    +0.000 F 
ATOM     23  F   UNL     1      -0.541   8.177  22.024  0.00  0.00    +0.000 F 
ATOM     24  F   UNL     1       0.983   9.384  22.993  0.00  0.00    +0.000 F 
ENDBRANCH  19  21
BRANCH  18  25
ATOM     25  C   UNL     1       0.844  12.062  20.770  0.00  0.00    +0.000 C 
ATOM     26  N   UNL     1       0.656  13.034  21.370  0.00  0.00    +0.000 NA
ENDBRANCH  18  25
ENDBRANCH  14  15
ENDBRANCH   6  14
TORSDOF 7
ENDMDL
MODEL 6
REMARK VINA RESULT:      -7.2      2.470      3.611
REMARK  Name = 
REMARK  10 active torsions:
REMARK  status: ('A' for Active; 'I' for Inactive)
REMARK    1  A    between atoms: C_1  and  C_2
REMARK    2  A    between atoms: C_2  and  C_3
REMARK    3  A    between atoms: C_2  and  N_5
REMARK    4  A    between atoms: C_3  and  O_4
REMARK    5  A    between atoms: C_7  and  C_8
REMARK    6  A    between atoms: C_7  and  C_9
REMARK    7  A    between atoms: C_10  and  O_11
REMARK    8  A    between atoms: O_11  and  C_12
REMARK    9  A    between atoms: C_15  and  C_16
REMARK   10  A    between atoms: C_18  and  C_19
REMARK                            x       y       z     vdW  Elec       q    Type
REMARK                         _______ _______ _______ _____ _____    ______ ____
ROOT
ATOM      1  N   UNL     1       2.672   4.071  19.036  0.00  0.00    +0.000 N 
ATOM      2  C   UNL     1       3.414   4.619  17.926  0.00  0.00    +0.000 C 
ATOM      3  C   UNL     1       4.037   5.913  18.469  0.00  0.00    +0.000 C 
ATOM      4  C   UNL     1       4.241   6.931  17.344  0.00  0.00    +0.000 C 
ATOM      5  C   UNL     1       5.411   5.580  19.091  0.00  0.00    +0.000 C 
ATOM      6  C   UNL     1       3.043   6.366  19.585  0.00  0.00    +0.000 C 
ATOM      7  C   UNL     1       2.444   5.017  20.028  0.00  0.00    +0.000 C 
ATOM      8  O   UNL     1       1.873   4.799  21.088  0.00  0.00    +0.000 OA
ENDROOT
BRANCH   1  10
ATOM      9  C   UNL     1       1.138   2.126  18.683  0.00  0.00    +0.000 C 
ATOM     10  C   UNL     1       2.456   2.636  19.264  0.00  0.00    +0.000 C 
BRANCH  10  11
ATOM     11  C   UNL     1       3.660   1.803  18.768  0.00  0.00    +0.000 C 
BRANCH  11  12
ATOM     12  O   UNL     1       4.806   1.952  19.608  0.00  0.00    +0.000 OA
ATOM     13  H   UNL     1       5.346   1.149  19.510  0.00  0.00    +0.000 HD
ENDBRANCH  11  12
ENDBRANCH  10  11
ENDBRANCH   1  10
BRANCH   6  14
ATOM     14  O   UNL     1       2.077   7.302  19.101  0.00  0.00    +0.000 OA
BRANCH  14  15
ATOM     15  C   UNL     1       1.573   8.209  19.999  0.00  0.00    +0.000 A 
ATOM     16  C   UNL     1       1.550   8.061  21.383  0.00  0.00    +0.000 A 
ATOM     17  C   UNL     1       0.874   8.989  22.183  0.00  0.00    +0.000 A 
ATOM     18  C   UNL     1       0.251  10.112  21.622  0.00  0.00    +0.000 A 
ATOM     19  C   UNL     1       0.367  10.340  20.242  0.00  0.00    +0.000 A 
ATOM     20  C   UNL     1       1.026   9.371  19.445  0.00  0.00    +0.000 A 
BRANCH  19  21
ATOM     21  C   UNL     1      -0.168  11.574  19.558  0.00  0.00    +0.000 C 
ATOM     22  F   UNL     1       0.171  11.709  18.251  0.00  0.00    +0.000 F 
ATOM     23  F   UNL     1      -1.531  11.611  19.585  0.00  0.00    +0.000 F 
ATOM     24  F   UNL     1       0.243  12.721  20.166  0.00  0.00    +0.000 F 
ENDBRANCH  19  21
BRANCH  18  25
ATOM     25  C   UNL     1      -0.510  10.961  22.502  0.00  0.00    +0.000 C 
ATOM     26  N   UNL     1      -1.105  11.678  23.188  0.00  0.00    +0.000 NA
ENDBRANCH  18  25
ENDBRANCH  14  15
ENDBRANCH   6  14
TORSDOF 7
ENDMDL
MODEL 7
REMARK VINA RESULT:      -7.1      1.218      1.713
REMARK  Name = 
REMARK  10 active torsions:
REMARK  status: ('A' for Active; 'I' for Inactive)
REMARK    1  A    between atoms: C_1  and  C_2
REMARK    2  A    between atoms: C_2  and  C_3
REMARK    3  A    between atoms: C_2  and  N_5
REMARK    4  A    between atoms: C_3  and  O_4
REMARK    5  A    between atoms: C_7  and  C_8
REMARK    6  A    between atoms: C_7  and  C_9
REMARK    7  A    between atoms: C_10  and  O_11
REMARK    8  A    between atoms: O_11  and  C_12
REMARK    9  A    between atoms: C_15  and  C_16
REMARK   10  A    between atoms: C_18  and  C_19
REMARK                            x       y       z     vdW  Elec       q    Type
REMARK                         _______ _______ _______ _____ _____    ______ ____
ROOT
ATOM      1  N   UNL     1       5.744   5.510  18.397  0.00  0.00    +0.000 N 
ATOM      2  C   UNL     1       5.143   4.366  19.039  0.00  0.00    +0.000 C 
ATOM      3  C   UNL     1       3.679   4.377  18.575  0.00  0.00    +0.000 C 
ATOM      4  C   UNL     1       2.771   3.733  19.625  0.00  0.00    +0.000 C 
ATOM      5  C   UNL     1       3.568   3.572  17.262  0.00  0.00    +0.000 C 
ATOM      6  C   UNL     1       3.388   5.887  18.300  0.00  0.00    +0.000 C 
ATOM      7  C   UNL     1       4.791   6.408  17.935  0.00  0.00    +0.000 C 
ATOM      8  O   UNL     1       5.036   7.439  17.323  0.00  0.00    +0.000 OA
ENDROOT
BRANCH   1  10
ATOM      9  C   UNL     1       8.121   5.669  19.163  0.00  0.00    +0.000 C 
ATOM     10  C   UNL     1       7.152   5.587  17.985  0.00  0.00    +0.000 C 
BRANCH  10  11
ATOM     11  C   UNL     1       7.518   4.433  17.023  0.00  0.00    +0.000 C 
BRANCH  11  12
ATOM     12  O   UNL     1       7.516   4.845  15.656  0.00  0.00    +0.000 OA
ATOM     13  H   UNL     1       7.822   4.091  15.123  0.00  0.00    +0.000 HD
ENDBRANCH  11  12
ENDBRANCH  10  11
ENDBRANCH   1  10
BRANCH   6  14
ATOM     14  O   UNL     1       2.798   6.537  19.427  0.00  0.00    +0.000 OA
BRANCH  14  15
ATOM     15  C   UNL     1       2.077   7.680  19.190  0.00  0.00    +0.000 A 
ATOM     16  C   UNL     1       1.846   8.256  17.944  0.00  0.00    +0.000 A 
ATOM     17  C   UNL     1       1.221   9.504  17.845  0.00  0.00    +0.000 A 
ATOM     18  C   UNL     1       0.766  10.179  18.986  0.00  0.00    +0.000 A 
ATOM     19  C   UNL     1       0.882   9.558  20.240  0.00  0.00    +0.000 A 
ATOM     20  C   UNL     1       1.549   8.311  20.322  0.00  0.00    +0.000 A 
BRANCH  19  21
ATOM     21  C   UNL     1       0.324  10.148  21.512  0.00  0.00    +0.000 C 
ATOM     22  F   UNL     1       0.562   9.432  22.639  0.00  0.00    +0.000 F 
ATOM     23  F   UNL     1       0.835  11.389  21.755  0.00  0.00    +0.000 F 
ATOM     24  F   UNL     1      -1.026  10.311  21.456  0.00  0.00    +0.000 F 
ENDBRANCH  19  21
BRANCH  18  25
ATOM     25  C   UNL     1       0.228  11.503  18.807  0.00  0.00    +0.000 C 
ATOM     26  N   UNL     1      -0.181  12.580  18.698  0.00  0.00    +0.000 NA
ENDBRANCH  18  25
ENDBRANCH  14  15
ENDBRANCH   6  14
TORSDOF 7
ENDMDL
MODEL 8
REMARK VINA RESULT:      -7.0      0.827      1.302
REMARK  Name = 
REMARK  10 active torsions:
REMARK  status: ('A' for Active; 'I' for Inactive)
REMARK    1  A    between atoms: C_1  and  C_2
REMARK    2  A    between atoms: C_2  and  C_3
REMARK    3  A    between atoms: C_2  and  N_5
REMARK    4  A    between atoms: C_3  and  O_4
REMARK    5  A    between atoms: C_7  and  C_8
REMARK    6  A    between atoms: C_7  and  C_9
REMARK    7  A    between atoms: C_10  and  O_11
REMARK    8  A    between atoms: O_11  and  C_12
REMARK    9  A    between atoms: C_15  and  C_16
REMARK   10  A    between atoms: C_18  and  C_19
REMARK                            x       y       z     vdW  Elec       q    Type
REMARK                         _______ _______ _______ _____ _____    ______ ____
ROOT
ATOM      1  N   UNL     1       5.146   5.438  17.846  0.00  0.00    +0.000 N 
ATOM      2  C   UNL     1       4.615   4.481  18.787  0.00  0.00    +0.000 C 
ATOM      3  C   UNL     1       3.102   4.743  18.805  0.00  0.00    +0.000 C 
ATOM      4  C   UNL     1       2.501   4.363  20.161  0.00  0.00    +0.000 C 
ATOM      5  C   UNL     1       2.435   3.883  17.709  0.00  0.00    +0.000 C 
ATOM      6  C   UNL     1       2.982   6.257  18.441  0.00  0.00    +0.000 C 
ATOM      7  C   UNL     1       4.251   6.469  17.592  0.00  0.00    +0.000 C 
ATOM      8  O   UNL     1       4.442   7.387  16.805  0.00  0.00    +0.000 OA
ENDROOT
BRANCH   1  10
ATOM      9  C   UNL     1       7.510   4.622  17.782  0.00  0.00    +0.000 C 
ATOM     10  C   UNL     1       6.331   5.211  17.009  0.00  0.00    +0.000 C 
BRANCH  10  11
ATOM     11  C   UNL     1       5.983   4.364  15.763  0.00  0.00    +0.000 C 
BRANCH  11  12
ATOM     12  O   UNL     1       5.845   2.977  16.072  0.00  0.00    +0.000 OA
ATOM     13  H   UNL     1       6.455   2.778  16.803  0.00  0.00    +0.000 HD
ENDBRANCH  11  12
ENDBRANCH  10  11
ENDBRANCH   1  10
BRANCH   6  14
ATOM     14  O   UNL     1       2.911   7.088  19.601  0.00  0.00    +0.000 OA
BRANCH  14  15
ATOM     15  C   UNL     1       1.935   8.052  19.628  0.00  0.00    +0.000 A 
ATOM     16  C   UNL     1       1.424   8.726  18.523  0.00  0.00    +0.000 A 
ATOM     17  C   UNL     1       0.536   9.795  18.693  0.00  0.00    +0.000 A 
ATOM     18  C   UNL     1       0.099  10.178  19.968  0.00  0.00    +0.000 A 
ATOM     19  C   UNL     1       0.510   9.432  21.085  0.00  0.00    +0.000 A 
ATOM     20  C   UNL     1       1.436   8.376  20.894  0.00  0.00    +0.000 A 
BRANCH  19  21
ATOM     21  C   UNL     1       0.009   9.691  22.485  0.00  0.00    +0.000 C 
ATOM     22  F   UNL     1      -1.168   9.095  22.800  0.00  0.00    +0.000 F 
ATOM     23  F   UNL     1       0.898   9.257  23.424  0.00  0.00    +0.000 F 
ATOM     24  F   UNL     1      -0.169  11.017  22.732  0.00  0.00    +0.000 F 
ENDBRANCH  19  21
BRANCH  18  25
ATOM     25  C   UNL     1      -0.731  11.350  20.065  0.00  0.00    +0.000 C 
ATOM     26  N   UNL     1      -1.407  12.283  20.184  0.00  0.00    +0.000 NA
ENDBRANCH  18  25
ENDBRANCH  14  15
ENDBRANCH   6  14
TORSDOF 7
ENDMDL
MODEL 9
REMARK VINA RESULT:      -7.0      1.082      1.297
REMARK  Name = 
REMARK  10 active torsions:
REMARK  status: ('A' for Active; 'I' for Inactive)
REMARK    1  A    between atoms: C_1  and  C_2
REMARK    2  A    between atoms: C_2  and  C_3
REMARK    3  A    between atoms: C_2  and  N_5
REMARK    4  A    between atoms: C_3  and  O_4
REMARK    5  A    between atoms: C_7  and  C_8
REMARK    6  A    between atoms: C_7  and  C_9
REMARK    7  A    between atoms: C_10  and  O_11
REMARK    8  A    between atoms: O_11  and  C_12
REMARK    9  A    between atoms: C_15  and  C_16
REMARK   10  A    between atoms: C_18  and  C_19
REMARK                            x       y       z     vdW  Elec       q    Type
REMARK                         _______ _______ _______ _____ _____    ______ ____
ROOT
ATOM      1  N   UNL     1       4.505   5.716  18.248  0.00  0.00    +0.000 N 
ATOM      2  C   UNL     1       4.010   4.798  19.245  0.00  0.00    +0.000 C 
ATOM      3  C   UNL     1       2.503   5.080  19.328  0.00  0.00    +0.000 C 
ATOM      4  C   UNL     1       1.964   4.754  20.723  0.00  0.00    +0.000 C 
ATOM      5  C   UNL     1       1.774   4.193  18.295  0.00  0.00    +0.000 C 
ATOM      6  C   UNL     1       2.383   6.582  18.918  0.00  0.00    +0.000 C 
ATOM      7  C   UNL     1       3.610   6.749  18.002  0.00  0.00    +0.000 C 
ATOM      8  O   UNL     1       3.774   7.638  17.176  0.00  0.00    +0.000 OA
ENDROOT
BRANCH   1  10
ATOM      9  C   UNL     1       6.864   4.894  18.102  0.00  0.00    +0.000 C 
ATOM     10  C   UNL     1       5.646   5.445  17.363  0.00  0.00    +0.000 C 
BRANCH  10  11
ATOM     11  C   UNL     1       5.234   4.538  16.181  0.00  0.00    +0.000 C 
BRANCH  11  12
ATOM     12  O   UNL     1       5.908   3.279  16.204  0.00  0.00    +0.000 OA
ATOM     13  H   UNL     1       5.228   2.584  16.214  0.00  0.00    +0.000 HD
ENDBRANCH  11  12
ENDBRANCH  10  11
ENDBRANCH   1  10
BRANCH   6  14
ATOM     14  O   UNL     1       2.377   7.453  20.052  0.00  0.00    +0.000 OA
BRANCH  14  15
ATOM     15  C   UNL     1       1.438   8.452  20.075  0.00  0.00    +0.000 A 
ATOM     16  C   UNL     1       0.954   9.143  18.968  0.00  0.00    +0.000 A 
ATOM     17  C   UNL     1       0.106  10.244  19.136  0.00  0.00    +0.000 A 
ATOM     18  C   UNL     1      -0.317  10.646  20.409  0.00  0.00    +0.000 A 
ATOM     19  C   UNL     1       0.064   9.887  21.528  0.00  0.00    +0.000 A 
ATOM     20  C   UNL     1       0.950   8.797  21.340  0.00  0.00    +0.000 A 
BRANCH  19  21
ATOM     21  C   UNL     1      -0.429  10.167  22.926  0.00  0.00    +0.000 C 
ATOM     22  F   UNL     1      -0.447  11.475  23.286  0.00  0.00    +0.000 F 
ATOM     23  F   UNL     1      -1.706   9.724  23.106  0.00  0.00    +0.000 F 
ATOM     24  F   UNL     1       0.317   9.535  23.873  0.00  0.00    +0.000 F 
ENDBRANCH  19  21
BRANCH  18  25
ATOM     25  C   UNL     1      -1.103  11.849  20.502  0.00  0.00    +0.000 C 
ATOM     26  N   UNL     1      -1.771  12.791  20.583  0.00  0.00    +0.000 NA
ENDBRANCH  18  25
ENDBRANCH  14  15
ENDBRANCH   6  14
TORSDOF 7
ENDMDL
