MODEL 1
REMARK VINA RESULT:      -7.9      0.000      0.000
REMARK  Name = 
REMARK  4 active torsions:
REMARK  status: ('A' for Active; 'I' for Inactive)
REMARK    1  A    between atoms: C_5  and  C_6
REMARK    2  A    between atoms: C_6  and  N_7
REMARK    3  A    between atoms: C_16  and  C_17
REMARK    4  A    between atoms: C_17  and  N_18
REMARK                            x       y       z     vdW  Elec       q    Type
REMARK                         _______ _______ _______ _____ _____    ______ ____
ROOT
ATOM      1  N   UNL     1       4.490   5.127  17.931  0.00  0.00    +0.000 NA
ATOM      2  C   UNL     1       3.962   6.418  17.511  0.00  0.00    +0.000 C 
ATOM      3  C   UNL     1       4.897   7.188  16.586  0.00  0.00    +0.000 C 
ATOM      4  C   UNL     1       6.216   7.361  17.282  0.00  0.00    +0.000 A 
ATOM      5  C   UNL     1       6.913   8.570  17.201  0.00  0.00    +0.000 A 
ATOM      6  C   UNL     1       8.077   8.749  17.940  0.00  0.00    +0.000 A 
ATOM      7  C   UNL     1       8.556   7.716  18.744  0.00  0.00    +0.000 A 
ATOM      8  C   UNL     1       7.883   6.491  18.797  0.00  0.00    +0.000 A 
ATOM      9  C   UNL     1       6.705   6.296  18.063  0.00  0.00    +0.000 A 
ATOM     10  C   UNL     1       5.940   4.968  18.107  0.00  0.00    +0.000 C 
ENDROOT
BRANCH   1  11
ATOM     11  C   UNL     1       3.613   3.980  17.765  0.00  0.00    +0.000 C 
BRANCH  11  16
ATOM     12  F   UNL     1       0.762   2.458  22.402  0.00  0.00    +0.000 F 
ATOM     13  C   UNL     1       1.454   2.857  21.327  0.00  0.00    +0.000 A 
ATOM     14  C   UNL     1       0.813   3.598  20.343  0.00  0.00    +0.000 A 
ATOM     15  C   UNL     1       1.518   3.996  19.203  0.00  0.00    +0.000 A 
ATOM     16  C   UNL     1       2.872   3.650  19.049  0.00  0.00    +0.000 A 
ATOM     17  C   UNL     1       3.486   2.913  20.073  0.00  0.00    +0.000 A 
ATOM     18  F   UNL     1       4.771   2.542  19.946  0.00  0.00    +0.000 F 
ATOM     19  C   UNL     1       2.791   2.511  21.203  0.00  0.00    +0.000 A 
ENDBRANCH  11  16
ENDBRANCH   1  11
BRANCH  10  20
ATOM     20  C   UNL     1       6.668   3.866  17.290  0.00  0.00    +0.000 C 
BRANCH  20  21
ATOM     21  N   UNL     1       6.747   4.027  15.856  0.00  0.00    +0.000 N 
ATOM     22  C   UNL     1       5.802   3.672  14.938  0.00  0.00    +0.000 A 
ATOM     23  N   UNL     1       6.057   4.257  13.790  0.00  0.00    +0.000 NA
ATOM     24  C   UNL     1       7.175   4.990  14.062  0.00  0.00    +0.000 A 
ATOM     25  N   UNL     1       7.633   4.889  15.313  0.00  0.00    +0.000 NA
ENDBRANCH  20  21
ENDBRANCH  10  20
TORSDOF 4
ENDMDL
MODEL 2
REMARK VINA RESULT:      -7.9      0.955      1.353
REMARK  Name = 
REMARK  4 active torsions:
REMARK  status: ('A' for Active; 'I' for Inactive)
REMARK    1  A    between atoms: C_5  and  C_6
REMARK    2  A    between atoms: C_6  and  N_7
REMARK    3  A    between atoms: C_16  and  C_17
REMARK    4  A    between atoms: C_17  and  N_18
REMARK                            x       y       z     vdW  Elec       q    Type
REMARK                         _______ _______ _______ _____ _____    ______ ____
ROOT
ATOM      1  N   UNL     1       4.673   4.942  17.804  0.00  0.00    +0.000 NA
ATOM      2  C   UNL     1       4.041   6.209  17.460  0.00  0.00    +0.000 C 
ATOM      3  C   UNL     1       4.903   7.100  16.575  0.00  0.00    +0.000 C 
ATOM      4  C   UNL     1       6.212   7.338  17.270  0.00  0.00    +0.000 A 
ATOM      5  C   UNL     1       6.811   8.600  17.254  0.00  0.00    +0.000 A 
ATOM      6  C   UNL     1       7.966   8.829  17.994  0.00  0.00    +0.000 A 
ATOM      7  C   UNL     1       8.532   7.794  18.736  0.00  0.00    +0.000 A 
ATOM      8  C   UNL     1       7.957   6.519  18.725  0.00  0.00    +0.000 A 
ATOM      9  C   UNL     1       6.791   6.273  17.988  0.00  0.00    +0.000 A 
ATOM     10  C   UNL     1       6.132   4.888  17.962  0.00  0.00    +0.000 C 
ENDROOT
BRANCH   1  11
ATOM     11  C   UNL     1       3.886   3.740  17.579  0.00  0.00    +0.000 C 
BRANCH  11  16
ATOM     12  F   UNL     1       0.869   2.690  22.242  0.00  0.00    +0.000 F 
ATOM     13  C   UNL     1       1.571   2.896  21.120  0.00  0.00    +0.000 A 
ATOM     14  C   UNL     1       2.928   2.607  21.105  0.00  0.00    +0.000 A 
ATOM     15  C   UNL     1       3.677   2.845  19.948  0.00  0.00    +0.000 A 
ATOM     16  C   UNL     1       3.061   3.374  18.800  0.00  0.00    +0.000 A 
ATOM     17  C   UNL     1       1.685   3.638  18.853  0.00  0.00    +0.000 A 
ATOM     18  F   UNL     1       1.069   4.169  17.783  0.00  0.00    +0.000 F 
ATOM     19  C   UNL     1       0.937   3.410  19.999  0.00  0.00    +0.000 A 
ENDBRANCH  11  16
ENDBRANCH   1  11
BRANCH  10  20
ATOM     20  C   UNL     1       6.936   3.894  17.080  0.00  0.00    +0.000 C 
BRANCH  20  21
ATOM     21  N   UNL     1       6.925   4.096  15.650  0.00  0.00    +0.000 N 
ATOM     22  C   UNL     1       5.986   3.652  14.766  0.00  0.00    +0.000 A 
ATOM     23  N   UNL     1       6.113   4.289  13.624  0.00  0.00    +0.000 NA
ATOM     24  C   UNL     1       7.147   5.146  13.867  0.00  0.00    +0.000 A 
ATOM     25  N   UNL     1       7.674   5.071  15.092  0.00  0.00    +0.000 NA
ENDBRANCH  20  21
ENDBRANCH  10  20
TORSDOF 4
ENDMDL
MODEL 3
REMARK VINA RESULT:      -7.7      1.035      1.089
REMARK  Name = 
REMARK  4 active torsions:
REMARK  status: ('A' for Active; 'I' for Inactive)
REMARK    1  A    between atoms: C_5  and  C_6
REMARK    2  A    between atoms: C_6  and  N_7
REMARK    3  A    between atoms: C_16  and  C_17
REMARK    4  A    between atoms: C_17  and  N_18
REMARK                            x       y       z     vdW  Elec       q    Type
REMARK                         _______ _______ _______ _____ _____    ______ ____
ROOT
ATOM      1  N   UNL     1       3.997   5.540  17.838  0.00  0.00    +0.000 NA
ATOM      2  C   UNL     1       3.812   6.917  17.398  0.00  0.00    +0.000 C 
ATOM      3  C   UNL     1       4.961   7.444  16.547  0.00  0.00    +0.000 C 
ATOM      4  C   UNL     1       6.234   7.309  17.331  0.00  0.00    +0.000 A 
ATOM      5  C   UNL     1       7.196   8.322  17.312  0.00  0.00    +0.000 A 
ATOM      6  C   UNL     1       8.318   8.230  18.129  0.00  0.00    +0.000 A 
ATOM      7  C   UNL     1       8.487   7.118  18.952  0.00  0.00    +0.000 A 
ATOM      8  C   UNL     1       7.546   6.083  18.946  0.00  0.00    +0.000 A 
ATOM      9  C   UNL     1       6.408   6.164  18.132  0.00  0.00    +0.000 A 
ATOM     10  C   UNL     1       5.354   5.050  18.109  0.00  0.00    +0.000 C 
ENDROOT
BRANCH   1  11
ATOM     11  C   UNL     1       2.890   4.628  17.601  0.00  0.00    +0.000 C 
BRANCH  11  16
ATOM     12  F   UNL     1       0.833   2.267  22.306  0.00  0.00    +0.000 F 
ATOM     13  C   UNL     1       1.363   2.807  21.201  0.00  0.00    +0.000 A 
ATOM     14  C   UNL     1       1.821   4.117  21.238  0.00  0.00    +0.000 A 
ATOM     15  C   UNL     1       2.351   4.701  20.083  0.00  0.00    +0.000 A 
ATOM     16  C   UNL     1       2.422   3.968  18.886  0.00  0.00    +0.000 A 
ATOM     17  C   UNL     1       1.962   2.642  18.895  0.00  0.00    +0.000 A 
ATOM     18  F   UNL     1       1.990   1.921  17.762  0.00  0.00    +0.000 F 
ATOM     19  C   UNL     1       1.430   2.059  20.036  0.00  0.00    +0.000 A 
ENDBRANCH  11  16
ENDBRANCH   1  11
BRANCH  10  20
ATOM     20  C   UNL     1       5.860   3.805  17.332  0.00  0.00    +0.000 C 
BRANCH  20  21
ATOM     21  N   UNL     1       6.208   3.972  15.939  0.00  0.00    +0.000 N 
ATOM     22  C   UNL     1       5.355   3.971  14.875  0.00  0.00    +0.000 A 
ATOM     23  N   UNL     1       5.958   4.473  13.821  0.00  0.00    +0.000 NA
ATOM     24  C   UNL     1       7.194   4.794  14.301  0.00  0.00    +0.000 A 
ATOM     25  N   UNL     1       7.395   4.514  15.592  0.00  0.00    +0.000 NA
ENDBRANCH  20  21
ENDBRANCH  10  20
TORSDOF 4
ENDMDL
MODEL 4
REMARK VINA RESULT:      -7.5      1.330      1.500
REMARK  Name = 
REMARK  4 active torsions:
REMARK  status: ('A' for Active; 'I' for Inactive)
REMARK    1  A    between atoms: C_5  and  C_6
REMARK    2  A    between atoms: C_6  and  N_7
REMARK    3  A    between atoms: C_16  and  C_17
REMARK    4  A    between atoms: C_17  and  N_18
REMARK                            x       y       z     vdW  Elec       q    Type
REMARK                         _______ _______ _______ _____ _____    ______ ____
ROOT
ATOM      1  N   UNL     1       3.502   5.774  18.017  0.00  0.00    +0.000 NA
ATOM      2  C   UNL     1       3.540   7.165  17.587  0.00  0.00    +0.000 C 
ATOM      3  C   UNL     1       4.734   7.496  16.699  0.00  0.00    +0.000 C 
ATOM      4  C   UNL     1       5.990   7.140  17.439  0.00  0.00    +0.000 A 
ATOM      5  C   UNL     1       7.109   7.975  17.390  0.00  0.00    +0.000 A 
ATOM      6  C   UNL     1       8.225   7.685  18.168  0.00  0.00    +0.000 A 
ATOM      7  C   UNL     1       8.229   6.554  18.982  0.00  0.00    +0.000 A 
ATOM      8  C   UNL     1       7.126   5.694  19.005  0.00  0.00    +0.000 A 
ATOM      9  C   UNL     1       5.993   5.975  18.230  0.00  0.00    +0.000 A 
ATOM     10  C   UNL     1       4.764   5.057  18.241  0.00  0.00    +0.000 C 
ENDROOT
BRANCH   1  11
ATOM     11  C   UNL     1       2.248   5.065  17.815  0.00  0.00    +0.000 C 
BRANCH  11  16
ATOM     12  F   UNL     1       1.261   1.793  22.317  0.00  0.00    +0.000 F 
ATOM     13  C   UNL     1       1.448   2.579  21.249  0.00  0.00    +0.000 A 
ATOM     14  C   UNL     1       1.480   2.009  19.983  0.00  0.00    +0.000 A 
ATOM     15  C   UNL     1       1.702   2.815  18.862  0.00  0.00    +0.000 A 
ATOM     16  C   UNL     1       1.894   4.200  19.012  0.00  0.00    +0.000 A 
ATOM     17  C   UNL     1       1.840   4.738  20.306  0.00  0.00    +0.000 A 
ATOM     18  F   UNL     1       2.046   6.054  20.488  0.00  0.00    +0.000 F 
ATOM     19  C   UNL     1       1.625   3.943  21.422  0.00  0.00    +0.000 A 
ENDBRANCH  11  16
ENDBRANCH   1  11
BRANCH  10  20
ATOM     20  C   UNL     1       5.024   3.751  17.443  0.00  0.00    +0.000 C 
BRANCH  20  21
ATOM     21  N   UNL     1       5.557   3.869  16.105  0.00  0.00    +0.000 N 
ATOM     22  C   UNL     1       4.868   4.202  14.975  0.00  0.00    +0.000 A 
ATOM     23  N   UNL     1       5.710   4.536  14.024  0.00  0.00    +0.000 NA
ATOM     24  C   UNL     1       6.924   4.412  14.634  0.00  0.00    +0.000 A 
ATOM     25  N   UNL     1       6.884   4.014  15.908  0.00  0.00    +0.000 NA
ENDBRANCH  20  21
ENDBRANCH  10  20
TORSDOF 4
ENDMDL
MODEL 5
REMARK VINA RESULT:      -7.3      3.001      6.862
REMARK  Name = 
REMARK  4 active torsions:
REMARK  status: ('A' for Active; 'I' for Inactive)
REMARK    1  A    between atoms: C_5  and  C_6
REMARK    2  A    between atoms: C_6  and  N_7
REMARK    3  A    between atoms: C_16  and  C_17
REMARK    4  A    between atoms: C_17  and  N_18
REMARK                            x       y       z     vdW  Elec       q    Type
REMARK                         _______ _______ _______ _____ _____    ______ ____
ROOT
ATOM      1  N   UNL     1       4.920   5.302  18.836  0.00  0.00    +0.000 NA
ATOM      2  C   UNL     1       5.277   3.890  18.844  0.00  0.00    +0.000 C 
ATOM      3  C   UNL     1       4.114   2.964  18.509  0.00  0.00    +0.000 C 
ATOM      4  C   UNL     1       3.001   3.230  19.480  0.00  0.00    +0.000 A 
ATOM      5  C   UNL     1       2.259   2.177  20.022  0.00  0.00    +0.000 A 
ATOM      6  C   UNL     1       1.306   2.432  21.001  0.00  0.00    +0.000 A 
ATOM      7  C   UNL     1       1.081   3.740  21.427  0.00  0.00    +0.000 A 
ATOM      8  C   UNL     1       1.794   4.802  20.860  0.00  0.00    +0.000 A 
ATOM      9  C   UNL     1       2.761   4.560  19.875  0.00  0.00    +0.000 A 
ATOM     10  C   UNL     1       3.566   5.701  19.241  0.00  0.00    +0.000 C 
ENDROOT
BRANCH   1  11
ATOM     11  C   UNL     1       5.774   6.185  18.059  0.00  0.00    +0.000 C 
BRANCH  11  16
ATOM     12  F   UNL     1       6.942   4.397  12.825  0.00  0.00    +0.000 F 
ATOM     13  C   UNL     1       6.645   4.779  14.075  0.00  0.00    +0.000 A 
ATOM     14  C   UNL     1       5.488   5.509  14.304  0.00  0.00    +0.000 A 
ATOM     15  C   UNL     1       5.181   5.937  15.600  0.00  0.00    +0.000 A 
ATOM     16  C   UNL     1       6.039   5.630  16.670  0.00  0.00    +0.000 A 
ATOM     17  C   UNL     1       7.191   4.877  16.397  0.00  0.00    +0.000 A 
ATOM     18  F   UNL     1       8.048   4.589  17.392  0.00  0.00    +0.000 F 
ATOM     19  C   UNL     1       7.504   4.455  15.114  0.00  0.00    +0.000 A 
ENDBRANCH  11  16
ENDBRANCH   1  11
BRANCH  10  20
ATOM     20  C   UNL     1       2.703   6.514  18.237  0.00  0.00    +0.000 C 
BRANCH  20  21
ATOM     21  N   UNL     1       2.295   7.847  18.620  0.00  0.00    +0.000 N 
ATOM     22  C   UNL     1       2.012   8.888  17.785  0.00  0.00    +0.000 A 
ATOM     23  N   UNL     1       1.366   9.823  18.445  0.00  0.00    +0.000 NA
ATOM     24  C   UNL     1       1.256   9.292  19.697  0.00  0.00    +0.000 A 
ATOM     25  N   UNL     1       1.802   8.082  19.854  0.00  0.00    +0.000 NA
ENDBRANCH  20  21
ENDBRANCH  10  20
TORSDOF 4
ENDMDL
MODEL 6
REMARK VINA RESULT:      -7.2      3.929      5.995
REMARK  Name = 
REMARK  4 active torsions:
REMARK  status: ('A' for Active; 'I' for Inactive)
REMARK    1  A    between atoms: C_5  and  C_6
REMARK    2  A    between atoms: C_6  and  N_7
REMARK    3  A    between atoms: C_16  and  C_17
REMARK    4  A    between atoms: C_17  and  N_18
REMARK                            x       y       z     vdW  Elec       q    Type
REMARK                         _______ _______ _______ _____ _____    ______ ____
ROOT
ATOM      1  N   UNL     1       2.263   6.853  19.056  0.00  0.00    +0.000 NA
ATOM      2  C   UNL     1       1.468   6.345  20.166  0.00  0.00    +0.000 C 
ATOM      3  C   UNL     1       2.058   5.101  20.820  0.00  0.00    +0.000 C 
ATOM      4  C   UNL     1       2.226   4.045  19.767  0.00  0.00    +0.000 A 
ATOM      5  C   UNL     1       1.918   2.710  20.040  0.00  0.00    +0.000 A 
ATOM      6  C   UNL     1       1.975   1.764  19.022  0.00  0.00    +0.000 A 
ATOM      7  C   UNL     1       2.357   2.147  17.737  0.00  0.00    +0.000 A 
ATOM      8  C   UNL     1       2.704   3.476  17.469  0.00  0.00    +0.000 A 
ATOM      9  C   UNL     1       2.647   4.442  18.483  0.00  0.00    +0.000 A 
ATOM     10  C   UNL     1       3.013   5.908  18.219  0.00  0.00    +0.000 C 
ENDROOT
BRANCH   1  11
ATOM     11  C   UNL     1       2.589   8.270  19.085  0.00  0.00    +0.000 C 
BRANCH  11  16
ATOM     12  F   UNL     1      -2.245  11.198  19.157  0.00  0.00    +0.000 F 
ATOM     13  C   UNL     1      -1.076  10.545  19.139  0.00  0.00    +0.000 A 
ATOM     14  C   UNL     1      -0.572  10.088  17.929  0.00  0.00    +0.000 A 
ATOM     15  C   UNL     1       0.635   9.381  17.900  0.00  0.00    +0.000 A 
ATOM     16  C   UNL     1       1.339   9.132  19.091  0.00  0.00    +0.000 A 
ATOM     17  C   UNL     1       0.803   9.625  20.291  0.00  0.00    +0.000 A 
ATOM     18  F   UNL     1       1.436   9.382  21.451  0.00  0.00    +0.000 F 
ATOM     19  C   UNL     1      -0.396  10.321  20.326  0.00  0.00    +0.000 A 
ENDBRANCH  11  16
ENDBRANCH   1  11
BRANCH  10  20
ATOM     20  C   UNL     1       4.548   6.094  18.085  0.00  0.00    +0.000 C 
BRANCH  20  21
ATOM     21  N   UNL     1       5.193   5.574  16.901  0.00  0.00    +0.000 N 
ATOM     22  C   UNL     1       5.238   6.158  15.669  0.00  0.00    +0.000 A 
ATOM     23  N   UNL     1       6.169   5.586  14.940  0.00  0.00    +0.000 NA
ATOM     24  C   UNL     1       6.692   4.655  15.790  0.00  0.00    +0.000 A 
ATOM     25  N   UNL     1       6.134   4.612  17.003  0.00  0.00    +0.000 NA
ENDBRANCH  20  21
ENDBRANCH  10  20
TORSDOF 4
ENDMDL
MODEL 7
REMARK VINA RESULT:      -7.2      4.037      6.279
REMARK  Name = 
REMARK  4 active torsions:
REMARK  status: ('A' for Active; 'I' for Inactive)
REMARK    1  A    between atoms: C_5  and  C_6
REMARK    2  A    between atoms: C_6  and  N_7
REMARK    3  A    between atoms: C_16  and  C_17
REMARK    4  A    between atoms: C_17  and  N_18
REMARK                            x       y       z     vdW  Elec       q    Type
REMARK                         _______ _______ _______ _____ _____    ______ ____
ROOT
ATOM      1  N   UNL     1       2.164   6.975  19.073  0.00  0.00    +0.000 NA
ATOM      2  C   UNL     1       1.744   6.483  20.378  0.00  0.00    +0.000 C 
ATOM      3  C   UNL     1       2.529   5.265  20.852  0.00  0.00    +0.000 C 
ATOM      4  C   UNL     1       2.402   4.186  19.818  0.00  0.00    +0.000 A 
ATOM      5  C   UNL     1       2.217   2.853  20.195  0.00  0.00    +0.000 A 
ATOM      6  C   UNL     1       1.992   1.882  19.225  0.00  0.00    +0.000 A 
ATOM      7  C   UNL     1       1.969   2.239  17.878  0.00  0.00    +0.000 A 
ATOM      8  C   UNL     1       2.192   3.565  17.493  0.00  0.00    +0.000 A 
ATOM      9  C   UNL     1       2.415   4.556  18.459  0.00  0.00    +0.000 A 
ATOM     10  C   UNL     1       2.654   6.020  18.070  0.00  0.00    +0.000 C 
ENDROOT
BRANCH   1  11
ATOM     11  C   UNL     1       2.452   8.397  18.976  0.00  0.00    +0.000 C 
BRANCH  11  16
ATOM     12  F   UNL     1      -2.454  11.204  19.016  0.00  0.00    +0.000 F 
ATOM     13  C   UNL     1      -1.268  10.580  19.001  0.00  0.00    +0.000 A 
ATOM     14  C   UNL     1      -0.794  10.051  17.809  0.00  0.00    +0.000 A 
ATOM     15  C   UNL     1       0.430   9.373  17.787  0.00  0.00    +0.000 A 
ATOM     16  C   UNL     1       1.180   9.227  18.967  0.00  0.00    +0.000 A 
ATOM     17  C   UNL     1       0.672   9.790  20.147  0.00  0.00    +0.000 A 
ATOM     18  F   UNL     1       1.350   9.645  21.298  0.00  0.00    +0.000 F 
ATOM     19  C   UNL     1      -0.543  10.458  20.176  0.00  0.00    +0.000 A 
ENDBRANCH  11  16
ENDBRANCH   1  11
BRANCH  10  20
ATOM     20  C   UNL     1       4.077   6.227  17.484  0.00  0.00    +0.000 C 
BRANCH  20  21
ATOM     21  N   UNL     1       5.171   5.505  18.092  0.00  0.00    +0.000 N 
ATOM     22  C   UNL     1       6.074   4.701  17.461  0.00  0.00    +0.000 A 
ATOM     23  N   UNL     1       7.103   4.484  18.248  0.00  0.00    +0.000 NA
ATOM     24  C   UNL     1       6.791   5.207  19.363  0.00  0.00    +0.000 A 
ATOM     25  N   UNL     1       5.623   5.854  19.315  0.00  0.00    +0.000 NA
ENDBRANCH  20  21
ENDBRANCH  10  20
TORSDOF 4
ENDMDL
MODEL 8
REMARK VINA RESULT:      -7.2      2.630      6.725
REMARK  Name = 
REMARK  4 active torsions:
REMARK  status: ('A' for Active; 'I' for Inactive)
REMARK    1  A    between atoms: C_5  and  C_6
REMARK    2  A    between atoms: C_6  and  N_7
REMARK    3  A    between atoms: C_16  and  C_17
REMARK    4  A    between atoms: C_17  and  N_18
REMARK                            x       y       z     vdW  Elec       q    Type
REMARK                         _______ _______ _______ _____ _____    ______ ____
ROOT
ATOM      1  N   UNL     1       4.459   4.602  17.631  0.00  0.00    +0.000 NA
ATOM      2  C   UNL     1       4.497   3.148  17.556  0.00  0.00    +0.000 C 
ATOM      3  C   UNL     1       3.123   2.495  17.660  0.00  0.00    +0.000 C 
ATOM      4  C   UNL     1       2.483   2.939  18.943  0.00  0.00    +0.000 A 
ATOM      5  C   UNL     1       1.765   2.036  19.732  0.00  0.00    +0.000 A 
ATOM      6  C   UNL     1       1.271   2.436  20.969  0.00  0.00    +0.000 A 
ATOM      7  C   UNL     1       1.480   3.742  21.410  0.00  0.00    +0.000 A 
ATOM      8  C   UNL     1       2.164   4.660  20.607  0.00  0.00    +0.000 A 
ATOM      9  C   UNL     1       2.671   4.270  19.359  0.00  0.00    +0.000 A 
ATOM     10  C   UNL     1       3.434   5.251  18.459  0.00  0.00    +0.000 C 
ENDROOT
BRANCH   1  11
ATOM     11  C   UNL     1       5.165   5.326  16.587  0.00  0.00    +0.000 C 
BRANCH  11  16
ATOM     12  F   UNL     1       9.046   8.659  18.990  0.00  0.00    +0.000 F 
ATOM     13  C   UNL     1       8.157   7.859  18.386  0.00  0.00    +0.000 A 
ATOM     14  C   UNL     1       7.208   8.416  17.540  0.00  0.00    +0.000 A 
ATOM     15  C   UNL     1       6.257   7.595  16.925  0.00  0.00    +0.000 A 
ATOM     16  C   UNL     1       6.260   6.209  17.159  0.00  0.00    +0.000 A 
ATOM     17  C   UNL     1       7.246   5.684  18.009  0.00  0.00    +0.000 A 
ATOM     18  F   UNL     1       7.261   4.368  18.276  0.00  0.00    +0.000 F 
ATOM     19  C   UNL     1       8.188   6.494  18.626  0.00  0.00    +0.000 A 
ENDBRANCH  11  16
ENDBRANCH   1  11
BRANCH  10  20
ATOM     20  C   UNL     1       2.473   6.267  17.785  0.00  0.00    +0.000 C 
BRANCH  20  21
ATOM     21  N   UNL     1       2.335   7.572  18.390  0.00  0.00    +0.000 N 
ATOM     22  C   UNL     1       2.224   8.768  17.743  0.00  0.00    +0.000 A 
ATOM     23  N   UNL     1       1.787   9.685  18.576  0.00  0.00    +0.000 NA
ATOM     24  C   UNL     1       1.621   8.988  19.737  0.00  0.00    +0.000 A 
ATOM     25  N   UNL     1       1.936   7.691  19.674  0.00  0.00    +0.000 NA
ENDBRANCH  20  21
ENDBRANCH  10  20
TORSDOF 4
ENDMDL
MODEL 9
REMARK VINA RESULT:      -7.2      4.079      6.104
REMARK  Name = 
REMARK  4 active torsions:
REMARK  status: ('A' for Active; 'I' for Inactive)
REMARK    1  A    between atoms: C_5  and  C_6
REMARK    2  A    between atoms: C_6  and  N_7
REMARK    3  A    between atoms: C_16  and  C_17
REMARK    4  A    between atoms: C_17  and  N_18
REMARK                            x       y       z     vdW  Elec       q    Type
REMARK                         _______ _______ _______ _____ _____    ______ ____
ROOT
ATOM      1  N   UNL     1       2.195   6.697  19.548  0.00  0.00    +0.000 NA
ATOM      2  C   UNL     1       1.454   6.031  20.611  0.00  0.00    +0.000 C 
ATOM      3  C   UNL     1       2.089   4.724  21.071  0.00  0.00    +0.000 C 
ATOM      4  C   UNL     1       2.229   3.819  19.882  0.00  0.00    +0.000 A 
ATOM      5  C   UNL     1       1.951   2.454  19.986  0.00  0.00    +0.000 A 
ATOM      6  C   UNL     1       1.981   1.651  18.850  0.00  0.00    +0.000 A 
ATOM      7  C   UNL     1       2.304   2.209  17.614  0.00  0.00    +0.000 A 
ATOM      8  C   UNL     1       2.620   3.568  17.511  0.00  0.00    +0.000 A 
ATOM      9  C   UNL     1       2.590   4.390  18.646  0.00  0.00    +0.000 A 
ATOM     10  C   UNL     1       2.924   5.885  18.565  0.00  0.00    +0.000 C 
ENDROOT
BRANCH   1  11
ATOM     11  C   UNL     1       2.501   8.103  19.752  0.00  0.00    +0.000 C 
BRANCH  11  16
ATOM     12  F   UNL     1      -1.935  11.591  19.432  0.00  0.00    +0.000 F 
ATOM     13  C   UNL     1      -0.913  10.728  19.498  0.00  0.00    +0.000 A 
ATOM     14  C   UNL     1      -0.524  10.229  20.734  0.00  0.00    +0.000 A 
ATOM     15  C   UNL     1       0.559   9.348  20.818  0.00  0.00    +0.000 A 
ATOM     16  C   UNL     1       1.256   8.967  19.658  0.00  0.00    +0.000 A 
ATOM     17  C   UNL     1       0.822   9.484  18.428  0.00  0.00    +0.000 A 
ATOM     18  F   UNL     1       1.481   9.162  17.302  0.00  0.00    +0.000 F 
ATOM     19  C   UNL     1      -0.248  10.361  18.338  0.00  0.00    +0.000 A 
ENDBRANCH  11  16
ENDBRANCH   1  11
BRANCH  10  20
ATOM     20  C   UNL     1       4.449   6.118  18.398  0.00  0.00    +0.000 C 
BRANCH  20  21
ATOM     21  N   UNL     1       5.061   5.727  17.148  0.00  0.00    +0.000 N 
ATOM     22  C   UNL     1       5.074   6.438  15.984  0.00  0.00    +0.000 A 
ATOM     23  N   UNL     1       5.984   5.948  15.173  0.00  0.00    +0.000 NA
ATOM     24  C   UNL     1       6.529   4.933  15.905  0.00  0.00    +0.000 A 
ATOM     25  N   UNL     1       6.004   4.762  17.122  0.00  0.00    +0.000 NA
ENDBRANCH  20  21
ENDBRANCH  10  20
TORSDOF 4
ENDMDL
