MODEL 1
REMARK VINA RESULT:      -7.3      0.000      0.000
REMARK  Name = 
REMARK  7 active torsions:
REMARK  status: ('A' for Active; 'I' for Inactive)
REMARK    1  A    between atoms: C_1  and  O_2
REMARK    2  A    between atoms: O_2  and  C_3
REMARK    3  A    between atoms: C_3  and  O_4
REMARK    4  A    between atoms: O_4  and  C_5
REMARK    5  A    between atoms: C_10  and  C_11
REMARK    6  A    between atoms: C_17  and  O_18
REMARK    7  A    between atoms: C_23  and  O_24
REMARK                            x       y       z     vdW  Elec       q    Type
REMARK                         _______ _______ _______ _____ _____    ______ ____
ROOT
ATOM      1  C   UNL     1       6.319   5.257  17.568  0.00  0.00    +0.000 C 
ATOM      2  C   UNL     1       5.165   6.026  18.160  0.00  0.00    +0.000 C 
ATOM      3  C   UNL     1       4.503   6.732  16.929  0.00  0.00    +0.000 C 
ATOM      4  O   UNL     1       3.704   7.655  17.053  0.00  0.00    +0.000 OA
ATOM      5  C   UNL     1       4.950   6.311  15.488  0.00  0.00    +0.000 C 
ATOM      6  C   UNL     1       5.492   5.055  15.312  0.00  0.00    +0.000 C 
ATOM      7  C   UNL     1       5.384   4.280  16.602  0.00  0.00    +0.000 C 
ATOM      8  O   UNL     1       5.166   3.116  17.382  0.00  0.00    +0.000 OA
ATOM      9  C   UNL     1       4.455   3.570  18.573  0.00  0.00    +0.000 A 
ATOM     10  C   UNL     1       3.773   2.627  19.340  0.00  0.00    +0.000 A 
ATOM     11  C   UNL     1       3.003   3.056  20.439  0.00  0.00    +0.000 A 
ATOM     12  C   UNL     1       2.916   4.416  20.762  0.00  0.00    +0.000 A 
ATOM     13  C   UNL     1       3.573   5.373  20.004  0.00  0.00    +0.000 A 
ATOM     14  C   UNL     1       4.350   4.975  18.917  0.00  0.00    +0.000 A 
ENDROOT
BRANCH   6  15
ATOM     15  C   UNL     1       6.152   4.652  14.055  0.00  0.00    +0.000 A 
ATOM     16  C   UNL     1       5.532   3.666  13.254  0.00  0.00    +0.000 A 
ATOM     17  C   UNL     1       6.090   3.211  12.062  0.00  0.00    +0.000 A 
ATOM     18  C   UNL     1       7.277   3.763  11.612  0.00  0.00    +0.000 A 
ATOM     19  C   UNL     1       7.870   4.799  12.336  0.00  0.00    +0.000 A 
ATOM     20  C   UNL     1       7.310   5.251  13.545  0.00  0.00    +0.000 A 
ENDBRANCH   6  15
BRANCH   1  22
ATOM     21  C   UNL     1       7.499   7.389  17.753  0.00  0.00    +0.000 C 
ATOM     22  O   UNL     1       7.201   6.244  16.969  0.00  0.00    +0.000 OA
ENDBRANCH   1  22
BRANCH   1  23
ATOM     23  O   UNL     1       7.117   4.467  18.482  0.00  0.00    +0.000 OA
ATOM     24  C   UNL     1       7.836   5.193  19.467  0.00  0.00    +0.000 C 
ENDBRANCH   1  23
BRANCH   7  25
ATOM     25  O   UNL     1       3.886   4.380  16.382  0.00  0.00    +0.000 OA
ATOM     26  H   UNL     1       3.724   3.774  15.634  0.00  0.00    +0.000 HD
ENDBRANCH   7  25
BRANCH  12  27
ATOM     27  O   UNL     1       2.197   4.861  21.833  0.00  0.00    +0.000 OA
ATOM     28  H   UNL     1       2.615   5.662  22.191  0.00  0.00    +0.000 HD
ENDBRANCH  12  27
TORSDOF 5
ENDMDL
MODEL 2
REMARK VINA RESULT:      -6.9      8.566     11.665
REMARK  Name = 
REMARK  7 active torsions:
REMARK  status: ('A' for Active; 'I' for Inactive)
REMARK    1  A    between atoms: C_1  and  O_2
REMARK    2  A    between atoms: O_2  and  C_3
REMARK    3  A    between atoms: C_3  and  O_4
REMARK    4  A    between atoms: O_4  and  C_5
REMARK    5  A    between atoms: C_10  and  C_11
REMARK    6  A    between atoms: C_17  and  O_18
REMARK    7  A    between atoms: C_23  and  O_24
REMARK                            x       y       z     vdW  Elec       q    Type
REMARK                         _______ _______ _______ _____ _____    ______ ____
ROOT
ATOM      1  C   UNL     1      -0.388  12.273  20.402  0.00  0.00    +0.000 C 
ATOM      2  C   UNL     1       0.724  11.772  19.516  0.00  0.00    +0.000 C 
ATOM      3  C   UNL     1       0.009  10.815  18.505  0.00  0.00    +0.000 C 
ATOM      4  O   UNL     1       0.627  10.016  17.807  0.00  0.00    +0.000 OA
ATOM      5  C   UNL     1      -1.557  10.805  18.455  0.00  0.00    +0.000 C 
ATOM      6  C   UNL     1      -2.232  11.927  18.886  0.00  0.00    +0.000 C 
ATOM      7  C   UNL     1      -1.239  13.022  19.186  0.00  0.00    +0.000 C 
ATOM      8  O   UNL     1      -0.780  14.364  19.209  0.00  0.00    +0.000 OA
ATOM      9  C   UNL     1       0.651  14.294  18.930  0.00  0.00    +0.000 A 
ATOM     10  C   UNL     1       1.304  15.453  18.513  0.00  0.00    +0.000 A 
ATOM     11  C   UNL     1       2.664  15.386  18.149  0.00  0.00    +0.000 A 
ATOM     12  C   UNL     1       3.357  14.172  18.197  0.00  0.00    +0.000 A 
ATOM     13  C   UNL     1       2.724  13.003  18.592  0.00  0.00    +0.000 A 
ATOM     14  C   UNL     1       1.382  13.042  18.969  0.00  0.00    +0.000 A 
ENDROOT
BRANCH   6  15
ATOM     15  C   UNL     1      -3.693  11.934  19.097  0.00  0.00    +0.000 A 
ATOM     16  C   UNL     1      -4.508  11.215  18.192  0.00  0.00    +0.000 A 
ATOM     17  C   UNL     1      -5.896  11.180  18.302  0.00  0.00    +0.000 A 
ATOM     18  C   UNL     1      -6.512  11.837  19.353  0.00  0.00    +0.000 A 
ATOM     19  C   UNL     1      -5.731  12.483  20.311  0.00  0.00    +0.000 A 
ATOM     20  C   UNL     1      -4.329  12.527  20.194  0.00  0.00    +0.000 A 
ENDBRANCH   6  15
BRANCH   1  22
ATOM     21  C   UNL     1      -0.051  10.352  21.874  0.00  0.00    +0.000 C 
ATOM     22  O   UNL     1      -0.941  11.103  21.062  0.00  0.00    +0.000 OA
ENDBRANCH   1  22
BRANCH   1  23
ATOM     23  O   UNL     1      -0.027  13.219  21.436  0.00  0.00    +0.000 OA
ATOM     24  C   UNL     1      -1.048  13.544  22.366  0.00  0.00    +0.000 C 
ENDBRANCH   1  23
BRANCH   7  25
ATOM     25  O   UNL     1      -0.938  12.974  17.699  0.00  0.00    +0.000 OA
ATOM     26  H   UNL     1      -0.372  12.185  17.606  0.00  0.00    +0.000 HD
ENDBRANCH   7  25
BRANCH  12  27
ATOM     27  O   UNL     1       4.679  14.078  17.871  0.00  0.00    +0.000 OA
ATOM     28  H   UNL     1       4.958  14.893  17.422  0.00  0.00    +0.000 HD
ENDBRANCH  12  27
TORSDOF 5
ENDMDL
MODEL 3
REMARK VINA RESULT:      -6.8      6.734      8.793
REMARK  Name = 
REMARK  7 active torsions:
REMARK  status: ('A' for Active; 'I' for Inactive)
REMARK    1  A    between atoms: C_1  and  O_2
REMARK    2  A    between atoms: O_2  and  C_3
REMARK    3  A    between atoms: C_3  and  O_4
REMARK    4  A    between atoms: O_4  and  C_5
REMARK    5  A    between atoms: C_10  and  C_11
REMARK    6  A    between atoms: C_17  and  O_18
REMARK    7  A    between atoms: C_23  and  O_24
REMARK                            x       y       z     vdW  Elec       q    Type
REMARK                         _______ _______ _______ _____ _____    ______ ____
ROOT
ATOM      1  C   UNL     1       1.055  11.683  19.967  0.00  0.00    +0.000 C 
ATOM      2  C   UNL     1      -0.316  12.183  19.588  0.00  0.00    +0.000 C 
ATOM      3  C   UNL     1      -0.743  11.266  18.393  0.00  0.00    +0.000 C 
ATOM      4  O   UNL     1      -1.679  11.547  17.651  0.00  0.00    +0.000 OA
ATOM      5  C   UNL     1       0.117   9.997  18.072  0.00  0.00    +0.000 C 
ATOM      6  C   UNL     1       0.873   9.446  19.086  0.00  0.00    +0.000 C 
ATOM      7  C   UNL     1       0.560  10.152  20.382  0.00  0.00    +0.000 C 
ATOM      8  O   UNL     1       0.331  10.221  21.779  0.00  0.00    +0.000 OA
ATOM      9  C   UNL     1      -0.721  11.216  21.956  0.00  0.00    +0.000 A 
ATOM     10  C   UNL     1      -1.423  11.235  23.160  0.00  0.00    +0.000 A 
ATOM     11  C   UNL     1      -2.505  12.124  23.316  0.00  0.00    +0.000 A 
ATOM     12  C   UNL     1      -2.880  12.981  22.274  0.00  0.00    +0.000 A 
ATOM     13  C   UNL     1      -2.207  12.969  21.062  0.00  0.00    +0.000 A 
ATOM     14  C   UNL     1      -1.126  12.106  20.884  0.00  0.00    +0.000 A 
ENDROOT
BRANCH   6  15
ATOM     15  C   UNL     1       1.887   8.402  18.834  0.00  0.00    +0.000 A 
ATOM     16  C   UNL     1       2.001   7.337  19.756  0.00  0.00    +0.000 A 
ATOM     17  C   UNL     1       2.940   6.319  19.610  0.00  0.00    +0.000 A 
ATOM     18  C   UNL     1       3.773   6.316  18.505  0.00  0.00    +0.000 A 
ATOM     19  C   UNL     1       3.627   7.305  17.532  0.00  0.00    +0.000 A 
ATOM     20  C   UNL     1       2.685   8.340  17.686  0.00  0.00    +0.000 A 
ENDBRANCH   6  15
BRANCH   1  22
ATOM     21  C   UNL     1       1.912  13.190  18.245  0.00  0.00    +0.000 C 
ATOM     22  O   UNL     1       1.898  11.884  18.801  0.00  0.00    +0.000 OA
ENDBRANCH   1  22
BRANCH   1  23
ATOM     23  O   UNL     1       1.704  12.336  21.084  0.00  0.00    +0.000 OA
ATOM     24  C   UNL     1       1.713  13.754  21.056  0.00  0.00    +0.000 C 
ENDBRANCH   1  23
BRANCH   7  25
ATOM     25  O   UNL     1      -0.829   9.565  20.212  0.00  0.00    +0.000 OA
ATOM     26  H   UNL     1      -0.929   8.984  20.989  0.00  0.00    +0.000 HD
ENDBRANCH   7  25
BRANCH  12  27
ATOM     27  O   UNL     1      -3.909  13.869  22.401  0.00  0.00    +0.000 OA
ATOM     28  H   UNL     1      -3.550  14.751  22.596  0.00  0.00    +0.000 HD
ENDBRANCH  12  27
TORSDOF 5
ENDMDL
MODEL 4
REMARK VINA RESULT:      -6.6      1.794      3.577
REMARK  Name = 
REMARK  7 active torsions:
REMARK  status: ('A' for Active; 'I' for Inactive)
REMARK    1  A    between atoms: C_1  and  O_2
REMARK    2  A    between atoms: O_2  and  C_3
REMARK    3  A    between atoms: C_3  and  O_4
REMARK    4  A    between atoms: O_4  and  C_5
REMARK    5  A    between atoms: C_10  and  C_11
REMARK    6  A    between atoms: C_17  and  O_18
REMARK    7  A    between atoms: C_23  and  O_24
REMARK                            x       y       z     vdW  Elec       q    Type
REMARK                         _______ _______ _______ _____ _____    ______ ____
ROOT
ATOM      1  C   UNL     1       3.546   4.435  17.501  0.00  0.00    +0.000 C 
ATOM      2  C   UNL     1       3.883   4.863  18.907  0.00  0.00    +0.000 C 
ATOM      3  C   UNL     1       5.447   4.873  18.942  0.00  0.00    +0.000 C 
ATOM      4  O   UNL     1       6.081   4.909  19.993  0.00  0.00    +0.000 OA
ATOM      5  C   UNL     1       6.233   4.732  17.594  0.00  0.00    +0.000 C 
ATOM      6  C   UNL     1       5.600   5.104  16.426  0.00  0.00    +0.000 C 
ATOM      7  C   UNL     1       4.270   5.735  16.759  0.00  0.00    +0.000 C 
ATOM      8  O   UNL     1       3.223   6.676  16.593  0.00  0.00    +0.000 OA
ATOM      9  C   UNL     1       2.759   6.988  17.942  0.00  0.00    +0.000 A 
ATOM     10  C   UNL     1       2.008   8.146  18.135  0.00  0.00    +0.000 A 
ATOM     11  C   UNL     1       1.631   8.515  19.442  0.00  0.00    +0.000 A 
ATOM     12  C   UNL     1       2.008   7.734  20.541  0.00  0.00    +0.000 A 
ATOM     13  C   UNL     1       2.768   6.587  20.374  0.00  0.00    +0.000 A 
ATOM     14  C   UNL     1       3.146   6.192  19.091  0.00  0.00    +0.000 A 
ENDROOT
BRANCH   6  15
ATOM     15  C   UNL     1       6.159   4.795  15.095  0.00  0.00    +0.000 A 
ATOM     16  C   UNL     1       5.417   3.957  14.231  0.00  0.00    +0.000 A 
ATOM     17  C   UNL     1       5.875   3.598  12.965  0.00  0.00    +0.000 A 
ATOM     18  C   UNL     1       7.079   4.104  12.508  0.00  0.00    +0.000 A 
ATOM     19  C   UNL     1       7.793   5.002  13.302  0.00  0.00    +0.000 A 
ATOM     20  C   UNL     1       7.335   5.356  14.586  0.00  0.00    +0.000 A 
ENDBRANCH   6  15
BRANCH   1  22
ATOM     21  C   UNL     1       3.694   2.125  18.283  0.00  0.00    +0.000 C 
ATOM     22  O   UNL     1       4.102   3.103  17.337  0.00  0.00    +0.000 OA
ENDBRANCH   1  22
BRANCH   1  23
ATOM     23  O   UNL     1       2.142   4.361  17.156  0.00  0.00    +0.000 OA
ATOM     24  C   UNL     1       1.306   3.705  18.096  0.00  0.00    +0.000 C 
ENDBRANCH   1  23
BRANCH   7  25
ATOM     25  O   UNL     1       5.101   6.818  17.422  0.00  0.00    +0.000 OA
ATOM     26  H   UNL     1       5.168   6.519  18.349  0.00  0.00    +0.000 HD
ENDBRANCH   7  25
BRANCH  12  27
ATOM     27  O   UNL     1       1.640   8.053  21.816  0.00  0.00    +0.000 OA
ATOM     28  H   UNL     1       1.116   7.325  22.191  0.00  0.00    +0.000 HD
ENDBRANCH  12  27
TORSDOF 5
ENDMDL
MODEL 5
REMARK VINA RESULT:      -6.6      7.439     10.927
REMARK  Name = 
REMARK  7 active torsions:
REMARK  status: ('A' for Active; 'I' for Inactive)
REMARK    1  A    between atoms: C_1  and  O_2
REMARK    2  A    between atoms: O_2  and  C_3
REMARK    3  A    between atoms: C_3  and  O_4
REMARK    4  A    between atoms: O_4  and  C_5
REMARK    5  A    between atoms: C_10  and  C_11
REMARK    6  A    between atoms: C_17  and  O_18
REMARK    7  A    between atoms: C_23  and  O_24
REMARK                            x       y       z     vdW  Elec       q    Type
REMARK                         _______ _______ _______ _____ _____    ______ ____
ROOT
ATOM      1  C   UNL     1      -0.933  11.129  19.464  0.00  0.00    +0.000 C 
ATOM      2  C   UNL     1       0.402  11.246  18.773  0.00  0.00    +0.000 C 
ATOM      3  C   UNL     1       1.033  12.548  19.370  0.00  0.00    +0.000 C 
ATOM      4  O   UNL     1       1.994  13.110  18.854  0.00  0.00    +0.000 OA
ATOM      5  C   UNL     1       0.352  13.213  20.615  0.00  0.00    +0.000 C 
ATOM      6  C   UNL     1      -0.424  12.422  21.436  0.00  0.00    +0.000 C 
ATOM      7  C   UNL     1      -0.308  10.983  20.997  0.00  0.00    +0.000 C 
ATOM      8  O   UNL     1      -0.213   9.584  21.208  0.00  0.00    +0.000 OA
ATOM      9  C   UNL     1       0.702   9.094  20.182  0.00  0.00    +0.000 A 
ATOM     10  C   UNL     1       1.288   7.841  20.357  0.00  0.00    +0.000 A 
ATOM     11  C   UNL     1       2.245   7.390  19.427  0.00  0.00    +0.000 A 
ATOM     12  C   UNL     1       2.613   8.188  18.338  0.00  0.00    +0.000 A 
ATOM     13  C   UNL     1       2.056   9.444  18.151  0.00  0.00    +0.000 A 
ATOM     14  C   UNL     1       1.098   9.911  19.051  0.00  0.00    +0.000 A 
ENDROOT
BRANCH   6  15
ATOM     15  C   UNL     1      -1.288  12.991  22.489  0.00  0.00    +0.000 A 
ATOM     16  C   UNL     1      -2.436  12.264  22.884  0.00  0.00    +0.000 A 
ATOM     17  C   UNL     1      -3.318  12.732  23.856  0.00  0.00    +0.000 A 
ATOM     18  C   UNL     1      -3.054  13.931  24.494  0.00  0.00    +0.000 A 
ATOM     19  C   UNL     1      -1.884  14.629  24.189  0.00  0.00    +0.000 A 
ATOM     20  C   UNL     1      -0.999  14.161  23.199  0.00  0.00    +0.000 A 
ENDBRANCH   6  15
BRANCH   1  22
ATOM     21  C   UNL     1      -3.087  12.272  19.319  0.00  0.00    +0.000 C 
ATOM     22  O   UNL     1      -1.686  12.316  19.096  0.00  0.00    +0.000 OA
ENDBRANCH   1  22
BRANCH   1  23
ATOM     23  O   UNL     1      -1.747   9.981  19.127  0.00  0.00    +0.000 OA
ATOM     24  C   UNL     1      -2.047   9.814  17.750  0.00  0.00    +0.000 C 
ENDBRANCH   1  23
BRANCH   7  25
ATOM     25  O   UNL     1       1.148  11.115  21.406  0.00  0.00    +0.000 OA
ATOM     26  H   UNL     1       1.162  10.765  22.317  0.00  0.00    +0.000 HD
ENDBRANCH   7  25
BRANCH  12  27
ATOM     27  O   UNL     1       3.521   7.771  17.407  0.00  0.00    +0.000 OA
ATOM     28  H   UNL     1       3.514   6.800  17.364  0.00  0.00    +0.000 HD
ENDBRANCH  12  27
TORSDOF 5
ENDMDL
MODEL 6
REMARK VINA RESULT:      -6.6      7.495      9.644
REMARK  Name = 
REMARK  7 active torsions:
REMARK  status: ('A' for Active; 'I' for Inactive)
REMARK    1  A    between atoms: C_1  and  O_2
REMARK    2  A    between atoms: O_2  and  C_3
REMARK    3  A    between atoms: C_3  and  O_4
REMARK    4  A    between atoms: O_4  and  C_5
REMARK    5  A    between atoms: C_10  and  C_11
REMARK    6  A    between atoms: C_17  and  O_18
REMARK    7  A    between atoms: C_23  and  O_24
REMARK                            x       y       z     vdW  Elec       q    Type
REMARK                         _______ _______ _______ _____ _____    ______ ____
ROOT
ATOM      1  C   UNL     1       0.587  12.503  19.557  0.00  0.00    +0.000 C 
ATOM      2  C   UNL     1      -0.848  12.918  19.355  0.00  0.00    +0.000 C 
ATOM      3  C   UNL     1      -1.464  11.766  18.493  0.00  0.00    +0.000 C 
ATOM      4  O   UNL     1      -2.535  11.885  17.905  0.00  0.00    +0.000 OA
ATOM      5  C   UNL     1      -0.637  10.451  18.291  0.00  0.00    +0.000 C 
ATOM      6  C   UNL     1       0.319  10.128  19.232  0.00  0.00    +0.000 C 
ATOM      7  C   UNL     1       0.236  11.103  20.381  0.00  0.00    +0.000 C 
ATOM      8  O   UNL     1       0.278  11.477  21.748  0.00  0.00    +0.000 OA
ATOM      9  C   UNL     1      -0.755  12.495  21.908  0.00  0.00    +0.000 A 
ATOM     10  C   UNL     1      -1.212  12.781  23.193  0.00  0.00    +0.000 A 
ATOM     11  C   UNL     1      -2.274  13.691  23.362  0.00  0.00    +0.000 A 
ATOM     12  C   UNL     1      -2.873  14.303  22.255  0.00  0.00    +0.000 A 
ATOM     13  C   UNL     1      -2.446  14.021  20.966  0.00  0.00    +0.000 A 
ATOM     14  C   UNL     1      -1.390  13.132  20.770  0.00  0.00    +0.000 A 
ENDROOT
BRANCH   6  15
ATOM     15  C   UNL     1       1.301   9.047  19.017  0.00  0.00    +0.000 A 
ATOM     16  C   UNL     1       1.467   8.077  20.032  0.00  0.00    +0.000 A 
ATOM     17  C   UNL     1       2.383   7.033  19.924  0.00  0.00    +0.000 A 
ATOM     18  C   UNL     1       3.137   6.905  18.771  0.00  0.00    +0.000 A 
ATOM     19  C   UNL     1       2.935   7.797  17.716  0.00  0.00    +0.000 A 
ATOM     20  C   UNL     1       2.017   8.858  17.830  0.00  0.00    +0.000 A 
ENDBRANCH   6  15
BRANCH   1  22
ATOM     21  C   UNL     1       2.598  12.516  18.169  0.00  0.00    +0.000 C 
ATOM     22  O   UNL     1       1.182  12.438  18.233  0.00  0.00    +0.000 OA
ENDBRANCH   1  22
BRANCH   1  23
ATOM     23  O   UNL     1       1.416  13.378  20.358  0.00  0.00    +0.000 OA
ATOM     24  C   UNL     1       1.374  14.756  20.019  0.00  0.00    +0.000 C 
ENDBRANCH   1  23
BRANCH   7  25
ATOM     25  O   UNL     1      -1.138  10.503  20.616  0.00  0.00    +0.000 OA
ATOM     26  H   UNL     1      -1.245   9.877  19.875  0.00  0.00    +0.000 HD
ENDBRANCH   7  25
BRANCH  12  27
ATOM     27  O   UNL     1      -3.889  15.205  22.386  0.00  0.00    +0.000 OA
ATOM     28  H   UNL     1      -3.778  15.695  23.217  0.00  0.00    +0.000 HD
ENDBRANCH  12  27
TORSDOF 5
ENDMDL
MODEL 7
REMARK VINA RESULT:      -6.5      8.684     11.150
REMARK  Name = 
REMARK  7 active torsions:
REMARK  status: ('A' for Active; 'I' for Inactive)
REMARK    1  A    between atoms: C_1  and  O_2
REMARK    2  A    between atoms: O_2  and  C_3
REMARK    3  A    between atoms: C_3  and  O_4
REMARK    4  A    between atoms: O_4  and  C_5
REMARK    5  A    between atoms: C_10  and  C_11
REMARK    6  A    between atoms: C_17  and  O_18
REMARK    7  A    between atoms: C_23  and  O_24
REMARK                            x       y       z     vdW  Elec       q    Type
REMARK                         _______ _______ _______ _____ _____    ______ ____
ROOT
ATOM      1  C   UNL     1      -0.931  11.825  20.340  0.00  0.00    +0.000 C 
ATOM      2  C   UNL     1      -2.320  12.410  20.291  0.00  0.00    +0.000 C 
ATOM      3  C   UNL     1      -2.101  13.942  20.522  0.00  0.00    +0.000 C 
ATOM      4  O   UNL     1      -3.020  14.701  20.816  0.00  0.00    +0.000 OA
ATOM      5  C   UNL     1      -0.642  14.511  20.474  0.00  0.00    +0.000 C 
ATOM      6  C   UNL     1       0.310  13.811  19.762  0.00  0.00    +0.000 C 
ATOM      7  C   UNL     1      -0.354  12.670  19.031  0.00  0.00    +0.000 C 
ATOM      8  O   UNL     1      -0.552  11.797  17.931  0.00  0.00    +0.000 OA
ATOM      9  C   UNL     1      -1.992  11.573  17.862  0.00  0.00    +0.000 A 
ATOM     10  C   UNL     1      -2.532  11.075  16.677  0.00  0.00    +0.000 A 
ATOM     11  C   UNL     1      -3.929  10.940  16.557  0.00  0.00    +0.000 A 
ATOM     12  C   UNL     1      -4.775  11.307  17.610  0.00  0.00    +0.000 A 
ATOM     13  C   UNL     1      -4.262  11.821  18.792  0.00  0.00    +0.000 A 
ATOM     14  C   UNL     1      -2.883  11.954  18.942  0.00  0.00    +0.000 A 
ENDROOT
BRANCH   6  15
ATOM     15  C   UNL     1       1.749  14.131  19.846  0.00  0.00    +0.000 A 
ATOM     16  C   UNL     1       2.445  14.418  18.649  0.00  0.00    +0.000 A 
ATOM     17  C   UNL     1       3.806  14.713  18.630  0.00  0.00    +0.000 A 
ATOM     18  C   UNL     1       4.508  14.767  19.821  0.00  0.00    +0.000 A 
ATOM     19  C   UNL     1       3.831  14.573  21.026  0.00  0.00    +0.000 A 
ATOM     20  C   UNL     1       2.458  14.266  21.045  0.00  0.00    +0.000 A 
ENDBRANCH   6  15
BRANCH   1  22
ATOM     21  C   UNL     1      -1.132  11.539  22.758  0.00  0.00    +0.000 C 
ATOM     22  O   UNL     1      -0.418  12.106  21.670  0.00  0.00    +0.000 OA
ENDBRANCH   1  22
BRANCH   1  23
ATOM     23  O   UNL     1      -0.813  10.398  20.126  0.00  0.00    +0.000 OA
ATOM     24  C   UNL     1       0.491   9.856  20.261  0.00  0.00    +0.000 C 
ENDBRANCH   1  23
BRANCH   7  25
ATOM     25  O   UNL     1      -1.075  13.760  18.259  0.00  0.00    +0.000 OA
ATOM     26  H   UNL     1      -0.720  13.673  17.354  0.00  0.00    +0.000 HD
ENDBRANCH   7  25
BRANCH  12  27
ATOM     27  O   UNL     1      -6.131  11.169  17.533  0.00  0.00    +0.000 OA
ATOM     28  H   UNL     1      -6.349  10.514  16.849  0.00  0.00    +0.000 HD
ENDBRANCH  12  27
TORSDOF 5
ENDMDL
MODEL 8
REMARK VINA RESULT:      -6.4      9.626     11.863
REMARK  Name = 
REMARK  7 active torsions:
REMARK  status: ('A' for Active; 'I' for Inactive)
REMARK    1  A    between atoms: C_1  and  O_2
REMARK    2  A    between atoms: O_2  and  C_3
REMARK    3  A    between atoms: C_3  and  O_4
REMARK    4  A    between atoms: O_4  and  C_5
REMARK    5  A    between atoms: C_10  and  C_11
REMARK    6  A    between atoms: C_17  and  O_18
REMARK    7  A    between atoms: C_23  and  O_24
REMARK                            x       y       z     vdW  Elec       q    Type
REMARK                         _______ _______ _______ _____ _____    ______ ____
ROOT
ATOM      1  C   UNL     1      -0.541  12.450  21.845  0.00  0.00    +0.000 C 
ATOM      2  C   UNL     1      -0.373  13.920  22.137  0.00  0.00    +0.000 C 
ATOM      3  C   UNL     1      -0.595  14.615  20.752  0.00  0.00    +0.000 C 
ATOM      4  O   UNL     1      -0.272  15.780  20.543  0.00  0.00    +0.000 OA
ATOM      5  C   UNL     1      -1.159  13.764  19.564  0.00  0.00    +0.000 C 
ATOM      6  C   UNL     1      -1.896  12.636  19.859  0.00  0.00    +0.000 C 
ATOM      7  C   UNL     1      -2.123  12.564  21.348  0.00  0.00    +0.000 C 
ATOM      8  O   UNL     1      -2.880  12.295  22.516  0.00  0.00    +0.000 OA
ATOM      9  C   UNL     1      -2.516  13.338  23.469  0.00  0.00    +0.000 A 
ATOM     10  C   UNL     1      -3.358  13.570  24.556  0.00  0.00    +0.000 A 
ATOM     11  C   UNL     1      -3.076  14.634  25.435  0.00  0.00    +0.000 A 
ATOM     12  C   UNL     1      -1.965  15.459  25.223  0.00  0.00    +0.000 A 
ATOM     13  C   UNL     1      -1.123  15.258  24.140  0.00  0.00    +0.000 A 
ATOM     14  C   UNL     1      -1.373  14.206  23.260  0.00  0.00    +0.000 A 
ENDROOT
BRANCH   6  15
ATOM     15  C   UNL     1      -2.269  11.648  18.827  0.00  0.00    +0.000 A 
ATOM     16  C   UNL     1      -3.623  11.574  18.424  0.00  0.00    +0.000 A 
ATOM     17  C   UNL     1      -4.070  10.662  17.472  0.00  0.00    +0.000 A 
ATOM     18  C   UNL     1      -3.161   9.816  16.860  0.00  0.00    +0.000 A 
ATOM     19  C   UNL     1      -1.805   9.924  17.172  0.00  0.00    +0.000 A 
ATOM     20  C   UNL     1      -1.355  10.839  18.142  0.00  0.00    +0.000 A 
ENDBRANCH   6  15
BRANCH   1  22
ATOM     21  C   UNL     1       1.789  12.642  21.134  0.00  0.00    +0.000 C 
ATOM     22  O   UNL     1       0.498  12.104  20.890  0.00  0.00    +0.000 OA
ENDBRANCH   1  22
BRANCH   1  23
ATOM     23  O   UNL     1      -0.416  11.541  22.965  0.00  0.00    +0.000 OA
ATOM     24  C   UNL     1      -0.417  10.158  22.646  0.00  0.00    +0.000 C 
ENDBRANCH   1  23
BRANCH   7  25
ATOM     25  O   UNL     1      -2.928  13.835  21.153  0.00  0.00    +0.000 OA
ATOM     26  H   UNL     1      -3.587  13.587  20.477  0.00  0.00    +0.000 HD
ENDBRANCH   7  25
BRANCH  12  27
ATOM     27  O   UNL     1      -1.652  16.484  26.068  0.00  0.00    +0.000 OA
ATOM     28  H   UNL     1      -2.311  17.191  25.973  0.00  0.00    +0.000 HD
ENDBRANCH  12  27
TORSDOF 5
ENDMDL
MODEL 9
REMARK VINA RESULT:      -6.2      9.237     11.659
REMARK  Name = 
REMARK  7 active torsions:
REMARK  status: ('A' for Active; 'I' for Inactive)
REMARK    1  A    between atoms: C_1  and  O_2
REMARK    2  A    between atoms: O_2  and  C_3
REMARK    3  A    between atoms: C_3  and  O_4
REMARK    4  A    between atoms: O_4  and  C_5
REMARK    5  A    between atoms: C_10  and  C_11
REMARK    6  A    between atoms: C_17  and  O_18
REMARK    7  A    between atoms: C_23  and  O_24
REMARK                            x       y       z     vdW  Elec       q    Type
REMARK                         _______ _______ _______ _____ _____    ______ ____
ROOT
ATOM      1  C   UNL     1      -0.775  13.345  20.772  0.00  0.00    +0.000 C 
ATOM      2  C   UNL     1       0.584  12.722  20.967  0.00  0.00    +0.000 C 
ATOM      3  C   UNL     1       0.423  11.268  20.412  0.00  0.00    +0.000 C 
ATOM      4  O   UNL     1       1.238  10.381  20.648  0.00  0.00    +0.000 OA
ATOM      5  C   UNL     1      -0.872  10.906  19.609  0.00  0.00    +0.000 C 
ATOM      6  C   UNL     1      -1.564  11.926  18.989  0.00  0.00    +0.000 C 
ATOM      7  C   UNL     1      -0.780  13.209  19.116  0.00  0.00    +0.000 C 
ATOM      8  O   UNL     1      -0.278  14.453  18.657  0.00  0.00    +0.000 OA
ATOM      9  C   UNL     1       1.070  14.558  19.206  0.00  0.00    +0.000 A 
ATOM     10  C   UNL     1       1.951  15.475  18.633  0.00  0.00    +0.000 A 
ATOM     11  C   UNL     1       3.284  15.526  19.086  0.00  0.00    +0.000 A 
ATOM     12  C   UNL     1       3.729  14.666  20.096  0.00  0.00    +0.000 A 
ATOM     13  C   UNL     1       2.876  13.735  20.669  0.00  0.00    +0.000 A 
ATOM     14  C   UNL     1       1.548  13.670  20.248  0.00  0.00    +0.000 A 
ENDROOT
BRANCH   6  15
ATOM     15  C   UNL     1      -2.908  11.727  18.411  0.00  0.00    +0.000 A 
ATOM     16  C   UNL     1      -4.034  12.099  19.181  0.00  0.00    +0.000 A 
ATOM     17  C   UNL     1      -5.339  11.931  18.725  0.00  0.00    +0.000 A 
ATOM     18  C   UNL     1      -5.557  11.419  17.458  0.00  0.00    +0.000 A 
ATOM     19  C   UNL     1      -4.465  11.124  16.640  0.00  0.00    +0.000 A 
ATOM     20  C   UNL     1      -3.146  11.284  17.105  0.00  0.00    +0.000 A 
ENDBRANCH   6  15
BRANCH   1  22
ATOM     21  C   UNL     1      -1.427  12.474  22.960  0.00  0.00    +0.000 C 
ATOM     22  O   UNL     1      -1.701  12.559  21.570  0.00  0.00    +0.000 OA
ENDBRANCH   1  22
BRANCH   1  23
ATOM     23  O   UNL     1      -0.927  14.727  21.176  0.00  0.00    +0.000 OA
ATOM     24  C   UNL     1      -2.240  15.259  21.091  0.00  0.00    +0.000 C 
ENDBRANCH   1  23
BRANCH   7  25
ATOM     25  O   UNL     1       0.254  12.506  18.255  0.00  0.00    +0.000 OA
ATOM     26  H   UNL     1       0.499  11.723  18.785  0.00  0.00    +0.000 HD
ENDBRANCH   7  25
BRANCH  12  27
ATOM     27  O   UNL     1       5.008  14.706  20.570  0.00  0.00    +0.000 OA
ATOM     28  H   UNL     1       5.032  14.323  21.463  0.00  0.00    +0.000 HD
ENDBRANCH  12  27
TORSDOF 5
ENDMDL
