MODEL 1
REMARK VINA RESULT:      -5.4      0.000      0.000
REMARK  Name = 
REMARK  10 active torsions:
REMARK  status: ('A' for Active; 'I' for Inactive)
REMARK    1  A    between atoms: C_1  and  C_2
REMARK    2  A    between atoms: C_2  and  N_3
REMARK    3  A    between atoms: N_3  and  C_4
REMARK    4  A    between atoms: N_3  and  N_6
REMARK    5  A    between atoms: C_4  and  C_5
REMARK    6  A    between atoms: N_8  and  O_9
REMARK    7  A    between atoms: O_9  and  C_10
REMARK    8  A    between atoms: C_10  and  O_11
REMARK    9  A    between atoms: O_11  and  C_12
REMARK   10  A    between atoms: C_12  and  C_13
REMARK                            x       y       z     vdW  Elec       q    Type
REMARK                         _______ _______ _______ _____ _____    ______ ____
ROOT
ATOM      1  N   UNL     1       4.384   3.205  19.437  0.00  0.00    +0.000 N 
ATOM      2  O   UNL     1       5.018   2.272  20.030  0.00  0.00    +0.000 OA
ATOM      3  N   UNL     1       4.919   4.269  18.969  0.00  0.00    +0.000 NA
ENDROOT
BRANCH   1   4
ATOM      4  N   UNL     1       2.987   3.042  19.276  0.00  0.00    +0.000 N 
BRANCH   4   6
ATOM      5  C   UNL     1       2.075   3.850  21.443  0.00  0.00    +0.000 C 
ATOM      6  C   UNL     1       2.191   2.702  20.453  0.00  0.00    +0.000 C 
ENDBRANCH   4   6
BRANCH   4   7
ATOM      7  C   UNL     1       2.435   3.116  17.925  0.00  0.00    +0.000 C 
ATOM      8  C   UNL     1       1.548   4.306  17.593  0.00  0.00    +0.000 C 
ENDBRANCH   4   7
ENDBRANCH   1   4
BRANCH   3   9
ATOM      9  O   UNL     1       6.315   4.232  19.186  0.00  0.00    +0.000 OA
BRANCH   9  10
ATOM     10  C   UNL     1       6.817   5.568  19.182  0.00  0.00    +0.000 C 
BRANCH  10  11
ATOM     11  O   UNL     1       6.286   6.286  18.063  0.00  0.00    +0.000 OA
BRANCH  11  12
ATOM     12  C   UNL     1       7.192   6.745  17.167  0.00  0.00    +0.000 C 
ATOM     13  C   UNL     1       7.793   8.038  17.635  0.00  0.00    +0.000 C 
ATOM     14  O   UNL     1       7.489   6.208  16.109  0.00  0.00    +0.000 OA
ENDBRANCH  11  12
ENDBRANCH  10  11
ENDBRANCH   9  10
ENDBRANCH   3   9
TORSDOF 7
ENDMDL
MODEL 2
REMARK VINA RESULT:      -5.3      1.909      2.428
REMARK  Name = 
REMARK  10 active torsions:
REMARK  status: ('A' for Active; 'I' for Inactive)
REMARK    1  A    between atoms: C_1  and  C_2
REMARK    2  A    between atoms: C_2  and  N_3
REMARK    3  A    between atoms: N_3  and  C_4
REMARK    4  A    between atoms: N_3  and  N_6
REMARK    5  A    between atoms: C_4  and  C_5
REMARK    6  A    between atoms: N_8  and  O_9
REMARK    7  A    between atoms: O_9  and  C_10
REMARK    8  A    between atoms: C_10  and  O_11
REMARK    9  A    between atoms: O_11  and  C_12
REMARK   10  A    between atoms: C_12  and  C_13
REMARK                            x       y       z     vdW  Elec       q    Type
REMARK                         _______ _______ _______ _____ _____    ______ ____
ROOT
ATOM      1  N   UNL     1       4.683   4.585  19.195  0.00  0.00    +0.000 N 
ATOM      2  O   UNL     1       4.459   5.834  19.067  0.00  0.00    +0.000 OA
ATOM      3  N   UNL     1       5.841   4.042  19.153  0.00  0.00    +0.000 NA
ENDROOT
BRANCH   1   4
ATOM      4  N   UNL     1       3.565   3.744  19.410  0.00  0.00    +0.000 N 
BRANCH   4   6
ATOM      5  C   UNL     1       3.420   1.493  18.364  0.00  0.00    +0.000 C 
ATOM      6  C   UNL     1       3.801   2.313  19.586  0.00  0.00    +0.000 C 
ENDBRANCH   4   6
BRANCH   4   7
ATOM      7  C   UNL     1       2.231   4.337  19.338  0.00  0.00    +0.000 C 
ATOM      8  C   UNL     1       1.473   4.523  20.643  0.00  0.00    +0.000 C 
ENDBRANCH   4   7
ENDBRANCH   1   4
BRANCH   3   9
ATOM      9  O   UNL     1       6.825   5.039  18.974  0.00  0.00    +0.000 OA
BRANCH   9  10
ATOM     10  C   UNL     1       7.642   4.684  17.859  0.00  0.00    +0.000 C 
BRANCH  10  11
ATOM     11  O   UNL     1       6.819   4.296  16.753  0.00  0.00    +0.000 OA
BRANCH  11  12
ATOM     12  C   UNL     1       6.760   5.170  15.720  0.00  0.00    +0.000 C 
ATOM     13  C   UNL     1       5.408   5.815  15.645  0.00  0.00    +0.000 C 
ATOM     14  O   UNL     1       7.666   5.410  14.933  0.00  0.00    +0.000 OA
ENDBRANCH  11  12
ENDBRANCH  10  11
ENDBRANCH   9  10
ENDBRANCH   3   9
TORSDOF 7
ENDMDL
MODEL 3
REMARK VINA RESULT:      -5.3      1.979      5.668
REMARK  Name = 
REMARK  10 active torsions:
REMARK  status: ('A' for Active; 'I' for Inactive)
REMARK    1  A    between atoms: C_1  and  C_2
REMARK    2  A    between atoms: C_2  and  N_3
REMARK    3  A    between atoms: N_3  and  C_4
REMARK    4  A    between atoms: N_3  and  N_6
REMARK    5  A    between atoms: C_4  and  C_5
REMARK    6  A    between atoms: N_8  and  O_9
REMARK    7  A    between atoms: O_9  and  C_10
REMARK    8  A    between atoms: C_10  and  O_11
REMARK    9  A    between atoms: O_11  and  C_12
REMARK   10  A    between atoms: C_12  and  C_13
REMARK                            x       y       z     vdW  Elec       q    Type
REMARK                         _______ _______ _______ _____ _____    ______ ____
ROOT
ATOM      1  N   UNL     1       6.155   5.197  18.782  0.00  0.00    +0.000 N 
ATOM      2  O   UNL     1       6.687   5.347  19.931  0.00  0.00    +0.000 OA
ATOM      3  N   UNL     1       5.414   4.211  18.443  0.00  0.00    +0.000 NA
ENDROOT
BRANCH   1   4
ATOM      4  N   UNL     1       6.397   6.205  17.818  0.00  0.00    +0.000 N 
BRANCH   4   6
ATOM      5  C   UNL     1       7.740   8.293  17.667  0.00  0.00    +0.000 C 
ATOM      6  C   UNL     1       7.740   6.774  17.734  0.00  0.00    +0.000 C 
ENDBRANCH   4   6
BRANCH   4   7
ATOM      7  C   UNL     1       5.265   6.696  17.035  0.00  0.00    +0.000 C 
ATOM      8  C   UNL     1       5.216   6.322  15.561  0.00  0.00    +0.000 C 
ENDBRANCH   4   7
ENDBRANCH   1   4
BRANCH   3   9
ATOM      9  O   UNL     1       5.256   3.338  19.542  0.00  0.00    +0.000 OA
BRANCH   9  10
ATOM     10  C   UNL     1       3.875   2.996  19.664  0.00  0.00    +0.000 C 
BRANCH  10  11
ATOM     11  O   UNL     1       3.210   3.943  20.507  0.00  0.00    +0.000 OA
BRANCH  11  12
ATOM     12  C   UNL     1       2.087   3.503  21.124  0.00  0.00    +0.000 C 
ATOM     13  C   UNL     1       0.885   3.710  20.250  0.00  0.00    +0.000 C 
ATOM     14  O   UNL     1       2.030   3.013  22.243  0.00  0.00    +0.000 OA
ENDBRANCH  11  12
ENDBRANCH  10  11
ENDBRANCH   9  10
ENDBRANCH   3   9
TORSDOF 7
ENDMDL
MODEL 4
REMARK VINA RESULT:      -5.3      1.509      2.566
REMARK  Name = 
REMARK  10 active torsions:
REMARK  status: ('A' for Active; 'I' for Inactive)
REMARK    1  A    between atoms: C_1  and  C_2
REMARK    2  A    between atoms: C_2  and  N_3
REMARK    3  A    between atoms: N_3  and  C_4
REMARK    4  A    between atoms: N_3  and  N_6
REMARK    5  A    between atoms: C_4  and  C_5
REMARK    6  A    between atoms: N_8  and  O_9
REMARK    7  A    between atoms: O_9  and  C_10
REMARK    8  A    between atoms: C_10  and  O_11
REMARK    9  A    between atoms: O_11  and  C_12
REMARK   10  A    between atoms: C_12  and  C_13
REMARK                            x       y       z     vdW  Elec       q    Type
REMARK                         _______ _______ _______ _____ _____    ______ ____
ROOT
ATOM      1  N   UNL     1       4.650   4.358  19.394  0.00  0.00    +0.000 N 
ATOM      2  O   UNL     1       4.917   3.123  19.565  0.00  0.00    +0.000 OA
ATOM      3  N   UNL     1       5.523   5.280  19.239  0.00  0.00    +0.000 NA
ENDROOT
BRANCH   1   4
ATOM      4  N   UNL     1       3.284   4.729  19.363  0.00  0.00    +0.000 N 
BRANCH   4   6
ATOM      5  C   UNL     1       1.560   4.120  17.677  0.00  0.00    +0.000 C 
ATOM      6  C   UNL     1       2.687   5.061  18.070  0.00  0.00    +0.000 C 
ENDBRANCH   4   6
BRANCH   4   7
ATOM      7  C   UNL     1       2.575   4.863  20.634  0.00  0.00    +0.000 C 
ATOM      8  C   UNL     1       2.045   3.592  21.280  0.00  0.00    +0.000 C 
ENDBRANCH   4   7
ENDBRANCH   1   4
BRANCH   3   9
ATOM      9  O   UNL     1       6.817   4.714  19.258  0.00  0.00    +0.000 OA
BRANCH   9  10
ATOM     10  C   UNL     1       7.551   5.207  18.137  0.00  0.00    +0.000 C 
BRANCH  10  11
ATOM     11  O   UNL     1       6.649   5.636  17.112  0.00  0.00    +0.000 OA
BRANCH  11  12
ATOM     12  C   UNL     1       6.801   5.048  15.902  0.00  0.00    +0.000 C 
ATOM     13  C   UNL     1       5.855   3.893  15.750  0.00  0.00    +0.000 C 
ATOM     14  O   UNL     1       7.599   5.383  15.038  0.00  0.00    +0.000 OA
ENDBRANCH  11  12
ENDBRANCH  10  11
ENDBRANCH   9  10
ENDBRANCH   3   9
TORSDOF 7
ENDMDL
MODEL 5
REMARK VINA RESULT:      -5.1      2.231      5.392
REMARK  Name = 
REMARK  10 active torsions:
REMARK  status: ('A' for Active; 'I' for Inactive)
REMARK    1  A    between atoms: C_1  and  C_2
REMARK    2  A    between atoms: C_2  and  N_3
REMARK    3  A    between atoms: N_3  and  C_4
REMARK    4  A    between atoms: N_3  and  N_6
REMARK    5  A    between atoms: C_4  and  C_5
REMARK    6  A    between atoms: N_8  and  O_9
REMARK    7  A    between atoms: O_9  and  C_10
REMARK    8  A    between atoms: C_10  and  O_11
REMARK    9  A    between atoms: O_11  and  C_12
REMARK   10  A    between atoms: C_12  and  C_13
REMARK                            x       y       z     vdW  Elec       q    Type
REMARK                         _______ _______ _______ _____ _____    ______ ____
ROOT
ATOM      1  N   UNL     1       6.321   4.708  18.312  0.00  0.00    +0.000 N 
ATOM      2  O   UNL     1       7.096   4.815  19.318  0.00  0.00    +0.000 OA
ATOM      3  N   UNL     1       5.269   3.980  18.274  0.00  0.00    +0.000 NA
ENDROOT
BRANCH   1   4
ATOM      4  N   UNL     1       6.646   5.462  17.159  0.00  0.00    +0.000 N 
BRANCH   4   6
ATOM      5  C   UNL     1       7.645   7.705  17.547  0.00  0.00    +0.000 C 
ATOM      6  C   UNL     1       6.406   6.903  17.185  0.00  0.00    +0.000 C 
ENDBRANCH   4   6
BRANCH   4   7
ATOM      7  C   UNL     1       7.102   4.743  15.971  0.00  0.00    +0.000 C 
ATOM      8  C   UNL     1       6.144   4.653  14.793  0.00  0.00    +0.000 C 
ENDBRANCH   4   7
ENDBRANCH   1   4
BRANCH   3   9
ATOM      9  O   UNL     1       5.090   3.343  19.522  0.00  0.00    +0.000 OA
BRANCH   9  10
ATOM     10  C   UNL     1       3.691   3.202  19.769  0.00  0.00    +0.000 C 
BRANCH  10  11
ATOM     11  O   UNL     1       2.952   4.077  18.910  0.00  0.00    +0.000 OA
BRANCH  11  12
ATOM     12  C   UNL     1       1.638   3.790  18.756  0.00  0.00    +0.000 C 
ATOM     13  C   UNL     1       0.976   3.600  20.090  0.00  0.00    +0.000 C 
ATOM     14  O   UNL     1       1.048   3.681  17.690  0.00  0.00    +0.000 OA
ENDBRANCH  11  12
ENDBRANCH  10  11
ENDBRANCH   9  10
ENDBRANCH   3   9
TORSDOF 7
ENDMDL
MODEL 6
REMARK VINA RESULT:      -5.1      2.437      5.734
REMARK  Name = 
REMARK  10 active torsions:
REMARK  status: ('A' for Active; 'I' for Inactive)
REMARK    1  A    between atoms: C_1  and  C_2
REMARK    2  A    between atoms: C_2  and  N_3
REMARK    3  A    between atoms: N_3  and  C_4
REMARK    4  A    between atoms: N_3  and  N_6
REMARK    5  A    between atoms: C_4  and  C_5
REMARK    6  A    between atoms: N_8  and  O_9
REMARK    7  A    between atoms: O_9  and  C_10
REMARK    8  A    between atoms: C_10  and  O_11
REMARK    9  A    between atoms: O_11  and  C_12
REMARK   10  A    between atoms: C_12  and  C_13
REMARK                            x       y       z     vdW  Elec       q    Type
REMARK                         _______ _______ _______ _____ _____    ______ ____
ROOT
ATOM      1  N   UNL     1       5.143   4.408  18.700  0.00  0.00    +0.000 N 
ATOM      2  O   UNL     1       5.322   3.425  19.491  0.00  0.00    +0.000 OA
ATOM      3  N   UNL     1       4.225   5.291  18.827  0.00  0.00    +0.000 NA
ENDROOT
BRANCH   1   4
ATOM      4  N   UNL     1       6.035   4.535  17.608  0.00  0.00    +0.000 N 
BRANCH   4   6
ATOM      5  C   UNL     1       5.533   5.536  15.388  0.00  0.00    +0.000 C 
ATOM      6  C   UNL     1       5.519   4.293  16.262  0.00  0.00    +0.000 C 
ENDBRANCH   4   6
BRANCH   4   7
ATOM      7  C   UNL     1       7.444   4.794  17.895  0.00  0.00    +0.000 C 
ATOM      8  C   UNL     1       7.776   6.011  18.743  0.00  0.00    +0.000 C 
ENDBRANCH   4   7
ENDBRANCH   1   4
BRANCH   3   9
ATOM      9  O   UNL     1       3.468   5.022  19.989  0.00  0.00    +0.000 OA
BRANCH   9  10
ATOM     10  C   UNL     1       2.099   5.327  19.727  0.00  0.00    +0.000 C 
BRANCH  10  11
ATOM     11  O   UNL     1       1.270   4.777  20.757  0.00  0.00    +0.000 OA
BRANCH  11  12
ATOM     12  C   UNL     1       1.222   3.425  20.823  0.00  0.00    +0.000 C 
ATOM     13  C   UNL     1       0.830   2.842  19.497  0.00  0.00    +0.000 C 
ATOM     14  O   UNL     1       1.450   2.748  21.816  0.00  0.00    +0.000 OA
ENDBRANCH  11  12
ENDBRANCH  10  11
ENDBRANCH   9  10
ENDBRANCH   3   9
TORSDOF 7
ENDMDL
MODEL 7
REMARK VINA RESULT:      -5.1      2.060      5.748
REMARK  Name = 
REMARK  10 active torsions:
REMARK  status: ('A' for Active; 'I' for Inactive)
REMARK    1  A    between atoms: C_1  and  C_2
REMARK    2  A    between atoms: C_2  and  N_3
REMARK    3  A    between atoms: N_3  and  C_4
REMARK    4  A    between atoms: N_3  and  N_6
REMARK    5  A    between atoms: C_4  and  C_5
REMARK    6  A    between atoms: N_8  and  O_9
REMARK    7  A    between atoms: O_9  and  C_10
REMARK    8  A    between atoms: C_10  and  O_11
REMARK    9  A    between atoms: O_11  and  C_12
REMARK   10  A    between atoms: C_12  and  C_13
REMARK                            x       y       z     vdW  Elec       q    Type
REMARK                         _______ _______ _______ _____ _____    ______ ____
ROOT
ATOM      1  N   UNL     1       5.788   4.498  18.096  0.00  0.00    +0.000 N 
ATOM      2  O   UNL     1       6.436   4.435  19.192  0.00  0.00    +0.000 OA
ATOM      3  N   UNL     1       4.658   3.939  17.881  0.00  0.00    +0.000 NA
ENDROOT
BRANCH   1   4
ATOM      4  N   UNL     1       6.361   5.255  17.046  0.00  0.00    +0.000 N 
BRANCH   4   6
ATOM      5  C   UNL     1       7.541   7.380  17.571  0.00  0.00    +0.000 C 
ATOM      6  C   UNL     1       6.257   6.712  17.107  0.00  0.00    +0.000 C 
ENDBRANCH   4   6
BRANCH   4   7
ATOM      7  C   UNL     1       6.930   4.536  15.908  0.00  0.00    +0.000 C 
ATOM      8  C   UNL     1       6.034   4.312  14.700  0.00  0.00    +0.000 C 
ENDBRANCH   4   7
ENDBRANCH   1   4
BRANCH   3   9
ATOM      9  O   UNL     1       4.232   3.270  19.050  0.00  0.00    +0.000 OA
BRANCH   9  10
ATOM     10  C   UNL     1       2.864   2.894  18.892  0.00  0.00    +0.000 C 
BRANCH  10  11
ATOM     11  O   UNL     1       2.405   2.215  20.067  0.00  0.00    +0.000 OA
BRANCH  11  12
ATOM     12  C   UNL     1       1.797   2.987  21.000  0.00  0.00    +0.000 C 
ATOM     13  C   UNL     1       0.969   4.055  20.348  0.00  0.00    +0.000 C 
ATOM     14  O   UNL     1       1.900   2.860  22.212  0.00  0.00    +0.000 OA
ENDBRANCH  11  12
ENDBRANCH  10  11
ENDBRANCH   9  10
ENDBRANCH   3   9
TORSDOF 7
ENDMDL
MODEL 8
REMARK VINA RESULT:      -5.1      1.964      2.827
REMARK  Name = 
REMARK  10 active torsions:
REMARK  status: ('A' for Active; 'I' for Inactive)
REMARK    1  A    between atoms: C_1  and  C_2
REMARK    2  A    between atoms: C_2  and  N_3
REMARK    3  A    between atoms: N_3  and  C_4
REMARK    4  A    between atoms: N_3  and  N_6
REMARK    5  A    between atoms: C_4  and  C_5
REMARK    6  A    between atoms: N_8  and  O_9
REMARK    7  A    between atoms: O_9  and  C_10
REMARK    8  A    between atoms: C_10  and  O_11
REMARK    9  A    between atoms: O_11  and  C_12
REMARK   10  A    between atoms: C_12  and  C_13
REMARK                            x       y       z     vdW  Elec       q    Type
REMARK                         _______ _______ _______ _____ _____    ______ ____
ROOT
ATOM      1  N   UNL     1       4.616   4.306  18.553  0.00  0.00    +0.000 N 
ATOM      2  O   UNL     1       4.621   3.449  17.610  0.00  0.00    +0.000 OA
ATOM      3  N   UNL     1       5.659   4.736  19.157  0.00  0.00    +0.000 NA
ENDROOT
BRANCH   1   4
ATOM      4  N   UNL     1       3.361   4.828  18.949  0.00  0.00    +0.000 N 
BRANCH   4   6
ATOM      5  C   UNL     1       3.163   7.108  17.977  0.00  0.00    +0.000 C 
ATOM      6  C   UNL     1       2.639   5.681  18.008  0.00  0.00    +0.000 C 
ENDBRANCH   4   6
BRANCH   4   7
ATOM      7  C   UNL     1       2.907   4.572  20.315  0.00  0.00    +0.000 C 
ATOM      8  C   UNL     1       1.408   4.579  20.570  0.00  0.00    +0.000 C 
ENDBRANCH   4   7
ENDBRANCH   1   4
BRANCH   3   9
ATOM      9  O   UNL     1       6.809   4.136  18.598  0.00  0.00    +0.000 OA
BRANCH   9  10
ATOM     10  C   UNL     1       7.527   5.121  17.855  0.00  0.00    +0.000 C 
BRANCH  10  11
ATOM     11  O   UNL     1       7.652   4.707  16.490  0.00  0.00    +0.000 OA
BRANCH  11  12
ATOM     12  C   UNL     1       6.736   5.212  15.630  0.00  0.00    +0.000 C 
ATOM     13  C   UNL     1       6.606   4.336  14.418  0.00  0.00    +0.000 C 
ATOM     14  O   UNL     1       6.097   6.243  15.788  0.00  0.00    +0.000 OA
ENDBRANCH  11  12
ENDBRANCH  10  11
ENDBRANCH   9  10
ENDBRANCH   3   9
TORSDOF 7
ENDMDL
MODEL 9
REMARK VINA RESULT:      -5.1      2.007      5.524
REMARK  Name = 
REMARK  10 active torsions:
REMARK  status: ('A' for Active; 'I' for Inactive)
REMARK    1  A    between atoms: C_1  and  C_2
REMARK    2  A    between atoms: C_2  and  N_3
REMARK    3  A    between atoms: N_3  and  C_4
REMARK    4  A    between atoms: N_3  and  N_6
REMARK    5  A    between atoms: C_4  and  C_5
REMARK    6  A    between atoms: N_8  and  O_9
REMARK    7  A    between atoms: O_9  and  C_10
REMARK    8  A    between atoms: C_10  and  O_11
REMARK    9  A    between atoms: O_11  and  C_12
REMARK   10  A    between atoms: C_12  and  C_13
REMARK                            x       y       z     vdW  Elec       q    Type
REMARK                         _______ _______ _______ _____ _____    ______ ____
ROOT
ATOM      1  N   UNL     1       6.070   4.732  18.600  0.00  0.00    +0.000 N 
ATOM      2  O   UNL     1       6.627   5.083  19.692  0.00  0.00    +0.000 OA
ATOM      3  N   UNL     1       5.171   3.827  18.495  0.00  0.00    +0.000 NA
ENDROOT
BRANCH   1   4
ATOM      4  N   UNL     1       6.472   5.404  17.420  0.00  0.00    +0.000 N 
BRANCH   4   6
ATOM      5  C   UNL     1       6.252   4.638  15.065  0.00  0.00    +0.000 C 
ATOM      6  C   UNL     1       7.071   4.616  16.346  0.00  0.00    +0.000 C 
ENDBRANCH   4   6
BRANCH   4   7
ATOM      7  C   UNL     1       6.364   6.861  17.386  0.00  0.00    +0.000 C 
ATOM      8  C   UNL     1       7.643   7.665  17.562  0.00  0.00    +0.000 C 
ENDBRANCH   4   7
ENDBRANCH   1   4
BRANCH   3   9
ATOM      9  O   UNL     1       4.875   3.305  19.774  0.00  0.00    +0.000 OA
BRANCH   9  10
ATOM     10  C   UNL     1       3.496   2.940  19.814  0.00  0.00    +0.000 C 
BRANCH  10  11
ATOM     11  O   UNL     1       3.021   2.681  18.488  0.00  0.00    +0.000 OA
BRANCH  11  12
ATOM     12  C   UNL     1       1.728   3.005  18.246  0.00  0.00    +0.000 C 
ATOM     13  C   UNL     1       1.620   4.411  17.734  0.00  0.00    +0.000 C 
ATOM     14  O   UNL     1       0.762   2.275  18.422  0.00  0.00    +0.000 OA
ENDBRANCH  11  12
ENDBRANCH  10  11
ENDBRANCH   9  10
ENDBRANCH   3   9
TORSDOF 7
ENDMDL
