MODEL 1
REMARK VINA RESULT:      -8.0      0.000      0.000
REMARK  Name = 
REMARK  9 active torsions:
REMARK  status: ('A' for Active; 'I' for Inactive)
REMARK    1  A    between atoms: C_1  and  N_2
REMARK    2  A    between atoms: N_2  and  C_3
REMARK    3  A    between atoms: N_2  and  C_21
REMARK    4  A    between atoms: C_3  and  C_4
REMARK    5  A    between atoms: C_4  and  C_5
REMARK    6  A    between atoms: C_5  and  C_6
REMARK    7  A    between atoms: C_6  and  C_7
REMARK    8  A    between atoms: N_9  and  C_10
REMARK    9  A    between atoms: C_13  and  O_14
REMARK                            x       y       z     vdW  Elec       q    Type
REMARK                         _______ _______ _______ _____ _____    ______ ____
ROOT
ATOM      1  C   UNL     1       1.676   4.679  20.738  0.00  0.00    +0.000 C 
ATOM      2  O   UNL     1       0.559   4.551  20.242  0.00  0.00    +0.000 OA
ATOM      3  N   UNL     1       2.563   5.722  20.524  0.00  0.00    +0.000 N 
ATOM      4  H   UNL     1       3.510   5.572  20.841  0.00  0.00    +0.000 HD
ENDROOT
BRANCH   3   5
ATOM      5  C   UNL     1       2.320   6.873  19.718  0.00  0.00    +0.000 A 
ATOM      6  C   UNL     1       2.795   6.921  18.404  0.00  0.00    +0.000 A 
ATOM      7  C   UNL     1       2.641   8.060  17.629  0.00  0.00    +0.000 A 
ATOM      8  C   UNL     1       1.990   9.164  18.163  0.00  0.00    +0.000 A 
ATOM      9  C   UNL     1       1.445   9.161  19.452  0.00  0.00    +0.000 A 
ATOM     10  N   UNL     1       0.809  10.266  19.904  0.00  0.00    +0.000 NA
ATOM     11  C   UNL     1       0.284  10.268  21.141  0.00  0.00    +0.000 A 
ATOM     12  C   UNL     1       0.344   9.184  21.986  0.00  0.00    +0.000 A 
ATOM     13  C   UNL     1       1.003   8.041  21.535  0.00  0.00    +0.000 A 
ATOM     14  C   UNL     1       1.591   7.990  20.245  0.00  0.00    +0.000 A 
BRANCH   8  15
ATOM     15  O   UNL     1       1.878  10.294  17.386  0.00  0.00    +0.000 OA
ATOM     16  H   UNL     1       2.531  10.258  16.671  0.00  0.00    +0.000 HD
ENDBRANCH   8  15
ENDBRANCH   3   5
BRANCH   1  17
ATOM     17  C   UNL     1       2.210   3.601  21.660  0.00  0.00    +0.000 C 
BRANCH  17  18
ATOM     18  C   UNL     1       3.201   2.685  20.951  0.00  0.00    +0.000 C 
BRANCH  18  19
ATOM     19  C   UNL     1       2.575   2.099  19.685  0.00  0.00    +0.000 C 
BRANCH  19  20
ATOM     20  C   UNL     1       3.612   1.931  18.571  0.00  0.00    +0.000 C 
BRANCH  20  22
ATOM     21  C   UNL     1       2.335   3.598  17.227  0.00  0.00    +0.000 C 
ATOM     22  N   UNL     1       3.631   3.101  17.684  0.00  0.00    +0.000 N 
BRANCH  22  23
ATOM     23  C   UNL     1       4.769   3.899  17.560  0.00  0.00    +0.000 A 
ATOM     24  C   UNL     1       5.319   4.233  16.310  0.00  0.00    +0.000 A 
ATOM     25  C   UNL     1       6.453   5.047  16.182  0.00  0.00    +0.000 A 
ATOM     26  C   UNL     1       7.085   5.547  17.313  0.00  0.00    +0.000 A 
ATOM     27  C   UNL     1       6.583   5.226  18.566  0.00  0.00    +0.000 A 
ATOM     28  C   UNL     1       5.448   4.412  18.681  0.00  0.00    +0.000 A 
ENDBRANCH  22  23
ENDBRANCH  20  22
ENDBRANCH  19  20
ENDBRANCH  18  19
ENDBRANCH  17  18
ENDBRANCH   1  17
TORSDOF 8
ENDMDL
MODEL 2
REMARK VINA RESULT:      -7.7      0.807      1.253
REMARK  Name = 
REMARK  9 active torsions:
REMARK  status: ('A' for Active; 'I' for Inactive)
REMARK    1  A    between atoms: C_1  and  N_2
REMARK    2  A    between atoms: N_2  and  C_3
REMARK    3  A    between atoms: N_2  and  C_21
REMARK    4  A    between atoms: C_3  and  C_4
REMARK    5  A    between atoms: C_4  and  C_5
REMARK    6  A    between atoms: C_5  and  C_6
REMARK    7  A    between atoms: C_6  and  C_7
REMARK    8  A    between atoms: N_9  and  C_10
REMARK    9  A    between atoms: C_13  and  O_14
REMARK                            x       y       z     vdW  Elec       q    Type
REMARK                         _______ _______ _______ _____ _____    ______ ____
ROOT
ATOM      1  C   UNL     1       1.562   4.550  20.623  0.00  0.00    +0.000 C 
ATOM      2  O   UNL     1       0.759   4.248  19.743  0.00  0.00    +0.000 OA
ATOM      3  N   UNL     1       2.243   5.751  20.747  0.00  0.00    +0.000 N 
ATOM      4  H   UNL     1       3.012   5.759  21.401  0.00  0.00    +0.000 HD
ENDROOT
BRANCH   3   5
ATOM      5  C   UNL     1       2.098   6.885  19.895  0.00  0.00    +0.000 A 
ATOM      6  C   UNL     1       2.666   6.877  18.617  0.00  0.00    +0.000 A 
ATOM      7  C   UNL     1       2.608   7.997  17.802  0.00  0.00    +0.000 A 
ATOM      8  C   UNL     1       1.960   9.138  18.258  0.00  0.00    +0.000 A 
ATOM      9  C   UNL     1       1.326   9.192  19.504  0.00  0.00    +0.000 A 
ATOM     10  N   UNL     1       0.700  10.331  19.879  0.00  0.00    +0.000 NA
ATOM     11  C   UNL     1       0.090  10.388  21.075  0.00  0.00    +0.000 A 
ATOM     12  C   UNL     1       0.051   9.328  21.951  0.00  0.00    +0.000 A 
ATOM     13  C   UNL     1       0.699   8.151  21.580  0.00  0.00    +0.000 A 
ATOM     14  C   UNL     1       1.374   8.041  20.337  0.00  0.00    +0.000 A 
BRANCH   8  15
ATOM     15  O   UNL     1       1.944  10.247  17.443  0.00  0.00    +0.000 OA
ATOM     16  H   UNL     1       1.310  10.107  16.723  0.00  0.00    +0.000 HD
ENDBRANCH   8  15
ENDBRANCH   3   5
BRANCH   1  17
ATOM     17  C   UNL     1       1.913   3.535  21.692  0.00  0.00    +0.000 C 
BRANCH  17  18
ATOM     18  C   UNL     1       3.059   2.626  21.260  0.00  0.00    +0.000 C 
BRANCH  18  19
ATOM     19  C   UNL     1       3.216   2.650  19.740  0.00  0.00    +0.000 C 
BRANCH  19  20
ATOM     20  C   UNL     1       4.660   2.951  19.328  0.00  0.00    +0.000 C 
BRANCH  20  22
ATOM     21  C   UNL     1       3.555   3.659  17.209  0.00  0.00    +0.000 C 
ATOM     22  N   UNL     1       4.704   3.762  18.106  0.00  0.00    +0.000 N 
BRANCH  22  23
ATOM     23  C   UNL     1       5.605   4.818  17.967  0.00  0.00    +0.000 A 
ATOM     24  C   UNL     1       6.627   5.062  18.903  0.00  0.00    +0.000 A 
ATOM     25  C   UNL     1       7.542   6.114  18.758  0.00  0.00    +0.000 A 
ATOM     26  C   UNL     1       7.456   6.970  17.669  0.00  0.00    +0.000 A 
ATOM     27  C   UNL     1       6.450   6.774  16.732  0.00  0.00    +0.000 A 
ATOM     28  C   UNL     1       5.541   5.719  16.888  0.00  0.00    +0.000 A 
ENDBRANCH  22  23
ENDBRANCH  20  22
ENDBRANCH  19  20
ENDBRANCH  18  19
ENDBRANCH  17  18
ENDBRANCH   1  17
TORSDOF 8
ENDMDL
MODEL 3
REMARK VINA RESULT:      -7.4      2.167      6.040
REMARK  Name = 
REMARK  9 active torsions:
REMARK  status: ('A' for Active; 'I' for Inactive)
REMARK    1  A    between atoms: C_1  and  N_2
REMARK    2  A    between atoms: N_2  and  C_3
REMARK    3  A    between atoms: N_2  and  C_21
REMARK    4  A    between atoms: C_3  and  C_4
REMARK    5  A    between atoms: C_4  and  C_5
REMARK    6  A    between atoms: C_5  and  C_6
REMARK    7  A    between atoms: C_6  and  C_7
REMARK    8  A    between atoms: N_9  and  C_10
REMARK    9  A    between atoms: C_13  and  O_14
REMARK                            x       y       z     vdW  Elec       q    Type
REMARK                         _______ _______ _______ _____ _____    ______ ____
ROOT
ATOM      1  C   UNL     1       3.499   2.878  17.929  0.00  0.00    +0.000 C 
ATOM      2  O   UNL     1       2.834   3.591  17.182  0.00  0.00    +0.000 OA
ATOM      3  N   UNL     1       4.814   3.081  18.316  0.00  0.00    +0.000 N 
ATOM      4  H   UNL     1       5.272   2.300  18.762  0.00  0.00    +0.000 HD
ENDROOT
BRANCH   3   5
ATOM      5  C   UNL     1       5.629   4.193  17.950  0.00  0.00    +0.000 A 
ATOM      6  C   UNL     1       5.990   5.142  18.911  0.00  0.00    +0.000 A 
ATOM      7  C   UNL     1       6.713   6.273  18.563  0.00  0.00    +0.000 A 
ATOM      8  C   UNL     1       7.098   6.455  17.241  0.00  0.00    +0.000 A 
ATOM      9  C   UNL     1       6.814   5.517  16.242  0.00  0.00    +0.000 A 
ATOM     10  N   UNL     1       7.232   5.750  14.978  0.00  0.00    +0.000 NA
ATOM     11  C   UNL     1       6.961   4.853  14.015  0.00  0.00    +0.000 A 
ATOM     12  C   UNL     1       6.283   3.679  14.249  0.00  0.00    +0.000 A 
ATOM     13  C   UNL     1       5.840   3.430  15.548  0.00  0.00    +0.000 A 
ATOM     14  C   UNL     1       6.083   4.351  16.599  0.00  0.00    +0.000 A 
BRANCH   8  15
ATOM     15  O   UNL     1       7.787   7.601  16.915  0.00  0.00    +0.000 OA
ATOM     16  H   UNL     1       7.184   8.359  16.949  0.00  0.00    +0.000 HD
ENDBRANCH   8  15
ENDBRANCH   3   5
BRANCH   1  17
ATOM     17  C   UNL     1       2.885   1.612  18.492  0.00  0.00    +0.000 C 
BRANCH  17  18
ATOM     18  C   UNL     1       1.429   1.816  18.898  0.00  0.00    +0.000 C 
BRANCH  18  19
ATOM     19  C   UNL     1       1.346   2.529  20.247  0.00  0.00    +0.000 C 
BRANCH  19  20
ATOM     20  C   UNL     1       0.833   3.963  20.095  0.00  0.00    +0.000 C 
BRANCH  20  22
ATOM     21  C   UNL     1       2.958   4.423  21.312  0.00  0.00    +0.000 C 
ATOM     22  N   UNL     1       1.848   4.937  20.514  0.00  0.00    +0.000 N 
BRANCH  22  23
ATOM     23  C   UNL     1       1.943   6.192  19.911  0.00  0.00    +0.000 A 
ATOM     24  C   UNL     1       1.491   7.365  20.542  0.00  0.00    +0.000 A 
ATOM     25  C   UNL     1       1.599   8.629  19.945  0.00  0.00    +0.000 A 
ATOM     26  C   UNL     1       2.157   8.757  18.680  0.00  0.00    +0.000 A 
ATOM     27  C   UNL     1       2.599   7.622  18.017  0.00  0.00    +0.000 A 
ATOM     28  C   UNL     1       2.486   6.364  18.624  0.00  0.00    +0.000 A 
ENDBRANCH  22  23
ENDBRANCH  20  22
ENDBRANCH  19  20
ENDBRANCH  18  19
ENDBRANCH  17  18
ENDBRANCH   1  17
TORSDOF 8
ENDMDL
MODEL 4
REMARK VINA RESULT:      -7.0      3.276      7.904
REMARK  Name = 
REMARK  9 active torsions:
REMARK  status: ('A' for Active; 'I' for Inactive)
REMARK    1  A    between atoms: C_1  and  N_2
REMARK    2  A    between atoms: N_2  and  C_3
REMARK    3  A    between atoms: N_2  and  C_21
REMARK    4  A    between atoms: C_3  and  C_4
REMARK    5  A    between atoms: C_4  and  C_5
REMARK    6  A    between atoms: C_5  and  C_6
REMARK    7  A    between atoms: C_6  and  C_7
REMARK    8  A    between atoms: N_9  and  C_10
REMARK    9  A    between atoms: C_13  and  O_14
REMARK                            x       y       z     vdW  Elec       q    Type
REMARK                         _______ _______ _______ _____ _____    ______ ____
ROOT
ATOM      1  C   UNL     1       2.173   7.800  18.684  0.00  0.00    +0.000 C 
ATOM      2  O   UNL     1       2.281   7.962  19.898  0.00  0.00    +0.000 OA
ATOM      3  N   UNL     1       2.653   6.729  17.946  0.00  0.00    +0.000 N 
ATOM      4  H   UNL     1       2.662   6.850  16.944  0.00  0.00    +0.000 HD
ENDROOT
BRANCH   3   5
ATOM      5  C   UNL     1       3.324   5.586  18.472  0.00  0.00    +0.000 A 
ATOM      6  C   UNL     1       4.686   5.397  18.220  0.00  0.00    +0.000 A 
ATOM      7  C   UNL     1       5.341   4.254  18.652  0.00  0.00    +0.000 A 
ATOM      8  C   UNL     1       4.634   3.291  19.360  0.00  0.00    +0.000 A 
ATOM      9  C   UNL     1       3.283   3.444  19.689  0.00  0.00    +0.000 A 
ATOM     10  N   UNL     1       2.659   2.473  20.394  0.00  0.00    +0.000 NA
ATOM     11  C   UNL     1       1.362   2.616  20.712  0.00  0.00    +0.000 A 
ATOM     12  C   UNL     1       0.620   3.723  20.370  0.00  0.00    +0.000 A 
ATOM     13  C   UNL     1       1.249   4.728  19.636  0.00  0.00    +0.000 A 
ATOM     14  C   UNL     1       2.612   4.621  19.258  0.00  0.00    +0.000 A 
BRANCH   8  15
ATOM     15  O   UNL     1       5.299   2.150  19.750  0.00  0.00    +0.000 OA
ATOM     16  H   UNL     1       6.190   2.385  20.051  0.00  0.00    +0.000 HD
ENDBRANCH   8  15
ENDBRANCH   3   5
BRANCH   1  17
ATOM     17  C   UNL     1       1.486   8.861  17.848  0.00  0.00    +0.000 C 
BRANCH  17  18
ATOM     18  C   UNL     1       1.999  10.260  18.170  0.00  0.00    +0.000 C 
BRANCH  18  19
ATOM     19  C   UNL     1       0.900  11.094  18.828  0.00  0.00    +0.000 C 
BRANCH  19  20
ATOM     20  C   UNL     1      -0.288  10.225  19.249  0.00  0.00    +0.000 C 
BRANCH  20  22
ATOM     21  C   UNL     1      -1.792  12.061  20.010  0.00  0.00    +0.000 C 
ATOM     22  N   UNL     1      -1.556  10.948  19.093  0.00  0.00    +0.000 N 
BRANCH  22  23
ATOM     23  C   UNL     1      -2.329  10.819  17.939  0.00  0.00    +0.000 A 
ATOM     24  C   UNL     1      -3.528  11.532  17.754  0.00  0.00    +0.000 A 
ATOM     25  C   UNL     1      -4.299  11.414  16.589  0.00  0.00    +0.000 A 
ATOM     26  C   UNL     1      -3.897  10.563  15.569  0.00  0.00    +0.000 A 
ATOM     27  C   UNL     1      -2.730   9.828  15.720  0.00  0.00    +0.000 A 
ATOM     28  C   UNL     1      -1.967   9.954  16.889  0.00  0.00    +0.000 A 
ENDBRANCH  22  23
ENDBRANCH  20  22
ENDBRANCH  19  20
ENDBRANCH  18  19
ENDBRANCH  17  18
ENDBRANCH   1  17
TORSDOF 8
ENDMDL
MODEL 5
REMARK VINA RESULT:      -7.0      2.856      5.254
REMARK  Name = 
REMARK  9 active torsions:
REMARK  status: ('A' for Active; 'I' for Inactive)
REMARK    1  A    between atoms: C_1  and  N_2
REMARK    2  A    between atoms: N_2  and  C_3
REMARK    3  A    between atoms: N_2  and  C_21
REMARK    4  A    between atoms: C_3  and  C_4
REMARK    5  A    between atoms: C_4  and  C_5
REMARK    6  A    between atoms: C_5  and  C_6
REMARK    7  A    between atoms: C_6  and  C_7
REMARK    8  A    between atoms: N_9  and  C_10
REMARK    9  A    between atoms: C_13  and  O_14
REMARK                            x       y       z     vdW  Elec       q    Type
REMARK                         _______ _______ _______ _____ _____    ______ ____
ROOT
ATOM      1  C   UNL     1       1.705   9.257  18.373  0.00  0.00    +0.000 C 
ATOM      2  O   UNL     1       2.069  10.122  17.579  0.00  0.00    +0.000 OA
ATOM      3  N   UNL     1       0.644   9.341  19.261  0.00  0.00    +0.000 N 
ATOM      4  H   UNL     1       0.610   8.633  19.980  0.00  0.00    +0.000 HD
ENDROOT
BRANCH   3   5
ATOM      5  C   UNL     1      -0.259  10.438  19.383  0.00  0.00    +0.000 A 
ATOM      6  C   UNL     1      -0.088  11.375  20.406  0.00  0.00    +0.000 A 
ATOM      7  C   UNL     1      -0.998  12.404  20.593  0.00  0.00    +0.000 A 
ATOM      8  C   UNL     1      -2.087  12.513  19.739  0.00  0.00    +0.000 A 
ATOM      9  C   UNL     1      -2.286  11.640  18.663  0.00  0.00    +0.000 A 
ATOM     10  N   UNL     1      -3.361  11.813  17.861  0.00  0.00    +0.000 NA
ATOM     11  C   UNL     1      -3.556  10.976  16.827  0.00  0.00    +0.000 A 
ATOM     12  C   UNL     1      -2.701   9.943  16.523  0.00  0.00    +0.000 A 
ATOM     13  C   UNL     1      -1.593   9.749  17.347  0.00  0.00    +0.000 A 
ATOM     14  C   UNL     1      -1.348  10.591  18.462  0.00  0.00    +0.000 A 
BRANCH   8  15
ATOM     15  O   UNL     1      -2.994  13.523  19.964  0.00  0.00    +0.000 OA
ATOM     16  H   UNL     1      -2.517  14.350  20.135  0.00  0.00    +0.000 HD
ENDBRANCH   8  15
ENDBRANCH   3   5
BRANCH   1  17
ATOM     17  C   UNL     1       2.477   7.956  18.464  0.00  0.00    +0.000 C 
BRANCH  17  18
ATOM     18  C   UNL     1       3.257   7.666  17.185  0.00  0.00    +0.000 C 
BRANCH  18  19
ATOM     19  C   UNL     1       4.495   6.826  17.494  0.00  0.00    +0.000 C 
BRANCH  19  20
ATOM     20  C   UNL     1       4.295   5.361  17.094  0.00  0.00    +0.000 C 
BRANCH  20  22
ATOM     21  C   UNL     1       5.588   4.340  18.963  0.00  0.00    +0.000 C 
ATOM     22  N   UNL     1       4.310   4.483  18.270  0.00  0.00    +0.000 N 
BRANCH  22  23
ATOM     23  C   UNL     1       3.128   4.086  18.895  0.00  0.00    +0.000 A 
ATOM     24  C   UNL     1       2.718   4.616  20.132  0.00  0.00    +0.000 A 
ATOM     25  C   UNL     1       1.523   4.230  20.756  0.00  0.00    +0.000 A 
ATOM     26  C   UNL     1       0.700   3.282  20.161  0.00  0.00    +0.000 A 
ATOM     27  C   UNL     1       1.079   2.721  18.950  0.00  0.00    +0.000 A 
ATOM     28  C   UNL     1       2.275   3.116  18.337  0.00  0.00    +0.000 A 
ENDBRANCH  22  23
ENDBRANCH  20  22
ENDBRANCH  19  20
ENDBRANCH  18  19
ENDBRANCH  17  18
ENDBRANCH   1  17
TORSDOF 8
ENDMDL
MODEL 6
REMARK VINA RESULT:      -7.0      2.176      6.352
REMARK  Name = 
REMARK  9 active torsions:
REMARK  status: ('A' for Active; 'I' for Inactive)
REMARK    1  A    between atoms: C_1  and  N_2
REMARK    2  A    between atoms: N_2  and  C_3
REMARK    3  A    between atoms: N_2  and  C_21
REMARK    4  A    between atoms: C_3  and  C_4
REMARK    5  A    between atoms: C_4  and  C_5
REMARK    6  A    between atoms: C_5  and  C_6
REMARK    7  A    between atoms: C_6  and  C_7
REMARK    8  A    between atoms: N_9  and  C_10
REMARK    9  A    between atoms: C_13  and  O_14
REMARK                            x       y       z     vdW  Elec       q    Type
REMARK                         _______ _______ _______ _____ _____    ______ ____
ROOT
ATOM      1  C   UNL     1       2.301   3.402  17.917  0.00  0.00    +0.000 C 
ATOM      2  O   UNL     1       1.694   4.115  17.121  0.00  0.00    +0.000 OA
ATOM      3  N   UNL     1       3.670   3.186  17.960  0.00  0.00    +0.000 N 
ATOM      4  H   UNL     1       3.980   2.419  18.538  0.00  0.00    +0.000 HD
ENDROOT
BRANCH   3   5
ATOM      5  C   UNL     1       4.638   3.795  17.108  0.00  0.00    +0.000 A 
ATOM      6  C   UNL     1       4.582   3.589  15.726  0.00  0.00    +0.000 A 
ATOM      7  C   UNL     1       5.559   4.103  14.887  0.00  0.00    +0.000 A 
ATOM      8  C   UNL     1       6.598   4.849  15.428  0.00  0.00    +0.000 A 
ATOM      9  C   UNL     1       6.681   5.135  16.795  0.00  0.00    +0.000 A 
ATOM     10  N   UNL     1       7.713   5.880  17.253  0.00  0.00    +0.000 NA
ATOM     11  C   UNL     1       7.798   6.157  18.565  0.00  0.00    +0.000 A 
ATOM     12  C   UNL     1       6.869   5.732  19.486  0.00  0.00    +0.000 A 
ATOM     13  C   UNL     1       5.805   4.956  19.028  0.00  0.00    +0.000 A 
ATOM     14  C   UNL     1       5.676   4.619  17.656  0.00  0.00    +0.000 A 
BRANCH   8  15
ATOM     15  O   UNL     1       7.572   5.322  14.578  0.00  0.00    +0.000 OA
ATOM     16  H   UNL     1       8.310   5.672  15.100  0.00  0.00    +0.000 HD
ENDBRANCH   8  15
ENDBRANCH   3   5
BRANCH   1  17
ATOM     17  C   UNL     1       1.526   2.626  18.963  0.00  0.00    +0.000 C 
BRANCH  17  18
ATOM     18  C   UNL     1       1.217   3.477  20.190  0.00  0.00    +0.000 C 
BRANCH  18  19
ATOM     19  C   UNL     1       2.230   4.614  20.321  0.00  0.00    +0.000 C 
BRANCH  19  20
ATOM     20  C   UNL     1       1.602   5.857  20.959  0.00  0.00    +0.000 C 
BRANCH  20  22
ATOM     21  C   UNL     1       2.692   6.886  18.968  0.00  0.00    +0.000 C 
ATOM     22  N   UNL     1       1.964   7.073  20.221  0.00  0.00    +0.000 N 
BRANCH  22  23
ATOM     23  C   UNL     1       1.361   8.299  20.502  0.00  0.00    +0.000 A 
ATOM     24  C   UNL     1       0.846   8.609  21.774  0.00  0.00    +0.000 A 
ATOM     25  C   UNL     1       0.254   9.846  22.063  0.00  0.00    +0.000 A 
ATOM     26  C   UNL     1       0.146  10.816  21.076  0.00  0.00    +0.000 A 
ATOM     27  C   UNL     1       0.625  10.543  19.803  0.00  0.00    +0.000 A 
ATOM     28  C   UNL     1       1.216   9.302  19.526  0.00  0.00    +0.000 A 
ENDBRANCH  22  23
ENDBRANCH  20  22
ENDBRANCH  19  20
ENDBRANCH  18  19
ENDBRANCH  17  18
ENDBRANCH   1  17
TORSDOF 8
ENDMDL
MODEL 7
REMARK VINA RESULT:      -7.0      3.227      5.405
REMARK  Name = 
REMARK  9 active torsions:
REMARK  status: ('A' for Active; 'I' for Inactive)
REMARK    1  A    between atoms: C_1  and  N_2
REMARK    2  A    between atoms: N_2  and  C_3
REMARK    3  A    between atoms: N_2  and  C_21
REMARK    4  A    between atoms: C_3  and  C_4
REMARK    5  A    between atoms: C_4  and  C_5
REMARK    6  A    between atoms: C_5  and  C_6
REMARK    7  A    between atoms: C_6  and  C_7
REMARK    8  A    between atoms: N_9  and  C_10
REMARK    9  A    between atoms: C_13  and  O_14
REMARK                            x       y       z     vdW  Elec       q    Type
REMARK                         _______ _______ _______ _____ _____    ______ ____
ROOT
ATOM      1  C   UNL     1       0.544   8.910  20.326  0.00  0.00    +0.000 C 
ATOM      2  O   UNL     1      -0.171   8.555  21.260  0.00  0.00    +0.000 OA
ATOM      3  N   UNL     1       0.296   9.947  19.440  0.00  0.00    +0.000 N 
ATOM      4  H   UNL     1       0.876   9.973  18.614  0.00  0.00    +0.000 HD
ENDROOT
BRANCH   3   5
ATOM      5  C   UNL     1      -0.823  10.830  19.481  0.00  0.00    +0.000 A 
ATOM      6  C   UNL     1      -0.968  11.728  20.542  0.00  0.00    +0.000 A 
ATOM      7  C   UNL     1      -2.088  12.539  20.646  0.00  0.00    +0.000 A 
ATOM      8  C   UNL     1      -3.072  12.468  19.669  0.00  0.00    +0.000 A 
ATOM      9  C   UNL     1      -2.962  11.629  18.554  0.00  0.00    +0.000 A 
ATOM     10  N   UNL     1      -3.951  11.621  17.632  0.00  0.00    +0.000 NA
ATOM     11  C   UNL     1      -3.851  10.816  16.560  0.00  0.00    +0.000 A 
ATOM     12  C   UNL     1      -2.770   9.996  16.334  0.00  0.00    +0.000 A 
ATOM     13  C   UNL     1      -1.746   9.989  17.281  0.00  0.00    +0.000 A 
ATOM     14  C   UNL     1      -1.809  10.805  18.440  0.00  0.00    +0.000 A 
BRANCH   8  15
ATOM     15  O   UNL     1      -4.189  13.260  19.810  0.00  0.00    +0.000 OA
ATOM     16  H   UNL     1      -4.648  13.023  20.631  0.00  0.00    +0.000 HD
ENDBRANCH   8  15
ENDBRANCH   3   5
BRANCH   1  17
ATOM     17  C   UNL     1       1.826   8.155  20.040  0.00  0.00    +0.000 C 
BRANCH  17  18
ATOM     18  C   UNL     1       2.319   8.389  18.615  0.00  0.00    +0.000 C 
BRANCH  18  19
ATOM     19  C   UNL     1       2.277   7.087  17.815  0.00  0.00    +0.000 C 
BRANCH  19  20
ATOM     20  C   UNL     1       3.654   6.419  17.756  0.00  0.00    +0.000 C 
BRANCH  20  22
ATOM     21  C   UNL     1       4.554   4.165  17.193  0.00  0.00    +0.000 C 
ATOM     22  N   UNL     1       3.542   4.961  17.882  0.00  0.00    +0.000 N 
BRANCH  22  23
ATOM     23  C   UNL     1       2.744   4.377  18.867  0.00  0.00    +0.000 A 
ATOM     24  C   UNL     1       2.985   4.568  20.239  0.00  0.00    +0.000 A 
ATOM     25  C   UNL     1       2.176   3.994  21.231  0.00  0.00    +0.000 A 
ATOM     26  C   UNL     1       1.099   3.192  20.875  0.00  0.00    +0.000 A 
ATOM     27  C   UNL     1       0.840   2.964  19.531  0.00  0.00    +0.000 A 
ATOM     28  C   UNL     1       1.655   3.544  18.550  0.00  0.00    +0.000 A 
ENDBRANCH  22  23
ENDBRANCH  20  22
ENDBRANCH  19  20
ENDBRANCH  18  19
ENDBRANCH  17  18
ENDBRANCH   1  17
TORSDOF 8
ENDMDL
MODEL 8
REMARK VINA RESULT:      -6.9      3.486      5.632
REMARK  Name = 
REMARK  9 active torsions:
REMARK  status: ('A' for Active; 'I' for Inactive)
REMARK    1  A    between atoms: C_1  and  N_2
REMARK    2  A    between atoms: N_2  and  C_3
REMARK    3  A    between atoms: N_2  and  C_21
REMARK    4  A    between atoms: C_3  and  C_4
REMARK    5  A    between atoms: C_4  and  C_5
REMARK    6  A    between atoms: C_5  and  C_6
REMARK    7  A    between atoms: C_6  and  C_7
REMARK    8  A    between atoms: N_9  and  C_10
REMARK    9  A    between atoms: C_13  and  O_14
REMARK                            x       y       z     vdW  Elec       q    Type
REMARK                         _______ _______ _______ _____ _____    ______ ____
ROOT
ATOM      1  C   UNL     1       0.985   9.600  18.662  0.00  0.00    +0.000 C 
ATOM      2  O   UNL     1       0.833   9.172  19.804  0.00  0.00    +0.000 OA
ATOM      3  N   UNL     1       0.192  10.534  18.015  0.00  0.00    +0.000 N 
ATOM      4  H   UNL     1       0.331  10.620  17.018  0.00  0.00    +0.000 HD
ENDROOT
BRANCH   3   5
ATOM      5  C   UNL     1      -0.929  11.211  18.578  0.00  0.00    +0.000 A 
ATOM      6  C   UNL     1      -0.807  11.867  19.807  0.00  0.00    +0.000 A 
ATOM      7  C   UNL     1      -1.903  12.462  20.412  0.00  0.00    +0.000 A 
ATOM      8  C   UNL     1      -3.137  12.419  19.778  0.00  0.00    +0.000 A 
ATOM      9  C   UNL     1      -3.315  11.825  18.524  0.00  0.00    +0.000 A 
ATOM     10  N   UNL     1      -4.543  11.833  17.956  0.00  0.00    +0.000 NA
ATOM     11  C   UNL     1      -4.719  11.263  16.752  0.00  0.00    +0.000 A 
ATOM     12  C   UNL     1      -3.698  10.675  16.041  0.00  0.00    +0.000 A 
ATOM     13  C   UNL     1      -2.429  10.654  16.618  0.00  0.00    +0.000 A 
ATOM     14  C   UNL     1      -2.191  11.224  17.895  0.00  0.00    +0.000 A 
BRANCH   8  15
ATOM     15  O   UNL     1      -4.216  12.989  20.414  0.00  0.00    +0.000 OA
ATOM     16  H   UNL     1      -3.923  13.774  20.903  0.00  0.00    +0.000 HD
ENDBRANCH   8  15
ENDBRANCH   3   5
BRANCH   1  17
ATOM     17  C   UNL     1       2.119   9.065  17.811  0.00  0.00    +0.000 C 
BRANCH  17  18
ATOM     18  C   UNL     1       2.691   7.768  18.373  0.00  0.00    +0.000 C 
BRANCH  18  19
ATOM     19  C   UNL     1       3.716   7.174  17.408  0.00  0.00    +0.000 C 
BRANCH  19  20
ATOM     20  C   UNL     1       4.467   5.997  18.039  0.00  0.00    +0.000 C 
BRANCH  20  22
ATOM     21  C   UNL     1       4.371   3.898  16.700  0.00  0.00    +0.000 C 
ATOM     22  N   UNL     1       3.792   4.725  17.756  0.00  0.00    +0.000 N 
BRANCH  22  23
ATOM     23  C   UNL     1       2.878   4.172  18.653  0.00  0.00    +0.000 A 
ATOM     24  C   UNL     1       1.873   3.277  18.244  0.00  0.00    +0.000 A 
ATOM     25  C   UNL     1       0.961   2.709  19.146  0.00  0.00    +0.000 A 
ATOM     26  C   UNL     1       1.021   3.032  20.495  0.00  0.00    +0.000 A 
ATOM     27  C   UNL     1       1.986   3.925  20.935  0.00  0.00    +0.000 A 
ATOM     28  C   UNL     1       2.892   4.486  20.025  0.00  0.00    +0.000 A 
ENDBRANCH  22  23
ENDBRANCH  20  22
ENDBRANCH  19  20
ENDBRANCH  18  19
ENDBRANCH  17  18
ENDBRANCH   1  17
TORSDOF 8
ENDMDL
MODEL 9
REMARK VINA RESULT:      -6.9      5.964      7.959
REMARK  Name = 
REMARK  9 active torsions:
REMARK  status: ('A' for Active; 'I' for Inactive)
REMARK    1  A    between atoms: C_1  and  N_2
REMARK    2  A    between atoms: N_2  and  C_3
REMARK    3  A    between atoms: N_2  and  C_21
REMARK    4  A    between atoms: C_3  and  C_4
REMARK    5  A    between atoms: C_4  and  C_5
REMARK    6  A    between atoms: C_5  and  C_6
REMARK    7  A    between atoms: C_6  and  C_7
REMARK    8  A    between atoms: N_9  and  C_10
REMARK    9  A    between atoms: C_13  and  O_14
REMARK                            x       y       z     vdW  Elec       q    Type
REMARK                         _______ _______ _______ _____ _____    ______ ____
ROOT
ATOM      1  C   UNL     1       8.186   9.311  18.109  0.00  0.00    +0.000 C 
ATOM      2  O   UNL     1       7.501  10.209  17.624  0.00  0.00    +0.000 OA
ATOM      3  N   UNL     1       9.163   9.448  19.084  0.00  0.00    +0.000 N 
ATOM      4  H   UNL     1       9.769   8.652  19.219  0.00  0.00    +0.000 HD
ENDROOT
BRANCH   3   5
ATOM      5  C   UNL     1       9.522  10.661  19.741  0.00  0.00    +0.000 A 
ATOM      6  C   UNL     1       9.099  10.899  21.052  0.00  0.00    +0.000 A 
ATOM      7  C   UNL     1       9.367  12.104  21.683  0.00  0.00    +0.000 A 
ATOM      8  C   UNL     1      10.082  13.083  21.005  0.00  0.00    +0.000 A 
ATOM      9  C   UNL     1      10.578  12.887  19.711  0.00  0.00    +0.000 A 
ATOM     10  N   UNL     1      11.280  13.878  19.115  0.00  0.00    +0.000 NA
ATOM     11  C   UNL     1      11.758  13.695  17.873  0.00  0.00    +0.000 A 
ATOM     12  C   UNL     1      11.586  12.529  17.164  0.00  0.00    +0.000 A 
ATOM     13  C   UNL     1      10.858  11.502  17.764  0.00  0.00    +0.000 A 
ATOM     14  C   UNL     1      10.315  11.648  19.067  0.00  0.00    +0.000 A 
BRANCH   8  15
ATOM     15  O   UNL     1      10.307  14.283  21.640  0.00  0.00    +0.000 OA
ATOM     16  H   UNL     1       9.885  14.996  21.138  0.00  0.00    +0.000 HD
ENDBRANCH   8  15
ENDBRANCH   3   5
BRANCH   1  17
ATOM     17  C   UNL     1       8.016   7.891  17.609  0.00  0.00    +0.000 C 
BRANCH  17  18
ATOM     18  C   UNL     1       8.147   6.871  18.735  0.00  0.00    +0.000 C 
BRANCH  18  19
ATOM     19  C   UNL     1       6.979   5.885  18.701  0.00  0.00    +0.000 C 
BRANCH  19  20
ATOM     20  C   UNL     1       7.050   4.972  17.473  0.00  0.00    +0.000 C 
BRANCH  20  22
ATOM     21  C   UNL     1       6.170   5.246  15.158  0.00  0.00    +0.000 C 
ATOM     22  N   UNL     1       5.895   5.178  16.591  0.00  0.00    +0.000 N 
BRANCH  22  23
ATOM     23  C   UNL     1       4.590   4.977  17.043  0.00  0.00    +0.000 A 
ATOM     24  C   UNL     1       3.962   3.720  16.988  0.00  0.00    +0.000 A 
ATOM     25  C   UNL     1       2.657   3.511  17.455  0.00  0.00    +0.000 A 
ATOM     26  C   UNL     1       1.928   4.568  17.985  0.00  0.00    +0.000 A 
ATOM     27  C   UNL     1       2.506   5.828  18.040  0.00  0.00    +0.000 A 
ATOM     28  C   UNL     1       3.812   6.024  17.571  0.00  0.00    +0.000 A 
ENDBRANCH  22  23
ENDBRANCH  20  22
ENDBRANCH  19  20
ENDBRANCH  18  19
ENDBRANCH  17  18
ENDBRANCH   1  17
TORSDOF 8
ENDMDL
