MODEL 1
REMARK VINA RESULT:      -8.2      0.000      0.000
REMARK  Name = 
REMARK  5 active torsions:
REMARK  status: ('A' for Active; 'I' for Inactive)
REMARK    1  A    between atoms: N_6  and  C_7
REMARK    2  A    between atoms: C_7  and  C_8
REMARK    3  A    between atoms: N_10  and  C_11
REMARK    4  A    between atoms: C_16  and  O_17
REMARK    5  A    between atoms: O_17  and  C_18
REMARK                            x       y       z     vdW  Elec       q    Type
REMARK                         _______ _______ _______ _____ _____    ______ ____
ROOT
ATOM      1  C   UNL     1       5.146   4.512  16.953  0.00  0.00    +0.000 C 
ATOM      2  C   UNL     1       5.014   5.889  17.615  0.00  0.00    +0.000 C 
ATOM      3  C   UNL     1       6.048   6.048  18.722  0.00  0.00    +0.000 C 
ATOM      4  O   UNL     1       7.367   5.876  18.215  0.00  0.00    +0.000 OA
ATOM      5  C   UNL     1       7.573   4.589  17.621  0.00  0.00    +0.000 C 
ATOM      6  C   UNL     1       6.602   4.313  16.459  0.00  0.00    +0.000 C 
ENDROOT
BRANCH   1   9
ATOM      7  C   UNL     1       3.445   2.887  17.888  0.00  0.00    +0.000 C 
ATOM      8  O   UNL     1       2.610   3.130  17.017  0.00  0.00    +0.000 OA
ATOM      9  N   UNL     1       4.686   3.479  17.896  0.00  0.00    +0.000 N 
ATOM     10  H   UNL     1       5.255   3.346  18.733  0.00  0.00    +0.000 HD
BRANCH   7  11
ATOM     11  C   UNL     1       3.188   1.807  18.928  0.00  0.00    +0.000 C 
BRANCH  11  17
ATOM     12  N   UNL     1       0.336   2.851  19.429  0.00  0.00    +0.000 N 
ATOM     13  C   UNL     1       1.307   2.779  20.357  0.00  0.00    +0.000 A 
ATOM     14  N   UNL     1       1.240   3.159  21.614  0.00  0.00    +0.000 NA
ATOM     15  N   UNL     1       2.454   2.863  22.179  0.00  0.00    +0.000 NA
ATOM     16  N   UNL     1       3.271   2.318  21.291  0.00  0.00    +0.000 NA
ATOM     17  N   UNL     1       2.568   2.287  20.138  0.00  0.00    +0.000 N 
ATOM     18  H   UNL     1      -0.590   3.079  19.787  0.00  0.00    +0.000 HD
ATOM     19  H   UNL     1       0.293   2.211  18.643  0.00  0.00    +0.000 HD
ENDBRANCH  11  17
ENDBRANCH   7  11
ENDBRANCH   1   9
BRANCH   6  20
ATOM     20  O   UNL     1       6.923   5.254  15.410  0.00  0.00    +0.000 OA
BRANCH  20  21
ATOM     21  C   UNL     1       6.917   4.794  14.123  0.00  0.00    +0.000 A 
ATOM     22  C   UNL     1       7.769   5.465  13.238  0.00  0.00    +0.000 A 
ATOM     23  C   UNL     1       7.833   5.093  11.890  0.00  0.00    +0.000 A 
ATOM     24  C   UNL     1       7.023   4.067  11.419  0.00  0.00    +0.000 A 
ATOM     25  C   UNL     1       6.165   3.413  12.299  0.00  0.00    +0.000 A 
ATOM     26  F   UNL     1       5.374   2.438  11.844  0.00  0.00    +0.000 F 
ATOM     27  C   UNL     1       6.109   3.766  13.643  0.00  0.00    +0.000 A 
ENDBRANCH  20  21
ENDBRANCH   6  20
TORSDOF 5
ENDMDL
MODEL 2
REMARK VINA RESULT:      -8.0      0.692      1.269
REMARK  Name = 
REMARK  5 active torsions:
REMARK  status: ('A' for Active; 'I' for Inactive)
REMARK    1  A    between atoms: N_6  and  C_7
REMARK    2  A    between atoms: C_7  and  C_8
REMARK    3  A    between atoms: N_10  and  C_11
REMARK    4  A    between atoms: C_16  and  O_17
REMARK    5  A    between atoms: O_17  and  C_18
REMARK                            x       y       z     vdW  Elec       q    Type
REMARK                         _______ _______ _______ _____ _____    ______ ____
ROOT
ATOM      1  C   UNL     1       5.045   4.332  16.640  0.00  0.00    +0.000 C 
ATOM      2  C   UNL     1       4.645   5.720  17.158  0.00  0.00    +0.000 C 
ATOM      3  C   UNL     1       5.352   6.019  18.473  0.00  0.00    +0.000 C 
ATOM      4  O   UNL     1       6.766   5.945  18.319  0.00  0.00    +0.000 OA
ATOM      5  C   UNL     1       7.212   4.657  17.880  0.00  0.00    +0.000 C 
ATOM      6  C   UNL     1       6.589   4.243  16.535  0.00  0.00    +0.000 C 
ENDROOT
BRANCH   1   9
ATOM      7  C   UNL     1       3.115   2.947  17.514  0.00  0.00    +0.000 C 
ATOM      8  O   UNL     1       2.304   3.423  16.721  0.00  0.00    +0.000 OA
ATOM      9  N   UNL     1       4.443   3.304  17.506  0.00  0.00    +0.000 N 
ATOM     10  H   UNL     1       5.010   2.986  18.291  0.00  0.00    +0.000 HD
BRANCH   7  11
ATOM     11  C   UNL     1       2.707   1.827  18.460  0.00  0.00    +0.000 C 
BRANCH  11  17
ATOM     12  N   UNL     1       4.706   2.078  20.786  0.00  0.00    +0.000 N 
ATOM     13  C   UNL     1       3.388   2.334  20.869  0.00  0.00    +0.000 A 
ATOM     14  N   UNL     1       2.710   2.700  21.934  0.00  0.00    +0.000 NA
ATOM     15  N   UNL     1       1.410   2.876  21.533  0.00  0.00    +0.000 NA
ATOM     16  N   UNL     1       1.274   2.616  20.242  0.00  0.00    +0.000 NA
ATOM     17  N   UNL     1       2.505   2.249  19.824  0.00  0.00    +0.000 N 
ATOM     18  H   UNL     1       5.252   2.351  21.602  0.00  0.00    +0.000 HD
ATOM     19  H   UNL     1       5.225   2.198  19.924  0.00  0.00    +0.000 HD
ENDBRANCH  11  17
ENDBRANCH   7  11
ENDBRANCH   1   9
BRANCH   6  20
ATOM     20  O   UNL     1       7.090   5.163  15.538  0.00  0.00    +0.000 OA
BRANCH  20  21
ATOM     21  C   UNL     1       7.039   4.768  14.231  0.00  0.00    +0.000 A 
ATOM     22  C   UNL     1       7.829   5.510  13.345  0.00  0.00    +0.000 A 
ATOM     23  C   UNL     1       7.843   5.209  11.978  0.00  0.00    +0.000 A 
ATOM     24  C   UNL     1       7.043   4.182  11.491  0.00  0.00    +0.000 A 
ATOM     25  C   UNL     1       6.246   3.458  12.373  0.00  0.00    +0.000 A 
ATOM     26  F   UNL     1       5.464   2.482  11.903  0.00  0.00    +0.000 F 
ATOM     27  C   UNL     1       6.241   3.741  13.735  0.00  0.00    +0.000 A 
ENDBRANCH  20  21
ENDBRANCH   6  20
TORSDOF 5
ENDMDL
MODEL 3
REMARK VINA RESULT:      -7.8      4.186      7.747
REMARK  Name = 
REMARK  5 active torsions:
REMARK  status: ('A' for Active; 'I' for Inactive)
REMARK    1  A    between atoms: N_6  and  C_7
REMARK    2  A    between atoms: C_7  and  C_8
REMARK    3  A    between atoms: N_10  and  C_11
REMARK    4  A    between atoms: C_16  and  O_17
REMARK    5  A    between atoms: O_17  and  C_18
REMARK                            x       y       z     vdW  Elec       q    Type
REMARK                         _______ _______ _______ _____ _____    ______ ____
ROOT
ATOM      1  C   UNL     1       3.734   4.554  17.306  0.00  0.00    +0.000 C 
ATOM      2  C   UNL     1       2.915   3.263  17.170  0.00  0.00    +0.000 C 
ATOM      3  C   UNL     1       3.521   2.157  18.024  0.00  0.00    +0.000 C 
ATOM      4  O   UNL     1       3.589   2.550  19.391  0.00  0.00    +0.000 OA
ATOM      5  C   UNL     1       4.379   3.726  19.595  0.00  0.00    +0.000 C 
ATOM      6  C   UNL     1       3.852   4.936  18.803  0.00  0.00    +0.000 C 
ENDROOT
BRANCH   1   9
ATOM      7  C   UNL     1       5.730   5.359  15.973  0.00  0.00    +0.000 C 
ATOM      8  O   UNL     1       5.353   6.530  15.957  0.00  0.00    +0.000 OA
ATOM      9  N   UNL     1       5.030   4.374  16.629  0.00  0.00    +0.000 N 
ATOM     10  H   UNL     1       5.322   3.411  16.461  0.00  0.00    +0.000 HD
BRANCH   7  11
ATOM     11  C   UNL     1       7.074   4.970  15.376  0.00  0.00    +0.000 C 
BRANCH  11  17
ATOM     12  N   UNL     1       8.696   5.978  12.962  0.00  0.00    +0.000 N 
ATOM     13  C   UNL     1       7.718   5.056  12.905  0.00  0.00    +0.000 A 
ATOM     14  N   UNL     1       7.254   4.447  11.837  0.00  0.00    +0.000 NA
ATOM     15  N   UNL     1       6.290   3.573  12.269  0.00  0.00    +0.000 NA
ATOM     16  N   UNL     1       6.143   3.640  13.582  0.00  0.00    +0.000 NA
ATOM     17  N   UNL     1       7.016   4.588  13.987  0.00  0.00    +0.000 N 
ATOM     18  H   UNL     1       9.233   6.093  12.104  0.00  0.00    +0.000 HD
ATOM     19  H   UNL     1       9.269   6.106  13.789  0.00  0.00    +0.000 HD
ENDBRANCH  11  17
ENDBRANCH   7  11
ENDBRANCH   1   9
BRANCH   6  20
ATOM     20  O   UNL     1       2.557   5.267  19.353  0.00  0.00    +0.000 OA
BRANCH  20  21
ATOM     21  C   UNL     1       2.204   6.587  19.392  0.00  0.00    +0.000 A 
ATOM     22  C   UNL     1       1.676   7.036  20.609  0.00  0.00    +0.000 A 
ATOM     23  C   UNL     1       1.263   8.364  20.760  0.00  0.00    +0.000 A 
ATOM     24  C   UNL     1       1.351   9.240  19.684  0.00  0.00    +0.000 A 
ATOM     25  C   UNL     1       1.861   8.786  18.472  0.00  0.00    +0.000 A 
ATOM     26  F   UNL     1       1.930   9.622  17.432  0.00  0.00    +0.000 F 
ATOM     27  C   UNL     1       2.289   7.471  18.319  0.00  0.00    +0.000 A 
ENDBRANCH  20  21
ENDBRANCH   6  20
TORSDOF 5
ENDMDL
MODEL 4
REMARK VINA RESULT:      -7.8      0.903      1.322
REMARK  Name = 
REMARK  5 active torsions:
REMARK  status: ('A' for Active; 'I' for Inactive)
REMARK    1  A    between atoms: N_6  and  C_7
REMARK    2  A    between atoms: C_7  and  C_8
REMARK    3  A    between atoms: N_10  and  C_11
REMARK    4  A    between atoms: C_16  and  O_17
REMARK    5  A    between atoms: O_17  and  C_18
REMARK                            x       y       z     vdW  Elec       q    Type
REMARK                         _______ _______ _______ _____ _____    ______ ____
ROOT
ATOM      1  C   UNL     1       5.418   4.488  16.934  0.00  0.00    +0.000 C 
ATOM      2  C   UNL     1       5.228   5.865  17.583  0.00  0.00    +0.000 C 
ATOM      3  C   UNL     1       6.191   6.039  18.750  0.00  0.00    +0.000 C 
ATOM      4  O   UNL     1       7.540   5.883  18.324  0.00  0.00    +0.000 OA
ATOM      5  C   UNL     1       7.799   4.598  17.748  0.00  0.00    +0.000 C 
ATOM      6  C   UNL     1       6.904   4.307  16.530  0.00  0.00    +0.000 C 
ENDROOT
BRANCH   1   9
ATOM      7  C   UNL     1       3.617   3.002  17.911  0.00  0.00    +0.000 C 
ATOM      8  O   UNL     1       2.752   3.394  17.129  0.00  0.00    +0.000 OA
ATOM      9  N   UNL     1       4.916   3.450  17.850  0.00  0.00    +0.000 N 
ATOM     10  H   UNL     1       5.527   3.199  18.627  0.00  0.00    +0.000 HD
BRANCH   7  11
ATOM     11  C   UNL     1       3.317   1.889  18.904  0.00  0.00    +0.000 C 
BRANCH  11  17
ATOM     12  N   UNL     1       0.393   2.746  19.340  0.00  0.00    +0.000 N 
ATOM     13  C   UNL     1       1.346   2.739  20.289  0.00  0.00    +0.000 A 
ATOM     14  N   UNL     1       1.227   3.115  21.543  0.00  0.00    +0.000 NA
ATOM     15  N   UNL     1       2.445   2.899  22.136  0.00  0.00    +0.000 NA
ATOM     16  N   UNL     1       3.314   2.408  21.268  0.00  0.00    +0.000 NA
ATOM     17  N   UNL     1       2.640   2.329  20.099  0.00  0.00    +0.000 N 
ATOM     18  H   UNL     1      -0.554   2.914  19.677  0.00  0.00    +0.000 HD
ATOM     19  H   UNL     1       0.409   2.104  18.555  0.00  0.00    +0.000 HD
ENDBRANCH  11  17
ENDBRANCH   7  11
ENDBRANCH   1   9
BRANCH   6  20
ATOM     20  O   UNL     1       7.275   5.251  15.499  0.00  0.00    +0.000 OA
BRANCH  20  21
ATOM     21  C   UNL     1       7.059   4.887  14.200  0.00  0.00    +0.000 A 
ATOM     22  C   UNL     1       6.281   3.738  14.016  0.00  0.00    +0.000 A 
ATOM     23  C   UNL     1       6.008   3.260  12.729  0.00  0.00    +0.000 A 
ATOM     24  C   UNL     1       6.539   3.914  11.624  0.00  0.00    +0.000 A 
ATOM     25  C   UNL     1       7.325   5.047  11.812  0.00  0.00    +0.000 A 
ATOM     26  F   UNL     1       7.850   5.667  10.751  0.00  0.00    +0.000 F 
ATOM     27  C   UNL     1       7.586   5.538  13.087  0.00  0.00    +0.000 A 
ENDBRANCH  20  21
ENDBRANCH   6  20
TORSDOF 5
ENDMDL
MODEL 5
REMARK VINA RESULT:      -7.7      1.125      1.500
REMARK  Name = 
REMARK  5 active torsions:
REMARK  status: ('A' for Active; 'I' for Inactive)
REMARK    1  A    between atoms: N_6  and  C_7
REMARK    2  A    between atoms: C_7  and  C_8
REMARK    3  A    between atoms: N_10  and  C_11
REMARK    4  A    between atoms: C_16  and  O_17
REMARK    5  A    between atoms: O_17  and  C_18
REMARK                            x       y       z     vdW  Elec       q    Type
REMARK                         _______ _______ _______ _____ _____    ______ ____
ROOT
ATOM      1  C   UNL     1       4.879   4.220  16.366  0.00  0.00    +0.000 C 
ATOM      2  C   UNL     1       4.684   5.698  16.731  0.00  0.00    +0.000 C 
ATOM      3  C   UNL     1       5.841   6.189  17.591  0.00  0.00    +0.000 C 
ATOM      4  O   UNL     1       7.085   6.012  16.920  0.00  0.00    +0.000 OA
ATOM      5  C   UNL     1       7.350   4.645  16.590  0.00  0.00    +0.000 C 
ATOM      6  C   UNL     1       6.262   4.031  15.692  0.00  0.00    +0.000 C 
ENDROOT
BRANCH   1   9
ATOM      7  C   UNL     1       3.555   2.667  17.863  0.00  0.00    +0.000 C 
ATOM      8  O   UNL     1       2.610   2.580  17.080  0.00  0.00    +0.000 OA
ATOM      9  N   UNL     1       4.683   3.397  17.572  0.00  0.00    +0.000 N 
ATOM     10  H   UNL     1       5.344   3.547  18.333  0.00  0.00    +0.000 HD
BRANCH   7  11
ATOM     11  C   UNL     1       3.574   1.848  19.146  0.00  0.00    +0.000 C 
BRANCH  11  17
ATOM     12  N   UNL     1       0.580   2.561  19.098  0.00  0.00    +0.000 N 
ATOM     13  C   UNL     1       1.392   2.706  20.161  0.00  0.00    +0.000 A 
ATOM     14  N   UNL     1       1.085   3.196  21.341  0.00  0.00    +0.000 NA
ATOM     15  N   UNL     1       2.218   3.116  22.109  0.00  0.00    +0.000 NA
ATOM     16  N   UNL     1       3.221   2.596  21.420  0.00  0.00    +0.000 NA
ATOM     17  N   UNL     1       2.719   2.361  20.188  0.00  0.00    +0.000 N 
ATOM     18  H   UNL     1      -0.411   2.702  19.288  0.00  0.00    +0.000 HD
ATOM     19  H   UNL     1       0.735   1.847  18.395  0.00  0.00    +0.000 HD
ENDBRANCH  11  17
ENDBRANCH   7  11
ENDBRANCH   1   9
BRANCH   6  20
ATOM     20  O   UNL     1       6.316   4.730  14.427  0.00  0.00    +0.000 OA
BRANCH  20  21
ATOM     21  C   UNL     1       6.138   3.994  13.289  0.00  0.00    +0.000 A 
ATOM     22  C   UNL     1       4.816   3.879  12.844  0.00  0.00    +0.000 A 
ATOM     23  C   UNL     1       4.511   3.134  11.700  0.00  0.00    +0.000 A 
ATOM     24  C   UNL     1       5.526   2.477  11.014  0.00  0.00    +0.000 A 
ATOM     25  C   UNL     1       6.837   2.580  11.469  0.00  0.00    +0.000 A 
ATOM     26  F   UNL     1       7.811   1.936  10.820  0.00  0.00    +0.000 F 
ATOM     27  C   UNL     1       7.150   3.334  12.596  0.00  0.00    +0.000 A 
ENDBRANCH  20  21
ENDBRANCH   6  20
TORSDOF 5
ENDMDL
MODEL 6
REMARK VINA RESULT:      -7.6      3.990      7.564
REMARK  Name = 
REMARK  5 active torsions:
REMARK  status: ('A' for Active; 'I' for Inactive)
REMARK    1  A    between atoms: N_6  and  C_7
REMARK    2  A    between atoms: C_7  and  C_8
REMARK    3  A    between atoms: N_10  and  C_11
REMARK    4  A    between atoms: C_16  and  O_17
REMARK    5  A    between atoms: O_17  and  C_18
REMARK                            x       y       z     vdW  Elec       q    Type
REMARK                         _______ _______ _______ _____ _____    ______ ____
ROOT
ATOM      1  C   UNL     1       3.407   4.267  17.846  0.00  0.00    +0.000 C 
ATOM      2  C   UNL     1       2.270   3.290  17.519  0.00  0.00    +0.000 C 
ATOM      3  C   UNL     1       2.498   1.956  18.218  0.00  0.00    +0.000 C 
ATOM      4  O   UNL     1       2.599   2.132  19.628  0.00  0.00    +0.000 OA
ATOM      5  C   UNL     1       3.673   3.000  20.006  0.00  0.00    +0.000 C 
ATOM      6  C   UNL     1       3.546   4.402  19.384  0.00  0.00    +0.000 C 
ENDROOT
BRANCH   1   9
ATOM      7  C   UNL     1       5.324   4.528  16.213  0.00  0.00    +0.000 C 
ATOM      8  O   UNL     1       4.997   5.667  15.882  0.00  0.00    +0.000 OA
ATOM      9  N   UNL     1       4.636   3.819  17.170  0.00  0.00    +0.000 N 
ATOM     10  H   UNL     1       4.872   2.832  17.271  0.00  0.00    +0.000 HD
BRANCH   7  11
ATOM     11  C   UNL     1       6.599   3.900  15.671  0.00  0.00    +0.000 C 
BRANCH  11  17
ATOM     12  N   UNL     1       5.981   3.087  12.767  0.00  0.00    +0.000 N 
ATOM     13  C   UNL     1       6.803   4.088  13.132  0.00  0.00    +0.000 A 
ATOM     14  N   UNL     1       7.507   4.871  12.345  0.00  0.00    +0.000 NA
ATOM     15  N   UNL     1       8.164   5.759  13.157  0.00  0.00    +0.000 NA
ATOM     16  N   UNL     1       7.886   5.530  14.431  0.00  0.00    +0.000 NA
ATOM     17  N   UNL     1       7.054   4.466  14.425  0.00  0.00    +0.000 N 
ATOM     18  H   UNL     1       5.768   3.042  11.772  0.00  0.00    +0.000 HD
ATOM     19  H   UNL     1       5.192   2.802  13.338  0.00  0.00    +0.000 HD
ENDBRANCH  11  17
ENDBRANCH   7  11
ENDBRANCH   1   9
BRANCH   6  20
ATOM     20  O   UNL     1       2.366   5.011  19.956  0.00  0.00    +0.000 OA
BRANCH  20  21
ATOM     21  C   UNL     1       2.158   6.340  19.713  0.00  0.00    +0.000 A 
ATOM     22  C   UNL     1       1.603   7.068  20.771  0.00  0.00    +0.000 A 
ATOM     23  C   UNL     1       1.329   8.433  20.631  0.00  0.00    +0.000 A 
ATOM     24  C   UNL     1       1.583   9.066  19.420  0.00  0.00    +0.000 A 
ATOM     25  C   UNL     1       2.119   8.335  18.365  0.00  0.00    +0.000 A 
ATOM     26  F   UNL     1       2.348   8.938  17.195  0.00  0.00    +0.000 F 
ATOM     27  C   UNL     1       2.410   6.981  18.503  0.00  0.00    +0.000 A 
ENDBRANCH  20  21
ENDBRANCH   6  20
TORSDOF 5
ENDMDL
MODEL 7
REMARK VINA RESULT:      -7.6      4.447      7.819
REMARK  Name = 
REMARK  5 active torsions:
REMARK  status: ('A' for Active; 'I' for Inactive)
REMARK    1  A    between atoms: N_6  and  C_7
REMARK    2  A    between atoms: C_7  and  C_8
REMARK    3  A    between atoms: N_10  and  C_11
REMARK    4  A    between atoms: C_16  and  O_17
REMARK    5  A    between atoms: O_17  and  C_18
REMARK                            x       y       z     vdW  Elec       q    Type
REMARK                         _______ _______ _______ _____ _____    ______ ____
ROOT
ATOM      1  C   UNL     1       3.747   4.547  17.367  0.00  0.00    +0.000 C 
ATOM      2  C   UNL     1       2.935   3.259  17.182  0.00  0.00    +0.000 C 
ATOM      3  C   UNL     1       3.547   2.124  17.993  0.00  0.00    +0.000 C 
ATOM      4  O   UNL     1       3.615   2.464  19.374  0.00  0.00    +0.000 OA
ATOM      5  C   UNL     1       4.399   3.636  19.622  0.00  0.00    +0.000 C 
ATOM      6  C   UNL     1       3.865   4.873  18.878  0.00  0.00    +0.000 C 
ENDROOT
BRANCH   1   9
ATOM      7  C   UNL     1       5.730   5.410  16.051  0.00  0.00    +0.000 C 
ATOM      8  O   UNL     1       5.340   6.577  16.067  0.00  0.00    +0.000 OA
ATOM      9  N   UNL     1       5.043   4.400  16.682  0.00  0.00    +0.000 N 
ATOM     10  H   UNL     1       5.346   3.446  16.488  0.00  0.00    +0.000 HD
BRANCH   7  11
ATOM     11  C   UNL     1       7.077   5.053  15.441  0.00  0.00    +0.000 C 
BRANCH  11  17
ATOM     12  N   UNL     1       8.730   5.933  12.998  0.00  0.00    +0.000 N 
ATOM     13  C   UNL     1       7.724   5.039  12.970  0.00  0.00    +0.000 A 
ATOM     14  N   UNL     1       7.244   4.409  11.921  0.00  0.00    +0.000 NA
ATOM     15  N   UNL     1       6.254   3.579  12.379  0.00  0.00    +0.000 NA
ATOM     16  N   UNL     1       6.108   3.693  13.690  0.00  0.00    +0.000 NA
ATOM     17  N   UNL     1       7.009   4.628  14.064  0.00  0.00    +0.000 N 
ATOM     18  H   UNL     1       9.271   6.004  12.137  0.00  0.00    +0.000 HD
ATOM     19  H   UNL     1       9.306   6.071  13.821  0.00  0.00    +0.000 HD
ENDBRANCH  11  17
ENDBRANCH   7  11
ENDBRANCH   1   9
BRANCH   6  20
ATOM     20  O   UNL     1       2.569   5.176  19.441  0.00  0.00    +0.000 OA
BRANCH  20  21
ATOM     21  C   UNL     1       2.179   6.486  19.466  0.00  0.00    +0.000 A 
ATOM     22  C   UNL     1       2.372   7.195  18.275  0.00  0.00    +0.000 A 
ATOM     23  C   UNL     1       2.028   8.549  18.188  0.00  0.00    +0.000 A 
ATOM     24  C   UNL     1       1.517   9.203  19.303  0.00  0.00    +0.000 A 
ATOM     25  C   UNL     1       1.342   8.498  20.489  0.00  0.00    +0.000 A 
ATOM     26  F   UNL     1       0.866   9.130  21.566  0.00  0.00    +0.000 F 
ATOM     27  C   UNL     1       1.666   7.148  20.578  0.00  0.00    +0.000 A 
ENDBRANCH  20  21
ENDBRANCH   6  20
TORSDOF 5
ENDMDL
MODEL 8
REMARK VINA RESULT:      -7.6      1.583      2.184
REMARK  Name = 
REMARK  5 active torsions:
REMARK  status: ('A' for Active; 'I' for Inactive)
REMARK    1  A    between atoms: N_6  and  C_7
REMARK    2  A    between atoms: C_7  and  C_8
REMARK    3  A    between atoms: N_10  and  C_11
REMARK    4  A    between atoms: C_16  and  O_17
REMARK    5  A    between atoms: O_17  and  C_18
REMARK                            x       y       z     vdW  Elec       q    Type
REMARK                         _______ _______ _______ _____ _____    ______ ____
ROOT
ATOM      1  C   UNL     1       4.950   6.135  17.152  0.00  0.00    +0.000 C 
ATOM      2  C   UNL     1       6.114   6.997  17.660  0.00  0.00    +0.000 C 
ATOM      3  C   UNL     1       7.203   6.117  18.259  0.00  0.00    +0.000 C 
ATOM      4  O   UNL     1       7.677   5.173  17.304  0.00  0.00    +0.000 OA
ATOM      5  C   UNL     1       6.646   4.304  16.821  0.00  0.00    +0.000 C 
ATOM      6  C   UNL     1       5.488   5.072  16.160  0.00  0.00    +0.000 C 
ENDROOT
BRANCH   1   9
ATOM      7  C   UNL     1       3.204   6.183  18.983  0.00  0.00    +0.000 C 
ATOM      8  O   UNL     1       2.736   7.263  18.625  0.00  0.00    +0.000 OA
ATOM      9  N   UNL     1       4.231   5.570  18.305  0.00  0.00    +0.000 N 
ATOM     10  H   UNL     1       4.663   4.763  18.755  0.00  0.00    +0.000 HD
BRANCH   7  11
ATOM     11  C   UNL     1       2.567   5.403  20.124  0.00  0.00    +0.000 C 
BRANCH  11  17
ATOM     12  N   UNL     1       1.825   2.903  21.759  0.00  0.00    +0.000 N 
ATOM     13  C   UNL     1       1.620   3.052  20.438  0.00  0.00    +0.000 A 
ATOM     14  N   UNL     1       1.107   2.173  19.605  0.00  0.00    +0.000 NA
ATOM     15  N   UNL     1       1.062   2.777  18.374  0.00  0.00    +0.000 NA
ATOM     16  N   UNL     1       1.548   4.007  18.431  0.00  0.00    +0.000 NA
ATOM     17  N   UNL     1       1.925   4.178  19.717  0.00  0.00    +0.000 N 
ATOM     18  H   UNL     1       1.391   2.081  22.175  0.00  0.00    +0.000 HD
ATOM     19  H   UNL     1       1.832   3.692  22.395  0.00  0.00    +0.000 HD
ENDBRANCH  11  17
ENDBRANCH   7  11
ENDBRANCH   1   9
BRANCH   6  20
ATOM     20  O   UNL     1       6.023   5.701  14.972  0.00  0.00    +0.000 OA
BRANCH  20  21
ATOM     21  C   UNL     1       6.243   4.908  13.881  0.00  0.00    +0.000 A 
ATOM     22  C   UNL     1       7.443   5.139  13.199  0.00  0.00    +0.000 A 
ATOM     23  C   UNL     1       7.767   4.400  12.056  0.00  0.00    +0.000 A 
ATOM     24  C   UNL     1       6.876   3.447  11.576  0.00  0.00    +0.000 A 
ATOM     25  C   UNL     1       5.677   3.232  12.248  0.00  0.00    +0.000 A 
ATOM     26  F   UNL     1       4.812   2.328  11.777  0.00  0.00    +0.000 F 
ATOM     27  C   UNL     1       5.356   3.951  13.394  0.00  0.00    +0.000 A 
ENDBRANCH  20  21
ENDBRANCH   6  20
TORSDOF 5
ENDMDL
MODEL 9
REMARK VINA RESULT:      -7.5      4.435      5.869
REMARK  Name = 
REMARK  5 active torsions:
REMARK  status: ('A' for Active; 'I' for Inactive)
REMARK    1  A    between atoms: N_6  and  C_7
REMARK    2  A    between atoms: C_7  and  C_8
REMARK    3  A    between atoms: N_10  and  C_11
REMARK    4  A    between atoms: C_16  and  O_17
REMARK    5  A    between atoms: O_17  and  C_18
REMARK                            x       y       z     vdW  Elec       q    Type
REMARK                         _______ _______ _______ _____ _____    ______ ____
ROOT
ATOM      1  C   UNL     1       2.870   5.812  19.354  0.00  0.00    +0.000 C 
ATOM      2  C   UNL     1       2.513   4.981  20.594  0.00  0.00    +0.000 C 
ATOM      3  C   UNL     1       1.162   4.303  20.408  0.00  0.00    +0.000 C 
ATOM      4  O   UNL     1       1.163   3.475  19.250  0.00  0.00    +0.000 OA
ATOM      5  C   UNL     1       1.445   4.199  18.047  0.00  0.00    +0.000 C 
ATOM      6  C   UNL     1       2.808   4.913  18.093  0.00  0.00    +0.000 C 
ENDROOT
BRANCH   1   9
ATOM      7  C   UNL     1       2.239   8.139  18.584  0.00  0.00    +0.000 C 
ATOM      8  O   UNL     1       3.224   8.256  17.856  0.00  0.00    +0.000 OA
ATOM      9  N   UNL     1       1.987   6.989  19.295  0.00  0.00    +0.000 N 
ATOM     10  H   UNL     1       1.243   7.032  19.992  0.00  0.00    +0.000 HD
BRANCH   7  11
ATOM     11  C   UNL     1       1.172   9.223  18.624  0.00  0.00    +0.000 C 
BRANCH  11  17
ATOM     12  N   UNL     1       0.683  12.180  19.327  0.00  0.00    +0.000 N 
ATOM     13  C   UNL     1       0.843  11.189  20.222  0.00  0.00    +0.000 A 
ATOM     14  N   UNL     1       0.853  11.290  21.533  0.00  0.00    +0.000 NA
ATOM     15  N   UNL     1       1.012  10.020  22.025  0.00  0.00    +0.000 NA
ATOM     16  N   UNL     1       1.110   9.139  21.041  0.00  0.00    +0.000 NA
ATOM     17  N   UNL     1       1.032   9.868  19.907  0.00  0.00    +0.000 N 
ATOM     18  H   UNL     1       0.383  13.072  19.716  0.00  0.00    +0.000 HD
ATOM     19  H   UNL     1       0.290  12.016  18.406  0.00  0.00    +0.000 HD
ENDBRANCH  11  17
ENDBRANCH   7  11
ENDBRANCH   1   9
BRANCH   6  20
ATOM     20  O   UNL     1       3.821   3.883  18.145  0.00  0.00    +0.000 OA
BRANCH  20  21
ATOM     21  C   UNL     1       4.957   4.075  17.410  0.00  0.00    +0.000 A 
ATOM     22  C   UNL     1       6.077   4.506  18.131  0.00  0.00    +0.000 A 
ATOM     23  C   UNL     1       7.291   4.754  17.481  0.00  0.00    +0.000 A 
ATOM     24  C   UNL     1       7.379   4.598  16.103  0.00  0.00    +0.000 A 
ATOM     25  C   UNL     1       6.260   4.184  15.388  0.00  0.00    +0.000 A 
ATOM     26  F   UNL     1       6.339   4.050  14.061  0.00  0.00    +0.000 F 
ATOM     27  C   UNL     1       5.054   3.920  16.030  0.00  0.00    +0.000 A 
ENDBRANCH  20  21
ENDBRANCH   6  20
TORSDOF 5
ENDMDL
