MODEL 1
REMARK VINA RESULT:      -8.6      0.000      0.000
REMARK  Name = 
REMARK  6 active torsions:
REMARK  status: ('A' for Active; 'I' for Inactive)
REMARK    1  A    between atoms: C_2  and  O_3
REMARK    2  A    between atoms: C_2  and  C_4
REMARK    3  A    between atoms: N_6  and  C_7
REMARK    4  A    between atoms: C_7  and  C_8
REMARK    5  A    between atoms: C_8  and  C_9
REMARK    6  A    between atoms: C_20  and  O_21
REMARK                            x       y       z     vdW  Elec       q    Type
REMARK                         _______ _______ _______ _____ _____    ______ ____
ROOT
ATOM      1  C   UNL     1       6.939   6.025  17.564  0.00  0.00    +0.000 A 
ATOM      2  C   UNL     1       6.164   5.471  18.516  0.00  0.00    +0.000 A 
ATOM      3  N   UNL     1       5.391   4.314  18.355  0.00  0.00    +0.000 N 
ATOM      4  C   UNL     1       5.453   3.701  17.112  0.00  0.00    +0.000 A 
ATOM      5  C   UNL     1       6.149   4.133  16.051  0.00  0.00    +0.000 A 
ATOM      6  C   UNL     1       6.962   5.370  16.234  0.00  0.00    +0.000 A 
ATOM      7  O   UNL     1       7.651   5.841  15.329  0.00  0.00    +0.000 OA
ENDROOT
BRANCH   1   9
ATOM      8  O   UNL     1       7.639   8.265  17.185  0.00  0.00    +0.000 OA
ATOM      9  C   UNL     1       7.710   7.248  17.862  0.00  0.00    +0.000 C 
BRANCH   9  10
ATOM     10  O   UNL     1       8.512   7.162  18.947  0.00  0.00    +0.000 OA
ATOM     11  H   UNL     1       9.098   6.364  18.956  0.00  0.00    +0.000 HD
ENDBRANCH   9  10
ENDBRANCH   1   9
BRANCH   5  12
ATOM     12  O   UNL     1       6.132   3.502  14.829  0.00  0.00    +0.000 OA
ATOM     13  H   UNL     1       6.312   2.556  14.965  0.00  0.00    +0.000 HD
ENDBRANCH   5  12
BRANCH   3  14
ATOM     14  C   UNL     1       4.486   3.889  19.468  0.00  0.00    +0.000 C 
BRANCH  14  15
ATOM     15  C   UNL     1       2.952   4.220  19.345  0.00  0.00    +0.000 C 
ATOM     16  C   UNL     1       2.382   3.483  18.102  0.00  0.00    +0.000 C 
ATOM     17  C   UNL     1       0.924   3.167  18.421  0.00  0.00    +0.000 C 
ATOM     18  C   UNL     1       0.846   3.010  19.929  0.00  0.00    +0.000 C 
ATOM     19  C   UNL     1       2.179   3.495  20.489  0.00  0.00    +0.000 C 
BRANCH  15  20
ATOM     20  C   UNL     1       2.681   5.739  19.227  0.00  0.00    +0.000 A 
ATOM     21  C   UNL     1       2.211   6.480  20.332  0.00  0.00    +0.000 A 
ATOM     22  C   UNL     1       1.796   7.809  20.199  0.00  0.00    +0.000 A 
ATOM     23  C   UNL     1       1.875   8.445  18.968  0.00  0.00    +0.000 A 
ATOM     24  C   UNL     1       2.399   7.761  17.877  0.00  0.00    +0.000 A 
ATOM     25  C   UNL     1       2.805   6.429  18.008  0.00  0.00    +0.000 A 
ENDBRANCH  15  20
ENDBRANCH  14  15
ENDBRANCH   3  14
TORSDOF 6
ENDMDL
MODEL 2
REMARK VINA RESULT:      -8.4      0.232      1.222
REMARK  Name = 
REMARK  6 active torsions:
REMARK  status: ('A' for Active; 'I' for Inactive)
REMARK    1  A    between atoms: C_2  and  O_3
REMARK    2  A    between atoms: C_2  and  C_4
REMARK    3  A    between atoms: N_6  and  C_7
REMARK    4  A    between atoms: C_7  and  C_8
REMARK    5  A    between atoms: C_8  and  C_9
REMARK    6  A    between atoms: C_20  and  O_21
REMARK                            x       y       z     vdW  Elec       q    Type
REMARK                         _______ _______ _______ _____ _____    ______ ____
ROOT
ATOM      1  C   UNL     1       6.870   5.973  17.610  0.00  0.00    +0.000 A 
ATOM      2  C   UNL     1       6.126   5.403  18.577  0.00  0.00    +0.000 A 
ATOM      3  N   UNL     1       5.317   4.272  18.410  0.00  0.00    +0.000 N 
ATOM      4  C   UNL     1       5.306   3.704  17.144  0.00  0.00    +0.000 A 
ATOM      5  C   UNL     1       5.964   4.159  16.068  0.00  0.00    +0.000 A 
ATOM      6  C   UNL     1       6.816   5.368  16.258  0.00  0.00    +0.000 A 
ATOM      7  O   UNL     1       7.474   5.856  15.339  0.00  0.00    +0.000 OA
ENDROOT
BRANCH   1   9
ATOM      8  O   UNL     1       8.425   7.240  18.887  0.00  0.00    +0.000 OA
ATOM      9  C   UNL     1       7.685   7.166  17.915  0.00  0.00    +0.000 C 
BRANCH   9  10
ATOM     10  O   UNL     1       7.550   8.185  17.037  0.00  0.00    +0.000 OA
ATOM     11  H   UNL     1       6.613   8.468  16.885  0.00  0.00    +0.000 HD
ENDBRANCH   9  10
ENDBRANCH   1   9
BRANCH   5  12
ATOM     12  O   UNL     1       5.875   3.574  14.826  0.00  0.00    +0.000 OA
ATOM     13  H   UNL     1       5.529   2.672  14.932  0.00  0.00    +0.000 HD
ENDBRANCH   5  12
BRANCH   3  14
ATOM     14  C   UNL     1       4.454   3.827  19.548  0.00  0.00    +0.000 C 
BRANCH  14  15
ATOM     15  C   UNL     1       2.897   4.025  19.420  0.00  0.00    +0.000 C 
ATOM     16  C   UNL     1       2.385   3.181  18.222  0.00  0.00    +0.000 C 
ATOM     17  C   UNL     1       0.959   2.764  18.567  0.00  0.00    +0.000 C 
ATOM     18  C   UNL     1       0.899   2.680  20.082  0.00  0.00    +0.000 C 
ATOM     19  C   UNL     1       2.190   3.300  20.606  0.00  0.00    +0.000 C 
BRANCH  15  20
ATOM     20  C   UNL     1       2.503   5.509  19.227  0.00  0.00    +0.000 A 
ATOM     21  C   UNL     1       2.602   6.128  17.963  0.00  0.00    +0.000 A 
ATOM     22  C   UNL     1       2.418   7.506  17.805  0.00  0.00    +0.000 A 
ATOM     23  C   UNL     1       2.092   8.295  18.899  0.00  0.00    +0.000 A 
ATOM     24  C   UNL     1       1.919   7.702  20.143  0.00  0.00    +0.000 A 
ATOM     25  C   UNL     1       2.113   6.326  20.303  0.00  0.00    +0.000 A 
ENDBRANCH  15  20
ENDBRANCH  14  15
ENDBRANCH   3  14
TORSDOF 6
ENDMDL
MODEL 3
REMARK VINA RESULT:      -8.2      1.115      1.512
REMARK  Name = 
REMARK  6 active torsions:
REMARK  status: ('A' for Active; 'I' for Inactive)
REMARK    1  A    between atoms: C_2  and  O_3
REMARK    2  A    between atoms: C_2  and  C_4
REMARK    3  A    between atoms: N_6  and  C_7
REMARK    4  A    between atoms: C_7  and  C_8
REMARK    5  A    between atoms: C_8  and  C_9
REMARK    6  A    between atoms: C_20  and  O_21
REMARK                            x       y       z     vdW  Elec       q    Type
REMARK                         _______ _______ _______ _____ _____    ______ ____
ROOT
ATOM      1  C   UNL     1       6.755   5.370  18.286  0.00  0.00    +0.000 A 
ATOM      2  C   UNL     1       5.789   4.471  18.553  0.00  0.00    +0.000 A 
ATOM      3  N   UNL     1       4.870   3.974  17.621  0.00  0.00    +0.000 N 
ATOM      4  C   UNL     1       4.990   4.451  16.323  0.00  0.00    +0.000 A 
ATOM      5  C   UNL     1       5.874   5.364  15.896  0.00  0.00    +0.000 A 
ATOM      6  C   UNL     1       6.843   5.890  16.901  0.00  0.00    +0.000 A 
ATOM      7  O   UNL     1       7.705   6.717  16.608  0.00  0.00    +0.000 OA
ENDROOT
BRANCH   1   9
ATOM      8  O   UNL     1       7.775   5.226  20.429  0.00  0.00    +0.000 OA
ATOM      9  C   UNL     1       7.666   5.813  19.361  0.00  0.00    +0.000 C 
BRANCH   9  10
ATOM     10  O   UNL     1       8.376   6.929  19.079  0.00  0.00    +0.000 OA
ATOM     11  H   UNL     1       8.225   7.286  18.168  0.00  0.00    +0.000 HD
ENDBRANCH   9  10
ENDBRANCH   1   9
BRANCH   5  12
ATOM     12  O   UNL     1       5.912   5.829  14.602  0.00  0.00    +0.000 OA
ATOM     13  H   UNL     1       6.371   6.686  14.593  0.00  0.00    +0.000 HD
ENDBRANCH   5  12
BRANCH   3  14
ATOM     14  C   UNL     1       3.776   3.069  18.095  0.00  0.00    +0.000 C 
BRANCH  14  15
ATOM     15  C   UNL     1       2.707   3.657  19.089  0.00  0.00    +0.000 C 
ATOM     16  C   UNL     1       1.330   3.007  18.781  0.00  0.00    +0.000 C 
ATOM     17  C   UNL     1       0.574   2.952  20.104  0.00  0.00    +0.000 C 
ATOM     18  C   UNL     1       1.630   2.838  21.190  0.00  0.00    +0.000 C 
ATOM     19  C   UNL     1       2.976   3.096  20.520  0.00  0.00    +0.000 C 
BRANCH  15  20
ATOM     20  C   UNL     1       2.595   5.198  18.998  0.00  0.00    +0.000 A 
ATOM     21  C   UNL     1       2.570   5.994  20.162  0.00  0.00    +0.000 A 
ATOM     22  C   UNL     1       2.295   7.365  20.106  0.00  0.00    +0.000 A 
ATOM     23  C   UNL     1       2.075   7.983  18.883  0.00  0.00    +0.000 A 
ATOM     24  C   UNL     1       2.162   7.236  17.714  0.00  0.00    +0.000 A 
ATOM     25  C   UNL     1       2.427   5.864  17.771  0.00  0.00    +0.000 A 
ENDBRANCH  15  20
ENDBRANCH  14  15
ENDBRANCH   3  14
TORSDOF 6
ENDMDL
MODEL 4
REMARK VINA RESULT:      -8.1      0.802      2.472
REMARK  Name = 
REMARK  6 active torsions:
REMARK  status: ('A' for Active; 'I' for Inactive)
REMARK    1  A    between atoms: C_2  and  O_3
REMARK    2  A    between atoms: C_2  and  C_4
REMARK    3  A    between atoms: N_6  and  C_7
REMARK    4  A    between atoms: C_7  and  C_8
REMARK    5  A    between atoms: C_8  and  C_9
REMARK    6  A    between atoms: C_20  and  O_21
REMARK                            x       y       z     vdW  Elec       q    Type
REMARK                         _______ _______ _______ _____ _____    ______ ____
ROOT
ATOM      1  C   UNL     1       6.116   4.876  16.245  0.00  0.00    +0.000 A 
ATOM      2  C   UNL     1       5.296   4.228  17.094  0.00  0.00    +0.000 A 
ATOM      3  N   UNL     1       5.283   4.389  18.485  0.00  0.00    +0.000 N 
ATOM      4  C   UNL     1       6.189   5.302  19.007  0.00  0.00    +0.000 A 
ATOM      5  C   UNL     1       7.090   6.008  18.309  0.00  0.00    +0.000 A 
ATOM      6  C   UNL     1       7.097   5.822  16.830  0.00  0.00    +0.000 A 
ATOM      7  O   UNL     1       7.872   6.435  16.097  0.00  0.00    +0.000 OA
ENDROOT
BRANCH   1   9
ATOM      8  O   UNL     1       4.981   4.330  14.229  0.00  0.00    +0.000 OA
ATOM      9  C   UNL     1       6.027   4.619  14.794  0.00  0.00    +0.000 C 
BRANCH   9  10
ATOM     10  O   UNL     1       7.198   4.723  14.127  0.00  0.00    +0.000 OA
ATOM     11  H   UNL     1       7.362   3.992  13.479  0.00  0.00    +0.000 HD
ENDBRANCH   9  10
ENDBRANCH   1   9
BRANCH   5  12
ATOM     12  O   UNL     1       7.992   6.866  18.894  0.00  0.00    +0.000 OA
ATOM     13  H   UNL     1       8.881   6.477  18.824  0.00  0.00    +0.000 HD
ENDBRANCH   5  12
BRANCH   3  14
ATOM     14  C   UNL     1       4.396   3.508  19.307  0.00  0.00    +0.000 C 
BRANCH  14  15
ATOM     15  C   UNL     1       2.870   3.879  19.409  0.00  0.00    +0.000 C 
ATOM     16  C   UNL     1       2.109   3.184  18.248  0.00  0.00    +0.000 C 
ATOM     17  C   UNL     1       0.703   2.898  18.764  0.00  0.00    +0.000 C 
ATOM     18  C   UNL     1       0.835   2.710  20.266  0.00  0.00    +0.000 C 
ATOM     19  C   UNL     1       2.247   3.149  20.639  0.00  0.00    +0.000 C 
BRANCH  15  20
ATOM     20  C   UNL     1       2.627   5.407  19.359  0.00  0.00    +0.000 A 
ATOM     21  C   UNL     1       2.271   6.124  20.520  0.00  0.00    +0.000 A 
ATOM     22  C   UNL     1       1.878   7.466  20.462  0.00  0.00    +0.000 A 
ATOM     23  C   UNL     1       1.869   8.137  19.247  0.00  0.00    +0.000 A 
ATOM     24  C   UNL     1       2.282   7.476  18.097  0.00  0.00    +0.000 A 
ATOM     25  C   UNL     1       2.664   6.131  18.154  0.00  0.00    +0.000 A 
ENDBRANCH  15  20
ENDBRANCH  14  15
ENDBRANCH   3  14
TORSDOF 6
ENDMDL
MODEL 5
REMARK VINA RESULT:      -8.1      0.847      2.663
REMARK  Name = 
REMARK  6 active torsions:
REMARK  status: ('A' for Active; 'I' for Inactive)
REMARK    1  A    between atoms: C_2  and  O_3
REMARK    2  A    between atoms: C_2  and  C_4
REMARK    3  A    between atoms: N_6  and  C_7
REMARK    4  A    between atoms: C_7  and  C_8
REMARK    5  A    between atoms: C_8  and  C_9
REMARK    6  A    between atoms: C_20  and  O_21
REMARK                            x       y       z     vdW  Elec       q    Type
REMARK                         _______ _______ _______ _____ _____    ______ ____
ROOT
ATOM      1  C   UNL     1       6.183   4.996  16.295  0.00  0.00    +0.000 A 
ATOM      2  C   UNL     1       5.387   4.296  17.126  0.00  0.00    +0.000 A 
ATOM      3  N   UNL     1       5.395   4.394  18.523  0.00  0.00    +0.000 N 
ATOM      4  C   UNL     1       6.294   5.298  19.071  0.00  0.00    +0.000 A 
ATOM      5  C   UNL     1       7.171   6.050  18.393  0.00  0.00    +0.000 A 
ATOM      6  C   UNL     1       7.157   5.931  16.906  0.00  0.00    +0.000 A 
ATOM      7  O   UNL     1       7.910   6.590  16.190  0.00  0.00    +0.000 OA
ENDROOT
BRANCH   1   9
ATOM      8  O   UNL     1       5.063   4.382  14.289  0.00  0.00    +0.000 OA
ATOM      9  C   UNL     1       6.074   4.803  14.835  0.00  0.00    +0.000 C 
BRANCH   9  10
ATOM     10  O   UNL     1       7.186   5.125  14.136  0.00  0.00    +0.000 OA
ATOM     11  H   UNL     1       7.892   4.430  14.154  0.00  0.00    +0.000 HD
ENDBRANCH   9  10
ENDBRANCH   1   9
BRANCH   5  12
ATOM     12  O   UNL     1       8.069   6.896  19.002  0.00  0.00    +0.000 OA
ATOM     13  H   UNL     1       7.910   6.879  19.961  0.00  0.00    +0.000 HD
ENDBRANCH   5  12
BRANCH   3  14
ATOM     14  C   UNL     1       4.536   3.462  19.317  0.00  0.00    +0.000 C 
BRANCH  14  15
ATOM     15  C   UNL     1       2.982   3.709  19.325  0.00  0.00    +0.000 C 
ATOM     16  C   UNL     1       2.338   2.869  18.189  0.00  0.00    +0.000 C 
ATOM     17  C   UNL     1       0.936   2.503  18.665  0.00  0.00    +0.000 C 
ATOM     18  C   UNL     1       1.008   2.438  20.181  0.00  0.00    +0.000 C 
ATOM     19  C   UNL     1       2.360   3.021  20.580  0.00  0.00    +0.000 C 
BRANCH  15  20
ATOM     20  C   UNL     1       2.618   5.203  19.146  0.00  0.00    +0.000 A 
ATOM     21  C   UNL     1       2.681   5.819  17.879  0.00  0.00    +0.000 A 
ATOM     22  C   UNL     1       2.527   7.201  17.727  0.00  0.00    +0.000 A 
ATOM     23  C   UNL     1       2.267   7.999  18.832  0.00  0.00    +0.000 A 
ATOM     24  C   UNL     1       2.130   7.411  20.084  0.00  0.00    +0.000 A 
ATOM     25  C   UNL     1       2.295   6.030  20.237  0.00  0.00    +0.000 A 
ENDBRANCH  15  20
ENDBRANCH  14  15
ENDBRANCH   3  14
TORSDOF 6
ENDMDL
MODEL 6
REMARK VINA RESULT:      -8.1      1.186      1.873
REMARK  Name = 
REMARK  6 active torsions:
REMARK  status: ('A' for Active; 'I' for Inactive)
REMARK    1  A    between atoms: C_2  and  O_3
REMARK    2  A    between atoms: C_2  and  C_4
REMARK    3  A    between atoms: N_6  and  C_7
REMARK    4  A    between atoms: C_7  and  C_8
REMARK    5  A    between atoms: C_8  and  C_9
REMARK    6  A    between atoms: C_20  and  O_21
REMARK                            x       y       z     vdW  Elec       q    Type
REMARK                         _______ _______ _______ _____ _____    ______ ____
ROOT
ATOM      1  C   UNL     1       6.720   5.363  18.304  0.00  0.00    +0.000 A 
ATOM      2  C   UNL     1       5.768   4.452  18.579  0.00  0.00    +0.000 A 
ATOM      3  N   UNL     1       4.828   3.965  17.662  0.00  0.00    +0.000 N 
ATOM      4  C   UNL     1       4.911   4.468  16.371  0.00  0.00    +0.000 A 
ATOM      5  C   UNL     1       5.777   5.395  15.938  0.00  0.00    +0.000 A 
ATOM      6  C   UNL     1       6.767   5.909  16.927  0.00  0.00    +0.000 A 
ATOM      7  O   UNL     1       7.616   6.748  16.627  0.00  0.00    +0.000 OA
ENDROOT
BRANCH   1   9
ATOM      8  O   UNL     1       7.776   5.204  20.428  0.00  0.00    +0.000 OA
ATOM      9  C   UNL     1       7.655   5.793  19.363  0.00  0.00    +0.000 C 
BRANCH   9  10
ATOM     10  O   UNL     1       8.375   6.899  19.069  0.00  0.00    +0.000 OA
ATOM     11  H   UNL     1       8.874   7.275  19.837  0.00  0.00    +0.000 HD
ENDBRANCH   9  10
ENDBRANCH   1   9
BRANCH   5  12
ATOM     12  O   UNL     1       5.777   5.884  14.652  0.00  0.00    +0.000 OA
ATOM     13  H   UNL     1       6.337   6.678  14.622  0.00  0.00    +0.000 HD
ENDBRANCH   5  12
BRANCH   3  14
ATOM     14  C   UNL     1       3.753   3.044  18.148  0.00  0.00    +0.000 C 
BRANCH  14  15
ATOM     15  C   UNL     1       2.749   3.583  19.233  0.00  0.00    +0.000 C 
ATOM     16  C   UNL     1       1.429   2.771  19.137  0.00  0.00    +0.000 C 
ATOM     17  C   UNL     1       0.846   2.729  20.546  0.00  0.00    +0.000 C 
ATOM     18  C   UNL     1       2.029   2.804  21.495  0.00  0.00    +0.000 C 
ATOM     19  C   UNL     1       3.247   3.156  20.648  0.00  0.00    +0.000 C 
BRANCH  15  20
ATOM     20  C   UNL     1       2.452   5.093  19.069  0.00  0.00    +0.000 A 
ATOM     21  C   UNL     1       2.228   5.654  17.794  0.00  0.00    +0.000 A 
ATOM     22  C   UNL     1       2.132   7.037  17.609  0.00  0.00    +0.000 A 
ATOM     23  C   UNL     1       2.218   7.895  18.697  0.00  0.00    +0.000 A 
ATOM     24  C   UNL     1       2.368   7.366  19.974  0.00  0.00    +0.000 A 
ATOM     25  C   UNL     1       2.475   5.983  20.157  0.00  0.00    +0.000 A 
ENDBRANCH  15  20
ENDBRANCH  14  15
ENDBRANCH   3  14
TORSDOF 6
ENDMDL
MODEL 7
REMARK VINA RESULT:      -7.7      1.095      1.614
REMARK  Name = 
REMARK  6 active torsions:
REMARK  status: ('A' for Active; 'I' for Inactive)
REMARK    1  A    between atoms: C_2  and  O_3
REMARK    2  A    between atoms: C_2  and  C_4
REMARK    3  A    between atoms: N_6  and  C_7
REMARK    4  A    between atoms: C_7  and  C_8
REMARK    5  A    between atoms: C_8  and  C_9
REMARK    6  A    between atoms: C_20  and  O_21
REMARK                            x       y       z     vdW  Elec       q    Type
REMARK                         _______ _______ _______ _____ _____    ______ ____
ROOT
ATOM      1  C   UNL     1       6.368   4.944  17.825  0.00  0.00    +0.000 A 
ATOM      2  C   UNL     1       5.069   4.705  18.088  0.00  0.00    +0.000 A 
ATOM      3  N   UNL     1       4.176   4.061  17.223  0.00  0.00    +0.000 N 
ATOM      4  C   UNL     1       4.696   3.633  16.009  0.00  0.00    +0.000 A 
ATOM      5  C   UNL     1       5.953   3.813  15.580  0.00  0.00    +0.000 A 
ATOM      6  C   UNL     1       6.891   4.507  16.509  0.00  0.00    +0.000 A 
ATOM      7  O   UNL     1       8.070   4.707  16.219  0.00  0.00    +0.000 OA
ENDROOT
BRANCH   1   9
ATOM      8  O   UNL     1       7.307   5.259  19.986  0.00  0.00    +0.000 OA
ATOM      9  C   UNL     1       7.207   5.633  18.826  0.00  0.00    +0.000 C 
BRANCH   9  10
ATOM     10  O   UNL     1       7.862   6.722  18.364  0.00  0.00    +0.000 OA
ATOM     11  H   UNL     1       8.014   7.424  19.046  0.00  0.00    +0.000 HD
ENDBRANCH   9  10
ENDBRANCH   1   9
BRANCH   5  12
ATOM     12  O   UNL     1       6.394   3.403  14.343  0.00  0.00    +0.000 OA
ATOM     13  H   UNL     1       7.352   3.561  14.287  0.00  0.00    +0.000 HD
ENDBRANCH   5  12
BRANCH   3  14
ATOM     14  C   UNL     1       2.732   3.977  17.605  0.00  0.00    +0.000 C 
BRANCH  14  15
ATOM     15  C   UNL     1       2.344   4.263  19.104  0.00  0.00    +0.000 C 
ATOM     16  C   UNL     1       1.010   3.532  19.420  0.00  0.00    +0.000 C 
ATOM     17  C   UNL     1       1.061   3.166  20.900  0.00  0.00    +0.000 C 
ATOM     18  C   UNL     1       2.529   2.978  21.239  0.00  0.00    +0.000 C 
ATOM     19  C   UNL     1       3.323   3.493  20.042  0.00  0.00    +0.000 C 
BRANCH  15  20
ATOM     20  C   UNL     1       2.200   5.775  19.401  0.00  0.00    +0.000 A 
ATOM     21  C   UNL     1       1.778   6.228  20.668  0.00  0.00    +0.000 A 
ATOM     22  C   UNL     1       1.475   7.574  20.901  0.00  0.00    +0.000 A 
ATOM     23  C   UNL     1       1.623   8.509  19.885  0.00  0.00    +0.000 A 
ATOM     24  C   UNL     1       2.104   8.101  18.647  0.00  0.00    +0.000 A 
ATOM     25  C   UNL     1       2.397   6.754  18.411  0.00  0.00    +0.000 A 
ENDBRANCH  15  20
ENDBRANCH  14  15
ENDBRANCH   3  14
TORSDOF 6
ENDMDL
MODEL 8
REMARK VINA RESULT:      -7.6      1.458      2.711
REMARK  Name = 
REMARK  6 active torsions:
REMARK  status: ('A' for Active; 'I' for Inactive)
REMARK    1  A    between atoms: C_2  and  O_3
REMARK    2  A    between atoms: C_2  and  C_4
REMARK    3  A    between atoms: N_6  and  C_7
REMARK    4  A    between atoms: C_7  and  C_8
REMARK    5  A    between atoms: C_8  and  C_9
REMARK    6  A    between atoms: C_20  and  O_21
REMARK                            x       y       z     vdW  Elec       q    Type
REMARK                         _______ _______ _______ _____ _____    ______ ____
ROOT
ATOM      1  C   UNL     1       6.011   4.305  15.535  0.00  0.00    +0.000 A 
ATOM      2  C   UNL     1       4.772   4.035  15.989  0.00  0.00    +0.000 A 
ATOM      3  N   UNL     1       4.401   3.988  17.339  0.00  0.00    +0.000 N 
ATOM      4  C   UNL     1       5.402   4.255  18.262  0.00  0.00    +0.000 A 
ATOM      5  C   UNL     1       6.686   4.514  17.982  0.00  0.00    +0.000 A 
ATOM      6  C   UNL     1       7.069   4.555  16.541  0.00  0.00    +0.000 A 
ATOM      7  O   UNL     1       8.219   4.801  16.176  0.00  0.00    +0.000 OA
ENDROOT
BRANCH   1   9
ATOM      8  O   UNL     1       5.682   3.612  13.284  0.00  0.00    +0.000 OA
ATOM      9  C   UNL     1       6.272   4.328  14.082  0.00  0.00    +0.000 C 
BRANCH   9  10
ATOM     10  O   UNL     1       7.226   5.203  13.691  0.00  0.00    +0.000 OA
ATOM     11  H   UNL     1       7.992   5.273  14.315  0.00  0.00    +0.000 HD
ENDBRANCH   9  10
ENDBRANCH   1   9
BRANCH   5  12
ATOM     12  O   UNL     1       7.641   4.727  18.949  0.00  0.00    +0.000 OA
ATOM     13  H   UNL     1       7.205   5.071  19.746  0.00  0.00    +0.000 HD
ENDBRANCH   5  12
BRANCH   3  14
ATOM     14  C   UNL     1       3.013   3.554  17.692  0.00  0.00    +0.000 C 
BRANCH  14  15
ATOM     15  C   UNL     1       2.423   4.010  19.079  0.00  0.00    +0.000 C 
ATOM     16  C   UNL     1       1.020   3.370  19.258  0.00  0.00    +0.000 C 
ATOM     17  C   UNL     1       0.831   3.157  20.756  0.00  0.00    +0.000 C 
ATOM     18  C   UNL     1       2.221   2.947  21.331  0.00  0.00    +0.000 C 
ATOM     19  C   UNL     1       3.210   3.303  20.226  0.00  0.00    +0.000 C 
BRANCH  15  20
ATOM     20  C   UNL     1       2.321   5.549  19.203  0.00  0.00    +0.000 A 
ATOM     21  C   UNL     1       1.993   6.157  20.433  0.00  0.00    +0.000 A 
ATOM     22  C   UNL     1       1.725   7.527  20.524  0.00  0.00    +0.000 A 
ATOM     23  C   UNL     1       1.815   8.332  19.397  0.00  0.00    +0.000 A 
ATOM     24  C   UNL     1       2.204   7.772  18.186  0.00  0.00    +0.000 A 
ATOM     25  C   UNL     1       2.461   6.400  18.093  0.00  0.00    +0.000 A 
ENDBRANCH  15  20
ENDBRANCH  14  15
ENDBRANCH   3  14
TORSDOF 6
ENDMDL
MODEL 9
REMARK VINA RESULT:      -7.6      3.766      5.900
REMARK  Name = 
REMARK  6 active torsions:
REMARK  status: ('A' for Active; 'I' for Inactive)
REMARK    1  A    between atoms: C_2  and  O_3
REMARK    2  A    between atoms: C_2  and  C_4
REMARK    3  A    between atoms: N_6  and  C_7
REMARK    4  A    between atoms: C_7  and  C_8
REMARK    5  A    between atoms: C_8  and  C_9
REMARK    6  A    between atoms: C_20  and  O_21
REMARK                            x       y       z     vdW  Elec       q    Type
REMARK                         _______ _______ _______ _____ _____    ______ ____
ROOT
ATOM      1  C   UNL     1       0.921   8.660  20.831  0.00  0.00    +0.000 A 
ATOM      2  C   UNL     1       1.575   7.486  20.923  0.00  0.00    +0.000 A 
ATOM      3  N   UNL     1       2.355   6.915  19.909  0.00  0.00    +0.000 N 
ATOM      4  C   UNL     1       2.457   7.640  18.730  0.00  0.00    +0.000 A 
ATOM      5  C   UNL     1       1.853   8.807  18.464  0.00  0.00    +0.000 A 
ATOM      6  C   UNL     1       1.019   9.399  19.550  0.00  0.00    +0.000 A 
ATOM      7  O   UNL     1       0.436  10.474  19.415  0.00  0.00    +0.000 OA
ENDROOT
BRANCH   1   9
ATOM      8  O   UNL     1      -0.812   8.538  22.454  0.00  0.00    +0.000 OA
ATOM      9  C   UNL     1       0.132   9.154  21.976  0.00  0.00    +0.000 C 
BRANCH   9  10
ATOM     10  O   UNL     1       0.528  10.352  22.463  0.00  0.00    +0.000 OA
ATOM     11  H   UNL     1       0.752  11.019  21.766  0.00  0.00    +0.000 HD
ENDBRANCH   9  10
ENDBRANCH   1   9
BRANCH   5  12
ATOM     12  O   UNL     1       1.960   9.453  17.255  0.00  0.00    +0.000 OA
ATOM     13  H   UNL     1       2.525  10.236  17.370  0.00  0.00    +0.000 HD
ENDBRANCH   5  12
BRANCH   3  14
ATOM     14  C   UNL     1       2.920   5.546  20.116  0.00  0.00    +0.000 C 
BRANCH  14  15
ATOM     15  C   UNL     1       3.482   4.777  18.862  0.00  0.00    +0.000 C 
ATOM     16  C   UNL     1       3.630   3.275  19.224  0.00  0.00    +0.000 C 
ATOM     17  C   UNL     1       3.406   2.496  17.932  0.00  0.00    +0.000 C 
ATOM     18  C   UNL     1       2.468   3.340  17.088  0.00  0.00    +0.000 C 
ATOM     19  C   UNL     1       2.372   4.702  17.769  0.00  0.00    +0.000 C 
BRANCH  15  20
ATOM     20  C   UNL     1       4.841   5.340  18.381  0.00  0.00    +0.000 A 
ATOM     21  C   UNL     1       5.998   5.224  19.179  0.00  0.00    +0.000 A 
ATOM     22  C   UNL     1       7.189   5.876  18.843  0.00  0.00    +0.000 A 
ATOM     23  C   UNL     1       7.267   6.630  17.680  0.00  0.00    +0.000 A 
ATOM     24  C   UNL     1       6.164   6.706  16.839  0.00  0.00    +0.000 A 
ATOM     25  C   UNL     1       4.969   6.062  17.181  0.00  0.00    +0.000 A 
ENDBRANCH  15  20
ENDBRANCH  14  15
ENDBRANCH   3  14
TORSDOF 6
ENDMDL
