MODEL 1
REMARK VINA RESULT:      -7.6      0.000      0.000
REMARK  Name = 
REMARK  2 active torsions:
REMARK  status: ('A' for Active; 'I' for Inactive)
REMARK    1  A    between atoms: C_1  and  C_2
REMARK    2  A    between atoms: C_12  and  C_13
REMARK                            x       y       z     vdW  Elec       q    Type
REMARK                         _______ _______ _______ _____ _____    ______ ____
ROOT
ATOM      1  C   UNL     1       4.363   1.882  20.718  0.00  0.00    +0.000 C 
ATOM      2  C   UNL     1       3.985   2.535  19.419  0.00  0.00    +0.000 A 
ATOM      3  C   UNL     1       2.905   2.033  18.677  0.00  0.00    +0.000 A 
ATOM      4  C   UNL     1       2.530   2.620  17.463  0.00  0.00    +0.000 A 
ATOM      5  C   UNL     1       3.226   3.722  16.967  0.00  0.00    +0.000 A 
ATOM      6  C   UNL     1       4.302   4.236  17.690  0.00  0.00    +0.000 A 
ATOM      7  C   UNL     1       4.686   3.645  18.919  0.00  0.00    +0.000 A 
ATOM      8  N   UNL     1       5.782   4.171  19.651  0.00  0.00    +0.000 N 
ATOM      9  C   UNL     1       6.550   5.251  19.273  0.00  0.00    +0.000 A 
ATOM     10  O   UNL     1       7.483   5.640  19.968  0.00  0.00    +0.000 OA
ATOM     11  C   UNL     1       6.160   5.857  18.021  0.00  0.00    +0.000 A 
ATOM     12  C   UNL     1       6.673   6.929  17.328  0.00  0.00    +0.000 A 
ATOM     13  C   UNL     1       7.800   7.846  17.609  0.00  0.00    +0.000 C 
ATOM     14  N   UNL     1       5.891   7.029  16.206  0.00  0.00    +0.000 N 
ATOM     15  N   UNL     1       4.913   6.100  16.133  0.00  0.00    +0.000 NA
ATOM     16  C   UNL     1       5.081   5.379  17.248  0.00  0.00    +0.000 A 
ATOM     17  H   UNL     1       6.057   3.750  20.526  0.00  0.00    +0.000 HD
ATOM     18  H   UNL     1       5.964   7.705  15.454  0.00  0.00    +0.000 HD
ENDROOT
TORSDOF 0
ENDMDL
MODEL 2
REMARK VINA RESULT:      -7.6      2.655      4.845
REMARK  Name = 
REMARK  2 active torsions:
REMARK  status: ('A' for Active; 'I' for Inactive)
REMARK    1  A    between atoms: C_1  and  C_2
REMARK    2  A    between atoms: C_12  and  C_13
REMARK                            x       y       z     vdW  Elec       q    Type
REMARK                         _______ _______ _______ _____ _____    ______ ____
ROOT
ATOM      1  C   UNL     1       5.946   3.622  15.184  0.00  0.00    +0.000 C 
ATOM      2  C   UNL     1       5.312   4.724  15.984  0.00  0.00    +0.000 A 
ATOM      3  C   UNL     1       5.417   6.053  15.544  0.00  0.00    +0.000 A 
ATOM      4  C   UNL     1       4.837   7.100  16.268  0.00  0.00    +0.000 A 
ATOM      5  C   UNL     1       4.138   6.841  17.447  0.00  0.00    +0.000 A 
ATOM      6  C   UNL     1       4.022   5.528  17.902  0.00  0.00    +0.000 A 
ATOM      7  C   UNL     1       4.608   4.463  17.172  0.00  0.00    +0.000 A 
ATOM      8  N   UNL     1       4.487   3.129  17.638  0.00  0.00    +0.000 N 
ATOM      9  C   UNL     1       3.826   2.739  18.783  0.00  0.00    +0.000 A 
ATOM     10  O   UNL     1       3.771   1.559  19.113  0.00  0.00    +0.000 OA
ATOM     11  C   UNL     1       3.227   3.822  19.528  0.00  0.00    +0.000 A 
ATOM     12  C   UNL     1       2.501   3.832  20.697  0.00  0.00    +0.000 A 
ATOM     13  C   UNL     1       2.072   2.749  21.609  0.00  0.00    +0.000 C 
ATOM     14  N   UNL     1       2.203   5.152  20.914  0.00  0.00    +0.000 N 
ATOM     15  N   UNL     1       2.683   5.987  19.966  0.00  0.00    +0.000 NA
ATOM     16  C   UNL     1       3.313   5.168  19.117  0.00  0.00    +0.000 A 
ATOM     17  H   UNL     1       4.904   2.370  17.119  0.00  0.00    +0.000 HD
ATOM     18  H   UNL     1       1.675   5.554  21.681  0.00  0.00    +0.000 HD
ENDROOT
TORSDOF 0
ENDMDL
MODEL 3
REMARK VINA RESULT:      -7.6      2.479      4.796
REMARK  Name = 
REMARK  2 active torsions:
REMARK  status: ('A' for Active; 'I' for Inactive)
REMARK    1  A    between atoms: C_1  and  C_2
REMARK    2  A    between atoms: C_12  and  C_13
REMARK                            x       y       z     vdW  Elec       q    Type
REMARK                         _______ _______ _______ _____ _____    ______ ____
ROOT
ATOM      1  C   UNL     1       7.466   4.448  17.107  0.00  0.00    +0.000 C 
ATOM      2  C   UNL     1       6.192   5.212  17.327  0.00  0.00    +0.000 A 
ATOM      3  C   UNL     1       5.969   6.409  16.629  0.00  0.00    +0.000 A 
ATOM      4  C   UNL     1       4.793   7.143  16.813  0.00  0.00    +0.000 A 
ATOM      5  C   UNL     1       3.813   6.695  17.699  0.00  0.00    +0.000 A 
ATOM      6  C   UNL     1       4.015   5.508  18.402  0.00  0.00    +0.000 A 
ATOM      7  C   UNL     1       5.205   4.761  18.220  0.00  0.00    +0.000 A 
ATOM      8  N   UNL     1       5.406   3.554  18.937  0.00  0.00    +0.000 N 
ATOM      9  C   UNL     1       4.520   3.004  19.839  0.00  0.00    +0.000 A 
ATOM     10  O   UNL     1       4.776   1.953  20.418  0.00  0.00    +0.000 OA
ATOM     11  C   UNL     1       3.306   3.762  20.026  0.00  0.00    +0.000 A 
ATOM     12  C   UNL     1       2.207   3.541  20.825  0.00  0.00    +0.000 A 
ATOM     13  C   UNL     1       1.871   2.457  21.774  0.00  0.00    +0.000 C 
ATOM     14  N   UNL     1       1.376   4.604  20.580  0.00  0.00    +0.000 N 
ATOM     15  N   UNL     1       1.862   5.486  19.681  0.00  0.00    +0.000 NA
ATOM     16  C   UNL     1       3.048   4.968  19.343  0.00  0.00    +0.000 A 
ATOM     17  H   UNL     1       6.254   3.022  18.808  0.00  0.00    +0.000 HD
ATOM     18  H   UNL     1       0.464   4.788  20.986  0.00  0.00    +0.000 HD
ENDROOT
TORSDOF 0
ENDMDL
MODEL 4
REMARK VINA RESULT:      -7.1      2.110      4.673
REMARK  Name = 
REMARK  2 active torsions:
REMARK  status: ('A' for Active; 'I' for Inactive)
REMARK    1  A    between atoms: C_1  and  C_2
REMARK    2  A    between atoms: C_12  and  C_13
REMARK                            x       y       z     vdW  Elec       q    Type
REMARK                         _______ _______ _______ _____ _____    ______ ____
ROOT
ATOM      1  C   UNL     1       8.213   5.200  18.933  0.00  0.00    +0.000 C 
ATOM      2  C   UNL     1       6.937   5.681  18.304  0.00  0.00    +0.000 A 
ATOM      3  C   UNL     1       6.945   6.841  17.514  0.00  0.00    +0.000 A 
ATOM      4  C   UNL     1       5.773   7.313  16.915  0.00  0.00    +0.000 A 
ATOM      5  C   UNL     1       4.567   6.635  17.092  0.00  0.00    +0.000 A 
ATOM      6  C   UNL     1       4.537   5.481  17.873  0.00  0.00    +0.000 A 
ATOM      7  C   UNL     1       5.722   4.998  18.482  0.00  0.00    +0.000 A 
ATOM      8  N   UNL     1       5.687   3.823  19.276  0.00  0.00    +0.000 N 
ATOM      9  C   UNL     1       4.565   3.063  19.530  0.00  0.00    +0.000 A 
ATOM     10  O   UNL     1       4.626   2.058  20.231  0.00  0.00    +0.000 OA
ATOM     11  C   UNL     1       3.357   3.552  18.909  0.00  0.00    +0.000 A 
ATOM     12  C   UNL     1       2.065   3.076  18.929  0.00  0.00    +0.000 A 
ATOM     13  C   UNL     1       1.449   1.902  19.584  0.00  0.00    +0.000 C 
ATOM     14  N   UNL     1       1.354   3.961  18.159  0.00  0.00    +0.000 N 
ATOM     15  N   UNL     1       2.098   4.965  17.646  0.00  0.00    +0.000 NA
ATOM     16  C   UNL     1       3.327   4.713  18.110  0.00  0.00    +0.000 A 
ATOM     17  H   UNL     1       6.530   3.479  19.711  0.00  0.00    +0.000 HD
ATOM     18  H   UNL     1       0.364   3.938  17.938  0.00  0.00    +0.000 HD
ENDROOT
TORSDOF 0
ENDMDL
MODEL 5
REMARK VINA RESULT:      -7.0      2.551      4.844
REMARK  Name = 
REMARK  2 active torsions:
REMARK  status: ('A' for Active; 'I' for Inactive)
REMARK    1  A    between atoms: C_1  and  C_2
REMARK    2  A    between atoms: C_12  and  C_13
REMARK                            x       y       z     vdW  Elec       q    Type
REMARK                         _______ _______ _______ _____ _____    ______ ____
ROOT
ATOM      1  C   UNL     1       6.648   7.276  17.356  0.00  0.00    +0.000 C 
ATOM      2  C   UNL     1       6.181   5.939  16.852  0.00  0.00    +0.000 A 
ATOM      3  C   UNL     1       6.844   5.333  15.774  0.00  0.00    +0.000 A 
ATOM      4  C   UNL     1       6.432   4.089  15.283  0.00  0.00    +0.000 A 
ATOM      5  C   UNL     1       5.350   3.424  15.861  0.00  0.00    +0.000 A 
ATOM      6  C   UNL     1       4.679   4.010  16.934  0.00  0.00    +0.000 A 
ATOM      7  C   UNL     1       5.092   5.270  17.434  0.00  0.00    +0.000 A 
ATOM      8  N   UNL     1       4.406   5.862  18.526  0.00  0.00    +0.000 N 
ATOM      9  C   UNL     1       3.326   5.313  19.184  0.00  0.00    +0.000 A 
ATOM     10  O   UNL     1       2.790   5.897  20.120  0.00  0.00    +0.000 OA
ATOM     11  C   UNL     1       2.904   4.028  18.676  0.00  0.00    +0.000 A 
ATOM     12  C   UNL     1       1.887   3.185  19.062  0.00  0.00    +0.000 A 
ATOM     13  C   UNL     1       0.865   3.284  20.127  0.00  0.00    +0.000 C 
ATOM     14  N   UNL     1       1.975   2.116  18.208  0.00  0.00    +0.000 N 
ATOM     15  N   UNL     1       2.976   2.213  17.307  0.00  0.00    +0.000 NA
ATOM     16  C   UNL     1       3.545   3.389  17.595  0.00  0.00    +0.000 A 
ATOM     17  H   UNL     1       4.698   6.760  18.883  0.00  0.00    +0.000 HD
ATOM     18  H   UNL     1       1.391   1.287  18.186  0.00  0.00    +0.000 HD
ENDROOT
TORSDOF 0
ENDMDL
MODEL 6
REMARK VINA RESULT:      -7.0      4.082      5.236
REMARK  Name = 
REMARK  2 active torsions:
REMARK  status: ('A' for Active; 'I' for Inactive)
REMARK    1  A    between atoms: C_1  and  C_2
REMARK    2  A    between atoms: C_12  and  C_13
REMARK                            x       y       z     vdW  Elec       q    Type
REMARK                         _______ _______ _______ _____ _____    ______ ____
ROOT
ATOM      1  C   UNL     1       0.576   8.761  21.457  0.00  0.00    +0.000 C 
ATOM      2  C   UNL     1       1.296   8.510  20.163  0.00  0.00    +0.000 A 
ATOM      3  C   UNL     1       1.358   9.522  19.194  0.00  0.00    +0.000 A 
ATOM      4  C   UNL     1       2.021   9.318  17.979  0.00  0.00    +0.000 A 
ATOM      5  C   UNL     1       2.639   8.097  17.708  0.00  0.00    +0.000 A 
ATOM      6  C   UNL     1       2.589   7.078  18.659  0.00  0.00    +0.000 A 
ATOM      7  C   UNL     1       1.918   7.279  19.891  0.00  0.00    +0.000 A 
ATOM      8  N   UNL     1       1.871   6.240  20.855  0.00  0.00    +0.000 N 
ATOM      9  C   UNL     1       2.437   4.991  20.712  0.00  0.00    +0.000 A 
ATOM     10  O   UNL     1       2.347   4.149  21.599  0.00  0.00    +0.000 OA
ATOM     11  C   UNL     1       3.123   4.784  19.458  0.00  0.00    +0.000 A 
ATOM     12  C   UNL     1       3.798   3.693  18.958  0.00  0.00    +0.000 A 
ATOM     13  C   UNL     1       4.066   2.349  19.516  0.00  0.00    +0.000 C 
ATOM     14  N   UNL     1       4.233   4.088  17.719  0.00  0.00    +0.000 N 
ATOM     15  N   UNL     1       3.887   5.352  17.392  0.00  0.00    +0.000 NA
ATOM     16  C   UNL     1       3.204   5.777  18.461  0.00  0.00    +0.000 A 
ATOM     17  H   UNL     1       1.393   6.382  21.732  0.00  0.00    +0.000 HD
ATOM     18  H   UNL     1       4.771   3.550  17.047  0.00  0.00    +0.000 HD
ENDROOT
TORSDOF 0
ENDMDL
MODEL 7
REMARK VINA RESULT:      -7.0      1.305      1.371
REMARK  Name = 
REMARK  2 active torsions:
REMARK  status: ('A' for Active; 'I' for Inactive)
REMARK    1  A    between atoms: C_1  and  C_2
REMARK    2  A    between atoms: C_12  and  C_13
REMARK                            x       y       z     vdW  Elec       q    Type
REMARK                         _______ _______ _______ _____ _____    ______ ____
ROOT
ATOM      1  C   UNL     1       3.960   1.096  18.934  0.00  0.00    +0.000 C 
ATOM      2  C   UNL     1       3.319   2.397  18.542  0.00  0.00    +0.000 A 
ATOM      3  C   UNL     1       1.923   2.477  18.428  0.00  0.00    +0.000 A 
ATOM      4  C   UNL     1       1.297   3.675  18.065  0.00  0.00    +0.000 A 
ATOM      5  C   UNL     1       2.055   4.818  17.810  0.00  0.00    +0.000 A 
ATOM      6  C   UNL     1       3.444   4.759  17.919  0.00  0.00    +0.000 A 
ATOM      7  C   UNL     1       4.082   3.548  18.286  0.00  0.00    +0.000 A 
ATOM      8  N   UNL     1       5.495   3.493  18.395  0.00  0.00    +0.000 N 
ATOM      9  C   UNL     1       6.356   4.546  18.172  0.00  0.00    +0.000 A 
ATOM     10  O   UNL     1       7.570   4.409  18.288  0.00  0.00    +0.000 OA
ATOM     11  C   UNL     1       5.708   5.782  17.799  0.00  0.00    +0.000 A 
ATOM     12  C   UNL     1       6.218   7.025  17.501  0.00  0.00    +0.000 A 
ATOM     13  C   UNL     1       7.602   7.546  17.454  0.00  0.00    +0.000 C 
ATOM     14  N   UNL     1       5.120   7.796  17.219  0.00  0.00    +0.000 N 
ATOM     15  N   UNL     1       3.945   7.138  17.319  0.00  0.00    +0.000 NA
ATOM     16  C   UNL     1       4.308   5.900  17.673  0.00  0.00    +0.000 A 
ATOM     17  H   UNL     1       5.951   2.631  18.656  0.00  0.00    +0.000 HD
ATOM     18  H   UNL     1       5.097   8.776  16.957  0.00  0.00    +0.000 HD
ENDROOT
TORSDOF 0
ENDMDL
MODEL 8
REMARK VINA RESULT:      -6.9      2.700      5.079
REMARK  Name = 
REMARK  2 active torsions:
REMARK  status: ('A' for Active; 'I' for Inactive)
REMARK    1  A    between atoms: C_1  and  C_2
REMARK    2  A    between atoms: C_12  and  C_13
REMARK                            x       y       z     vdW  Elec       q    Type
REMARK                         _______ _______ _______ _____ _____    ______ ____
ROOT
ATOM      1  C   UNL     1       5.971   3.669  14.635  0.00  0.00    +0.000 C 
ATOM      2  C   UNL     1       5.919   4.584  15.825  0.00  0.00    +0.000 A 
ATOM      3  C   UNL     1       6.890   5.586  15.974  0.00  0.00    +0.000 A 
ATOM      4  C   UNL     1       6.868   6.453  17.072  0.00  0.00    +0.000 A 
ATOM      5  C   UNL     1       5.875   6.337  18.044  0.00  0.00    +0.000 A 
ATOM      6  C   UNL     1       4.900   5.348  17.914  0.00  0.00    +0.000 A 
ATOM      7  C   UNL     1       4.918   4.467  16.804  0.00  0.00    +0.000 A 
ATOM      8  N   UNL     1       3.925   3.462  16.676  0.00  0.00    +0.000 N 
ATOM      9  C   UNL     1       2.893   3.241  17.563  0.00  0.00    +0.000 A 
ATOM     10  O   UNL     1       2.076   2.346  17.374  0.00  0.00    +0.000 OA
ATOM     11  C   UNL     1       2.871   4.139  18.694  0.00  0.00    +0.000 A 
ATOM     12  C   UNL     1       2.016   4.230  19.768  0.00  0.00    +0.000 A 
ATOM     13  C   UNL     1       0.817   3.453  20.153  0.00  0.00    +0.000 C 
ATOM     14  N   UNL     1       2.502   5.273  20.515  0.00  0.00    +0.000 N 
ATOM     15  N   UNL     1       3.604   5.855  19.995  0.00  0.00    +0.000 NA
ATOM     16  C   UNL     1       3.830   5.156  18.877  0.00  0.00    +0.000 A 
ATOM     17  H   UNL     1       3.937   2.834  15.886  0.00  0.00    +0.000 HD
ATOM     18  H   UNL     1       2.132   5.642  21.385  0.00  0.00    +0.000 HD
ENDROOT
TORSDOF 0
ENDMDL
MODEL 9
REMARK VINA RESULT:      -6.9      2.911      3.504
REMARK  Name = 
REMARK  2 active torsions:
REMARK  status: ('A' for Active; 'I' for Inactive)
REMARK    1  A    between atoms: C_1  and  C_2
REMARK    2  A    between atoms: C_12  and  C_13
REMARK                            x       y       z     vdW  Elec       q    Type
REMARK                         _______ _______ _______ _____ _____    ______ ____
ROOT
ATOM      1  C   UNL     1       1.436   3.699  20.966  0.00  0.00    +0.000 C 
ATOM      2  C   UNL     1       1.921   4.940  20.272  0.00  0.00    +0.000 A 
ATOM      3  C   UNL     1       1.521   6.201  20.740  0.00  0.00    +0.000 A 
ATOM      4  C   UNL     1       1.956   7.374  20.114  0.00  0.00    +0.000 A 
ATOM      5  C   UNL     1       2.803   7.311  19.007  0.00  0.00    +0.000 A 
ATOM      6  C   UNL     1       3.213   6.067  18.527  0.00  0.00    +0.000 A 
ATOM      7  C   UNL     1       2.774   4.876  19.157  0.00  0.00    +0.000 A 
ATOM      8  N   UNL     1       3.194   3.614  18.665  0.00  0.00    +0.000 N 
ATOM      9  C   UNL     1       4.026   3.414  17.584  0.00  0.00    +0.000 A 
ATOM     10  O   UNL     1       4.337   2.283  17.225  0.00  0.00    +0.000 OA
ATOM     11  C   UNL     1       4.475   4.626  16.941  0.00  0.00    +0.000 A 
ATOM     12  C   UNL     1       5.296   4.831  15.855  0.00  0.00    +0.000 A 
ATOM     13  C   UNL     1       6.011   3.896  14.959  0.00  0.00    +0.000 C 
ATOM     14  N   UNL     1       5.355   6.194  15.713  0.00  0.00    +0.000 N 
ATOM     15  N   UNL     1       4.634   6.874  16.630  0.00  0.00    +0.000 NA
ATOM     16  C   UNL     1       4.093   5.909  17.382  0.00  0.00    +0.000 A 
ATOM     17  H   UNL     1       2.882   2.765  19.113  0.00  0.00    +0.000 HD
ATOM     18  H   UNL     1       5.868   6.726  15.017  0.00  0.00    +0.000 HD
ENDROOT
TORSDOF 0
ENDMDL
