MODEL 1
REMARK VINA RESULT:      -8.0      0.000      0.000
REMARK  Name = 
REMARK  5 active torsions:
REMARK  status: ('A' for Active; 'I' for Inactive)
REMARK    1  A    between atoms: N_1  and  C_2
REMARK    2  A    between atoms: N_5  and  C_6
REMARK    3  A    between atoms: C_7  and  N_8
REMARK    4  A    between atoms: C_9  and  C_11
REMARK    5  A    between atoms: C_23  and  C_24
REMARK                            x       y       z     vdW  Elec       q    Type
REMARK                         _______ _______ _______ _____ _____    ______ ____
ROOT
ATOM      1  C   UNL     1      -0.345  10.216  20.706  0.00  0.00    +0.000 A 
ATOM      2  C   UNL     1       0.823   9.414  20.909  0.00  0.00    +0.000 A 
ATOM      3  C   UNL     1       1.296   9.228  22.218  0.00  0.00    +0.000 A 
ATOM      4  N   UNL     1       0.733   9.724  23.333  0.00  0.00    +0.000 NA
ATOM      5  C   UNL     1      -0.343  10.505  23.134  0.00  0.00    +0.000 A 
ATOM      6  C   UNL     1      -0.934  10.811  21.890  0.00  0.00    +0.000 A 
ENDROOT
BRANCH   6   7
ATOM      7  C   UNL     1      -2.066  11.794  21.935  0.00  0.00    +0.000 A 
ATOM      8  C   UNL     1      -2.946  11.965  20.857  0.00  0.00    +0.000 A 
ATOM      9  C   UNL     1      -4.078  12.789  20.960  0.00  0.00    +0.000 A 
ATOM     10 CL   UNL     1      -5.238  12.823  19.685  0.00  0.00    +0.000 Cl
ATOM     11  C   UNL     1      -4.307  13.546  22.101  0.00  0.00    +0.000 A 
ATOM     12  C   UNL     1      -3.374  13.496  23.127  0.00  0.00    +0.000 A 
ATOM     13 CL   UNL     1      -3.572  14.516  24.499  0.00  0.00    +0.000 Cl
ATOM     14  C   UNL     1      -2.280  12.624  23.058  0.00  0.00    +0.000 A 
ENDBRANCH   6   7
BRANCH   1  18
ATOM     15  C   UNL     1      -2.265  11.324  17.036  0.00  0.00    +0.000 C 
ATOM     16  C   UNL     1      -1.553  12.337  17.933  0.00  0.00    +0.000 C 
ATOM     17  C   UNL     1      -0.380  11.718  18.691  0.00  0.00    +0.000 C 
ATOM     18  N   UNL     1      -0.837  10.533  19.424  0.00  0.00    +0.000 N 
ATOM     19  C   UNL     1      -1.379   9.473  18.557  0.00  0.00    +0.000 C 
ATOM     20  C   UNL     1      -2.575  10.020  17.769  0.00  0.00    +0.000 C 
BRANCH  15  21
ATOM     21  N   UNL     1      -3.518  11.906  16.529  0.00  0.00    +0.000 NA
ATOM     22  H   UNL     1      -3.688  11.596  15.574  0.00  0.00    +0.000 HD
ATOM     23  H   UNL     1      -3.420  12.924  16.469  0.00  0.00    +0.000 HD
ENDBRANCH  15  21
ENDBRANCH   1  18
BRANCH   2  24
ATOM     24  N   UNL     1       1.579   8.761  19.881  0.00  0.00    +0.000 N 
ATOM     25  C   UNL     1       1.801   7.390  19.979  0.00  0.00    +0.000 C 
ATOM     26  O   UNL     1       1.431   6.744  20.966  0.00  0.00    +0.000 OA
ATOM     27  H   UNL     1       2.131   9.301  19.228  0.00  0.00    +0.000 HD
BRANCH  25  28
ATOM     28  C   UNL     1       2.483   6.685  18.886  0.00  0.00    +0.000 A 
ATOM     29  C   UNL     1       3.228   7.369  17.940  0.00  0.00    +0.000 A 
ATOM     30  N   UNL     1       3.968   6.431  17.289  0.00  0.00    +0.000 N 
ATOM     31  C   UNL     1       5.068   6.621  16.453  0.00  0.00    +0.000 A 
ATOM     32  C   UNL     1       5.676   5.549  15.929  0.00  0.00    +0.000 A 
ATOM     33  C   UNL     1       5.091   4.228  16.165  0.00  0.00    +0.000 A 
ATOM     34  C   UNL     1       4.036   4.068  16.989  0.00  0.00    +0.000 A 
ATOM     35  C   UNL     1       3.465   5.188  17.663  0.00  0.00    +0.000 A 
ATOM     36  N   UNL     1       2.589   5.310  18.652  0.00  0.00    +0.000 NA
ENDBRANCH  25  28
ENDBRANCH   2  24
TORSDOF 5
ENDMDL
MODEL 2
REMARK VINA RESULT:      -8.0      0.117      1.565
REMARK  Name = 
REMARK  5 active torsions:
REMARK  status: ('A' for Active; 'I' for Inactive)
REMARK    1  A    between atoms: N_1  and  C_2
REMARK    2  A    between atoms: N_5  and  C_6
REMARK    3  A    between atoms: C_7  and  N_8
REMARK    4  A    between atoms: C_9  and  C_11
REMARK    5  A    between atoms: C_23  and  C_24
REMARK                            x       y       z     vdW  Elec       q    Type
REMARK                         _______ _______ _______ _____ _____    ______ ____
ROOT
ATOM      1  C   UNL     1      -0.313  10.190  20.740  0.00  0.00    +0.000 A 
ATOM      2  C   UNL     1       0.850   9.378  20.934  0.00  0.00    +0.000 A 
ATOM      3  C   UNL     1       1.324   9.177  22.241  0.00  0.00    +0.000 A 
ATOM      4  N   UNL     1       0.767   9.669  23.360  0.00  0.00    +0.000 NA
ATOM      5  C   UNL     1      -0.303  10.459  23.170  0.00  0.00    +0.000 A 
ATOM      6  C   UNL     1      -0.894  10.779  21.930  0.00  0.00    +0.000 A 
ENDROOT
BRANCH   6   7
ATOM      7  C   UNL     1      -2.019  11.770  21.984  0.00  0.00    +0.000 A 
ATOM      8  C   UNL     1      -2.219  12.611  23.089  0.00  0.00    +0.000 A 
ATOM      9  C   UNL     1      -3.192  13.623  23.071  0.00  0.00    +0.000 A 
ATOM     10 CL   UNL     1      -3.278  14.757  24.367  0.00  0.00    +0.000 Cl
ATOM     11  C   UNL     1      -4.061  13.758  21.998  0.00  0.00    +0.000 A 
ATOM     12  C   UNL     1      -3.970  12.849  20.954  0.00  0.00    +0.000 A 
ATOM     13 CL   UNL     1      -5.114  12.920  19.670  0.00  0.00    +0.000 Cl
ATOM     14  C   UNL     1      -2.957  11.880  20.933  0.00  0.00    +0.000 A 
ENDBRANCH   6   7
BRANCH   1  18
ATOM     15  C   UNL     1      -2.234  11.336  17.082  0.00  0.00    +0.000 C 
ATOM     16  C   UNL     1      -1.521  12.339  17.990  0.00  0.00    +0.000 C 
ATOM     17  C   UNL     1      -0.349  11.712  18.740  0.00  0.00    +0.000 C 
ATOM     18  N   UNL     1      -0.806  10.520  19.461  0.00  0.00    +0.000 N 
ATOM     19  C   UNL     1      -1.348   9.469  18.584  0.00  0.00    +0.000 C 
ATOM     20  C   UNL     1      -2.544  10.024  17.801  0.00  0.00    +0.000 C 
BRANCH  15  21
ATOM     21  N   UNL     1      -3.487  11.923  16.582  0.00  0.00    +0.000 NA
ATOM     22  H   UNL     1      -4.263  11.281  16.739  0.00  0.00    +0.000 HD
ATOM     23  H   UNL     1      -3.429  12.031  15.565  0.00  0.00    +0.000 HD
ENDBRANCH  15  21
ENDBRANCH   1  18
BRANCH   2  24
ATOM     24  N   UNL     1       1.599   8.726  19.899  0.00  0.00    +0.000 N 
ATOM     25  C   UNL     1       1.812   7.354  19.987  0.00  0.00    +0.000 C 
ATOM     26  O   UNL     1       1.441   6.703  20.971  0.00  0.00    +0.000 OA
ATOM     27  H   UNL     1       2.153   9.267  19.249  0.00  0.00    +0.000 HD
BRANCH  25  28
ATOM     28  C   UNL     1       2.487   6.652  18.888  0.00  0.00    +0.000 A 
ATOM     29  C   UNL     1       3.229   7.338  17.941  0.00  0.00    +0.000 A 
ATOM     30  N   UNL     1       3.963   6.401  17.282  0.00  0.00    +0.000 N 
ATOM     31  C   UNL     1       5.060   6.591  16.442  0.00  0.00    +0.000 A 
ATOM     32  C   UNL     1       5.662   5.520  15.909  0.00  0.00    +0.000 A 
ATOM     33  C   UNL     1       5.074   4.200  16.142  0.00  0.00    +0.000 A 
ATOM     34  C   UNL     1       4.023   4.039  16.970  0.00  0.00    +0.000 A 
ATOM     35  C   UNL     1       3.458   5.157  17.653  0.00  0.00    +0.000 A 
ATOM     36  N   UNL     1       2.587   5.278  18.646  0.00  0.00    +0.000 NA
ENDBRANCH  25  28
ENDBRANCH   2  24
TORSDOF 5
ENDMDL
MODEL 3
REMARK VINA RESULT:      -8.0      2.950      4.204
REMARK  Name = 
REMARK  5 active torsions:
REMARK  status: ('A' for Active; 'I' for Inactive)
REMARK    1  A    between atoms: N_1  and  C_2
REMARK    2  A    between atoms: N_5  and  C_6
REMARK    3  A    between atoms: C_7  and  N_8
REMARK    4  A    between atoms: C_9  and  C_11
REMARK    5  A    between atoms: C_23  and  C_24
REMARK                            x       y       z     vdW  Elec       q    Type
REMARK                         _______ _______ _______ _____ _____    ______ ____
ROOT
ATOM      1  C   UNL     1      -0.086  12.103  18.913  0.00  0.00    +0.000 A 
ATOM      2  C   UNL     1      -0.241  10.800  18.340  0.00  0.00    +0.000 A 
ATOM      3  C   UNL     1      -1.537  10.287  18.169  0.00  0.00    +0.000 A 
ATOM      4  N   UNL     1      -2.679  10.923  18.478  0.00  0.00    +0.000 NA
ATOM      5  C   UNL     1      -2.527  12.132  19.048  0.00  0.00    +0.000 A 
ATOM      6  C   UNL     1      -1.304  12.783  19.309  0.00  0.00    +0.000 A 
ENDROOT
BRANCH   6   7
ATOM      7  C   UNL     1      -1.407  14.082  20.051  0.00  0.00    +0.000 A 
ATOM      8  C   UNL     1      -2.178  14.218  21.215  0.00  0.00    +0.000 A 
ATOM      9  C   UNL     1      -2.160  15.400  21.971  0.00  0.00    +0.000 A 
ATOM     10 CL   UNL     1      -2.967  15.460  23.494  0.00  0.00    +0.000 Cl
ATOM     11  C   UNL     1      -1.458  16.514  21.535  0.00  0.00    +0.000 A 
ATOM     12  C   UNL     1      -0.798  16.447  20.316  0.00  0.00    +0.000 A 
ATOM     13 CL   UNL     1      -0.022  17.852  19.697  0.00  0.00    +0.000 Cl
ATOM     14  C   UNL     1      -0.756  15.249  19.591  0.00  0.00    +0.000 A 
ENDBRANCH   6   7
BRANCH   1  18
ATOM     15  C   UNL     1       3.518  14.243  19.814  0.00  0.00    +0.000 C 
ATOM     16  C   UNL     1       2.518  13.820  20.890  0.00  0.00    +0.000 C 
ATOM     17  C   UNL     1       1.789  12.528  20.531  0.00  0.00    +0.000 C 
ATOM     18  N   UNL     1       1.175  12.660  19.207  0.00  0.00    +0.000 N 
ATOM     19  C   UNL     1       2.144  12.906  18.126  0.00  0.00    +0.000 C 
ATOM     20  C   UNL     1       2.911  14.203  18.413  0.00  0.00    +0.000 C 
BRANCH  15  21
ATOM     21  N   UNL     1       4.002  15.604  20.094  0.00  0.00    +0.000 NA
ATOM     22  H   UNL     1       4.712  15.581  20.824  0.00  0.00    +0.000 HD
ATOM     23  H   UNL     1       3.236  16.164  20.479  0.00  0.00    +0.000 HD
ENDBRANCH  15  21
ENDBRANCH   1  18
BRANCH   2  24
ATOM     24  N   UNL     1       0.824   9.943  17.909  0.00  0.00    +0.000 N 
ATOM     25  C   UNL     1       1.406   9.078  18.832  0.00  0.00    +0.000 C 
ATOM     26  O   UNL     1       1.079   9.090  20.024  0.00  0.00    +0.000 OA
ATOM     27  H   UNL     1       1.299  10.116  17.033  0.00  0.00    +0.000 HD
BRANCH  25  28
ATOM     28  C   UNL     1       2.426   8.121  18.387  0.00  0.00    +0.000 A 
ATOM     29  C   UNL     1       2.496   6.842  18.914  0.00  0.00    +0.000 A 
ATOM     30  N   UNL     1       3.309   6.133  18.084  0.00  0.00    +0.000 N 
ATOM     31  C   UNL     1       3.479   4.752  18.009  0.00  0.00    +0.000 A 
ATOM     32  C   UNL     1       4.318   4.250  17.093  0.00  0.00    +0.000 A 
ATOM     33  C   UNL     1       5.105   5.181  16.283  0.00  0.00    +0.000 A 
ATOM     34  C   UNL     1       4.912   6.512  16.362  0.00  0.00    +0.000 A 
ATOM     35  C   UNL     1       3.922   7.052  17.236  0.00  0.00    +0.000 A 
ATOM     36  N   UNL     1       3.384   8.257  17.376  0.00  0.00    +0.000 NA
ENDBRANCH  25  28
ENDBRANCH   2  24
TORSDOF 5
ENDMDL
MODEL 4
REMARK VINA RESULT:      -8.0      3.923      4.856
REMARK  Name = 
REMARK  5 active torsions:
REMARK  status: ('A' for Active; 'I' for Inactive)
REMARK    1  A    between atoms: N_1  and  C_2
REMARK    2  A    between atoms: N_5  and  C_6
REMARK    3  A    between atoms: C_7  and  N_8
REMARK    4  A    between atoms: C_9  and  C_11
REMARK    5  A    between atoms: C_23  and  C_24
REMARK                            x       y       z     vdW  Elec       q    Type
REMARK                         _______ _______ _______ _____ _____    ______ ____
ROOT
ATOM      1  C   UNL     1       0.416  13.074  19.675  0.00  0.00    +0.000 A 
ATOM      2  C   UNL     1       0.075  11.705  19.912  0.00  0.00    +0.000 A 
ATOM      3  C   UNL     1      -1.254  11.385  20.234  0.00  0.00    +0.000 A 
ATOM      4  N   UNL     1      -2.270  12.259  20.322  0.00  0.00    +0.000 NA
ATOM      5  C   UNL     1      -1.938  13.547  20.133  0.00  0.00    +0.000 A 
ATOM      6  C   UNL     1      -0.653  14.041  19.825  0.00  0.00    +0.000 A 
ENDROOT
BRANCH   6   7
ATOM      7  C   UNL     1      -0.529  15.535  19.768  0.00  0.00    +0.000 A 
ATOM      8  C   UNL     1      -0.393  16.226  18.555  0.00  0.00    +0.000 A 
ATOM      9  C   UNL     1      -0.411  17.629  18.506  0.00  0.00    +0.000 A 
ATOM     10 CL   UNL     1      -0.436  18.437  16.983  0.00  0.00    +0.000 Cl
ATOM     11  C   UNL     1      -0.460  18.382  19.671  0.00  0.00    +0.000 A 
ATOM     12  C   UNL     1      -0.457  17.718  20.889  0.00  0.00    +0.000 A 
ATOM     13 CL   UNL     1      -0.395  18.630  22.348  0.00  0.00    +0.000 Cl
ATOM     14  C   UNL     1      -0.509  16.319  20.943  0.00  0.00    +0.000 A 
ENDBRANCH   6   7
BRANCH   1  18
ATOM     15  C   UNL     1       4.253  14.830  18.908  0.00  0.00    +0.000 C 
ATOM     16  C   UNL     1       3.615  14.813  20.298  0.00  0.00    +0.000 C 
ATOM     17  C   UNL     1       2.728  13.590  20.516  0.00  0.00    +0.000 C 
ATOM     18  N   UNL     1       1.740  13.499  19.437  0.00  0.00    +0.000 N 
ATOM     19  C   UNL     1       2.335  13.348  18.099  0.00  0.00    +0.000 C 
ATOM     20  C   UNL     1       3.236  14.553  17.803  0.00  0.00    +0.000 C 
BRANCH  15  21
ATOM     21  N   UNL     1       4.887  16.135  18.669  0.00  0.00    +0.000 NA
ATOM     22  H   UNL     1       5.587  16.056  17.933  0.00  0.00    +0.000 HD
ATOM     23  H   UNL     1       5.406  16.419  19.505  0.00  0.00    +0.000 HD
ENDBRANCH  15  21
ENDBRANCH   1  18
BRANCH   2  24
ATOM     24  N   UNL     1       0.980  10.594  19.850  0.00  0.00    +0.000 N 
ATOM     25  C   UNL     1       0.955   9.770  18.728  0.00  0.00    +0.000 C 
ATOM     26  O   UNL     1       0.123   9.928  17.827  0.00  0.00    +0.000 OA
ATOM     27  H   UNL     1       1.457  10.274  20.682  0.00  0.00    +0.000 HD
BRANCH  25  28
ATOM     28  C   UNL     1       1.942   8.690  18.598  0.00  0.00    +0.000 A 
ATOM     29  C   UNL     1       2.075   7.714  19.571  0.00  0.00    +0.000 A 
ATOM     30  N   UNL     1       2.815   6.718  19.012  0.00  0.00    +0.000 N 
ATOM     31  C   UNL     1       2.995   5.412  19.464  0.00  0.00    +0.000 A 
ATOM     32  C   UNL     1       3.750   4.574  18.742  0.00  0.00    +0.000 A 
ATOM     33  C   UNL     1       4.448   5.099  17.567  0.00  0.00    +0.000 A 
ATOM     34  C   UNL     1       4.247   6.361  17.141  0.00  0.00    +0.000 A 
ATOM     35  C   UNL     1       3.337   7.222  17.823  0.00  0.00    +0.000 A 
ATOM     36  N   UNL     1       2.799   8.400  17.532  0.00  0.00    +0.000 NA
ENDBRANCH  25  28
ENDBRANCH   2  24
TORSDOF 5
ENDMDL
MODEL 5
REMARK VINA RESULT:      -8.0      2.926      4.077
REMARK  Name = 
REMARK  5 active torsions:
REMARK  status: ('A' for Active; 'I' for Inactive)
REMARK    1  A    between atoms: N_1  and  C_2
REMARK    2  A    between atoms: N_5  and  C_6
REMARK    3  A    between atoms: C_7  and  N_8
REMARK    4  A    between atoms: C_9  and  C_11
REMARK    5  A    between atoms: C_23  and  C_24
REMARK                            x       y       z     vdW  Elec       q    Type
REMARK                         _______ _______ _______ _____ _____    ______ ____
ROOT
ATOM      1  C   UNL     1      -0.063  12.057  18.880  0.00  0.00    +0.000 A 
ATOM      2  C   UNL     1      -0.210  10.759  18.294  0.00  0.00    +0.000 A 
ATOM      3  C   UNL     1      -1.502  10.244  18.108  0.00  0.00    +0.000 A 
ATOM      4  N   UNL     1      -2.648  10.874  18.415  0.00  0.00    +0.000 NA
ATOM      5  C   UNL     1      -2.505  12.077  18.997  0.00  0.00    +0.000 A 
ATOM      6  C   UNL     1      -1.286  12.729  19.274  0.00  0.00    +0.000 A 
ENDROOT
BRANCH   6   7
ATOM      7  C   UNL     1      -1.398  14.022  20.026  0.00  0.00    +0.000 A 
ATOM      8  C   UNL     1      -0.774  15.198  19.585  0.00  0.00    +0.000 A 
ATOM      9  C   UNL     1      -0.996  16.428  20.225  0.00  0.00    +0.000 A 
ATOM     10 CL   UNL     1      -0.368  17.880  19.539  0.00  0.00    +0.000 Cl
ATOM     11  C   UNL     1      -1.760  16.503  21.381  0.00  0.00    +0.000 A 
ATOM     12  C   UNL     1      -2.274  15.329  21.912  0.00  0.00    +0.000 A 
ATOM     13 CL   UNL     1      -3.120  15.379  23.410  0.00  0.00    +0.000 Cl
ATOM     14  C   UNL     1      -2.114  14.109  21.242  0.00  0.00    +0.000 A 
ENDBRANCH   6   7
BRANCH   1  18
ATOM     15  C   UNL     1       3.529  14.201  19.824  0.00  0.00    +0.000 C 
ATOM     16  C   UNL     1       2.519  13.772  20.889  0.00  0.00    +0.000 C 
ATOM     17  C   UNL     1       1.796  12.480  20.518  0.00  0.00    +0.000 C 
ATOM     18  N   UNL     1       1.195  12.616  19.188  0.00  0.00    +0.000 N 
ATOM     19  C   UNL     1       2.174  12.867  18.118  0.00  0.00    +0.000 C 
ATOM     20  C   UNL     1       2.935  14.164  18.417  0.00  0.00    +0.000 C 
BRANCH  15  21
ATOM     21  N   UNL     1       4.007  15.561  20.114  0.00  0.00    +0.000 NA
ATOM     22  H   UNL     1       4.331  15.622  21.078  0.00  0.00    +0.000 HD
ATOM     23  H   UNL     1       3.223  16.218  20.051  0.00  0.00    +0.000 HD
ENDBRANCH  15  21
ENDBRANCH   1  18
BRANCH   2  24
ATOM     24  N   UNL     1       0.862   9.910  17.863  0.00  0.00    +0.000 N 
ATOM     25  C   UNL     1       1.440   9.039  18.782  0.00  0.00    +0.000 C 
ATOM     26  O   UNL     1       1.105   9.039  19.973  0.00  0.00    +0.000 OA
ATOM     27  H   UNL     1       1.343  10.092  16.992  0.00  0.00    +0.000 HD
BRANCH  25  28
ATOM     28  C   UNL     1       2.467   8.089  18.336  0.00  0.00    +0.000 A 
ATOM     29  C   UNL     1       2.539   6.807  18.854  0.00  0.00    +0.000 A 
ATOM     30  N   UNL     1       3.359   6.107  18.024  0.00  0.00    +0.000 N 
ATOM     31  C   UNL     1       3.536   4.727  17.940  0.00  0.00    +0.000 A 
ATOM     32  C   UNL     1       4.382   4.235  17.025  0.00  0.00    +0.000 A 
ATOM     33  C   UNL     1       5.170   5.175  16.227  0.00  0.00    +0.000 A 
ATOM     34  C   UNL     1       4.971   6.505  16.315  0.00  0.00    +0.000 A 
ATOM     35  C   UNL     1       3.974   7.035  17.187  0.00  0.00    +0.000 A 
ATOM     36  N   UNL     1       3.430   8.236  17.332  0.00  0.00    +0.000 NA
ENDBRANCH  25  28
ENDBRANCH   2  24
TORSDOF 5
ENDMDL
MODEL 6
REMARK VINA RESULT:      -8.0      4.034      5.225
REMARK  Name = 
REMARK  5 active torsions:
REMARK  status: ('A' for Active; 'I' for Inactive)
REMARK    1  A    between atoms: N_1  and  C_2
REMARK    2  A    between atoms: N_5  and  C_6
REMARK    3  A    between atoms: C_7  and  N_8
REMARK    4  A    between atoms: C_9  and  C_11
REMARK    5  A    between atoms: C_23  and  C_24
REMARK                            x       y       z     vdW  Elec       q    Type
REMARK                         _______ _______ _______ _____ _____    ______ ____
ROOT
ATOM      1  C   UNL     1       0.481  13.109  19.771  0.00  0.00    +0.000 A 
ATOM      2  C   UNL     1       0.065  11.765  20.033  0.00  0.00    +0.000 A 
ATOM      3  C   UNL     1      -1.285  11.522  20.336  0.00  0.00    +0.000 A 
ATOM      4  N   UNL     1      -2.256  12.449  20.385  0.00  0.00    +0.000 NA
ATOM      5  C   UNL     1      -1.853  13.714  20.173  0.00  0.00    +0.000 A 
ATOM      6  C   UNL     1      -0.539  14.133  19.878  0.00  0.00    +0.000 A 
ENDROOT
BRANCH   6   7
ATOM      7  C   UNL     1      -0.336  15.617  19.790  0.00  0.00    +0.000 A 
ATOM      8  C   UNL     1      -0.023  16.394  20.915  0.00  0.00    +0.000 A 
ATOM      9  C   UNL     1       0.295  17.757  20.797  0.00  0.00    +0.000 A 
ATOM     10 CL   UNL     1       0.861  18.631  22.172  0.00  0.00    +0.000 Cl
ATOM     11  C   UNL     1       0.207  18.406  19.574  0.00  0.00    +0.000 A 
ATOM     12  C   UNL     1      -0.234  17.686  18.473  0.00  0.00    +0.000 A 
ATOM     13 CL   UNL     1      -0.467  18.497  16.973  0.00  0.00    +0.000 Cl
ATOM     14  C   UNL     1      -0.486  16.312  18.569  0.00  0.00    +0.000 A 
ENDBRANCH   6   7
BRANCH   1  18
ATOM     15  C   UNL     1       4.414  14.641  19.016  0.00  0.00    +0.000 C 
ATOM     16  C   UNL     1       3.735  14.747  20.382  0.00  0.00    +0.000 C 
ATOM     17  C   UNL     1       2.787  13.581  20.652  0.00  0.00    +0.000 C 
ATOM     18  N   UNL     1       1.829  13.459  19.550  0.00  0.00    +0.000 N 
ATOM     19  C   UNL     1       2.457  13.191  18.245  0.00  0.00    +0.000 C 
ATOM     20  C   UNL     1       3.420  14.333  17.898  0.00  0.00    +0.000 C 
BRANCH  15  21
ATOM     21  N   UNL     1       5.114  15.898  18.711  0.00  0.00    +0.000 NA
ATOM     22  H   UNL     1       4.664  16.676  19.191  0.00  0.00    +0.000 HD
ATOM     23  H   UNL     1       5.019  16.107  17.713  0.00  0.00    +0.000 HD
ENDBRANCH  15  21
ENDBRANCH   1  18
BRANCH   2  24
ATOM     24  N   UNL     1       0.911  10.607  20.013  0.00  0.00    +0.000 N 
ATOM     25  C   UNL     1       0.914   9.797  18.881  0.00  0.00    +0.000 C 
ATOM     26  O   UNL     1       0.150  10.009  17.932  0.00  0.00    +0.000 OA
ATOM     27  H   UNL     1       1.317  10.254  20.869  0.00  0.00    +0.000 HD
BRANCH  25  28
ATOM     28  C   UNL     1       1.848   8.667  18.800  0.00  0.00    +0.000 A 
ATOM     29  C   UNL     1       1.994   7.774  19.849  0.00  0.00    +0.000 A 
ATOM     30  N   UNL     1       2.662   6.702  19.344  0.00  0.00    +0.000 N 
ATOM     31  C   UNL     1       2.813   5.433  19.902  0.00  0.00    +0.000 A 
ATOM     32  C   UNL     1       3.494   4.502  19.221  0.00  0.00    +0.000 A 
ATOM     33  C   UNL     1       4.149   4.890  17.971  0.00  0.00    +0.000 A 
ATOM     34  C   UNL     1       3.976   6.119  17.444  0.00  0.00    +0.000 A 
ATOM     35  C   UNL     1       3.139   7.076  18.090  0.00  0.00    +0.000 A 
ATOM     36  N   UNL     1       2.635   8.247  17.723  0.00  0.00    +0.000 NA
ENDBRANCH  25  28
ENDBRANCH   2  24
TORSDOF 5
ENDMDL
MODEL 7
REMARK VINA RESULT:      -7.6      7.160      8.028
REMARK  Name = 
REMARK  5 active torsions:
REMARK  status: ('A' for Active; 'I' for Inactive)
REMARK    1  A    between atoms: N_1  and  C_2
REMARK    2  A    between atoms: N_5  and  C_6
REMARK    3  A    between atoms: C_7  and  N_8
REMARK    4  A    between atoms: C_9  and  C_11
REMARK    5  A    between atoms: C_23  and  C_24
REMARK                            x       y       z     vdW  Elec       q    Type
REMARK                         _______ _______ _______ _____ _____    ______ ____
ROOT
ATOM      1  C   UNL     1       3.910  16.008  20.373  0.00  0.00    +0.000 A 
ATOM      2  C   UNL     1       5.296  16.169  20.690  0.00  0.00    +0.000 A 
ATOM      3  C   UNL     1       5.756  17.435  21.089  0.00  0.00    +0.000 A 
ATOM      4  N   UNL     1       4.999  18.536  21.226  0.00  0.00    +0.000 NA
ATOM      5  C   UNL     1       3.705  18.388  20.893  0.00  0.00    +0.000 A 
ATOM      6  C   UNL     1       3.086  17.199  20.456  0.00  0.00    +0.000 A 
ENDROOT
BRANCH   6   7
ATOM      7  C   UNL     1       1.649  17.328  20.046  0.00  0.00    +0.000 A 
ATOM      8  C   UNL     1       0.595  16.983  20.905  0.00  0.00    +0.000 A 
ATOM      9  C   UNL     1      -0.742  17.233  20.559  0.00  0.00    +0.000 A 
ATOM     10 CL   UNL     1      -1.994  16.975  21.717  0.00  0.00    +0.000 Cl
ATOM     11  C   UNL     1      -1.073  17.735  19.309  0.00  0.00    +0.000 A 
ATOM     12  C   UNL     1      -0.055  17.954  18.392  0.00  0.00    +0.000 A 
ATOM     13 CL   UNL     1      -0.450  18.460  16.795  0.00  0.00    +0.000 Cl
ATOM     14  C   UNL     1       1.286  17.772  18.755  0.00  0.00    +0.000 A 
ENDBRANCH   6   7
BRANCH   1  18
ATOM     15  C   UNL     1       1.849  12.573  18.843  0.00  0.00    +0.000 C 
ATOM     16  C   UNL     1       2.379  13.688  17.940  0.00  0.00    +0.000 C 
ATOM     17  C   UNL     1       3.634  14.347  18.507  0.00  0.00    +0.000 C 
ATOM     18  N   UNL     1       3.377  14.800  19.877  0.00  0.00    +0.000 N 
ATOM     19  C   UNL     1       3.024  13.713  20.804  0.00  0.00    +0.000 C 
ATOM     20  C   UNL     1       1.757  13.008  20.304  0.00  0.00    +0.000 C 
BRANCH  15  21
ATOM     21  N   UNL     1       0.520  12.149  18.378  0.00  0.00    +0.000 NA
ATOM     22  H   UNL     1       0.212  11.327  18.896  0.00  0.00    +0.000 HD
ATOM     23  H   UNL     1       0.582  11.844  17.402  0.00  0.00    +0.000 HD
ENDBRANCH  15  21
ENDBRANCH   1  18
BRANCH   2  24
ATOM     24  N   UNL     1       6.291  15.137  20.644  0.00  0.00    +0.000 N 
ATOM     25  C   UNL     1       7.067  15.003  19.496  0.00  0.00    +0.000 C 
ATOM     26  O   UNL     1       6.864  15.699  18.494  0.00  0.00    +0.000 OA
ATOM     27  H   UNL     1       6.280  14.384  21.319  0.00  0.00    +0.000 HD
BRANCH  25  28
ATOM     28  C   UNL     1       8.158  14.022  19.468  0.00  0.00    +0.000 A 
ATOM     29  C   UNL     1       8.565  13.429  18.285  0.00  0.00    +0.000 A 
ATOM     30  N   UNL     1       9.765  12.843  18.547  0.00  0.00    +0.000 N 
ATOM     31  C   UNL     1      10.713  12.364  17.643  0.00  0.00    +0.000 A 
ATOM     32  C   UNL     1      11.852  11.841  18.114  0.00  0.00    +0.000 A 
ATOM     33  C   UNL     1      12.007  11.692  19.562  0.00  0.00    +0.000 A 
ATOM     34  C   UNL     1      11.084  12.177  20.417  0.00  0.00    +0.000 A 
ATOM     35  C   UNL     1       9.930  12.859  19.930  0.00  0.00    +0.000 A 
ATOM     36  N   UNL     1       8.989  13.594  20.509  0.00  0.00    +0.000 NA
ENDBRANCH  25  28
ENDBRANCH   2  24
TORSDOF 5
ENDMDL
MODEL 8
REMARK VINA RESULT:      -7.6      3.115      4.135
REMARK  Name = 
REMARK  5 active torsions:
REMARK  status: ('A' for Active; 'I' for Inactive)
REMARK    1  A    between atoms: N_1  and  C_2
REMARK    2  A    between atoms: N_5  and  C_6
REMARK    3  A    between atoms: C_7  and  N_8
REMARK    4  A    between atoms: C_9  and  C_11
REMARK    5  A    between atoms: C_23  and  C_24
REMARK                            x       y       z     vdW  Elec       q    Type
REMARK                         _______ _______ _______ _____ _____    ______ ____
ROOT
ATOM      1  C   UNL     1       0.012  12.108  18.930  0.00  0.00    +0.000 A 
ATOM      2  C   UNL     1      -0.215  10.765  18.489  0.00  0.00    +0.000 A 
ATOM      3  C   UNL     1      -1.538  10.318  18.335  0.00  0.00    +0.000 A 
ATOM      4  N   UNL     1      -2.642  11.053  18.546  0.00  0.00    +0.000 NA
ATOM      5  C   UNL     1      -2.424  12.302  18.994  0.00  0.00    +0.000 A 
ATOM      6  C   UNL     1      -1.168  12.899  19.221  0.00  0.00    +0.000 A 
ENDROOT
BRANCH   6   7
ATOM      7  C   UNL     1      -1.202  14.273  19.824  0.00  0.00    +0.000 A 
ATOM      8  C   UNL     1      -0.541  15.361  19.236  0.00  0.00    +0.000 A 
ATOM      9  C   UNL     1      -0.690  16.664  19.735  0.00  0.00    +0.000 A 
ATOM     10 CL   UNL     1      -0.020  17.999  18.873  0.00  0.00    +0.000 Cl
ATOM     11  C   UNL     1      -1.416  16.905  20.893  0.00  0.00    +0.000 A 
ATOM     12  C   UNL     1      -1.964  15.824  21.568  0.00  0.00    +0.000 A 
ATOM     13 CL   UNL     1      -2.764  16.083  23.070  0.00  0.00    +0.000 Cl
ATOM     14  C   UNL     1      -1.877  14.530  21.038  0.00  0.00    +0.000 A 
ENDBRANCH   6   7
BRANCH   1  18
ATOM     15  C   UNL     1       3.722  14.102  19.734  0.00  0.00    +0.000 C 
ATOM     16  C   UNL     1       2.699  13.788  20.827  0.00  0.00    +0.000 C 
ATOM     17  C   UNL     1       1.904  12.518  20.532  0.00  0.00    +0.000 C 
ATOM     18  N   UNL     1       1.300  12.613  19.200  0.00  0.00    +0.000 N 
ATOM     19  C   UNL     1       2.282  12.751  18.112  0.00  0.00    +0.000 C 
ATOM     20  C   UNL     1       3.115  14.020  18.335  0.00  0.00    +0.000 C 
BRANCH  15  21
ATOM     21  N   UNL     1       4.275  15.448  19.945  0.00  0.00    +0.000 NA
ATOM     22  H   UNL     1       5.271  15.456  19.729  0.00  0.00    +0.000 HD
ATOM     23  H   UNL     1       4.214  15.689  20.939  0.00  0.00    +0.000 HD
ENDBRANCH  15  21
ENDBRANCH   1  18
BRANCH   2  24
ATOM     24  N   UNL     1       0.802   9.803  18.177  0.00  0.00    +0.000 N 
ATOM     25  C   UNL     1       1.246   8.946  19.179  0.00  0.00    +0.000 C 
ATOM     26  O   UNL     1       0.842   9.048  20.344  0.00  0.00    +0.000 OA
ATOM     27  H   UNL     1       1.347   9.890  17.330  0.00  0.00    +0.000 HD
BRANCH  25  28
ATOM     28  C   UNL     1       2.210   7.888  18.855  0.00  0.00    +0.000 A 
ATOM     29  C   UNL     1       2.961   7.927  17.692  0.00  0.00    +0.000 A 
ATOM     30  N   UNL     1       3.954   7.010  17.849  0.00  0.00    +0.000 N 
ATOM     31  C   UNL     1       5.120   6.857  17.101  0.00  0.00    +0.000 A 
ATOM     32  C   UNL     1       5.989   5.897  17.443  0.00  0.00    +0.000 A 
ATOM     33  C   UNL     1       5.623   4.975  18.519  0.00  0.00    +0.000 A 
ATOM     34  C   UNL     1       4.497   5.151  19.238  0.00  0.00    +0.000 A 
ATOM     35  C   UNL     1       3.631   6.253  18.973  0.00  0.00    +0.000 A 
ATOM     36  N   UNL     1       2.600   6.783  19.619  0.00  0.00    +0.000 NA
ENDBRANCH  25  28
ENDBRANCH   2  24
TORSDOF 5
ENDMDL
MODEL 9
REMARK VINA RESULT:      -7.6      3.192      4.347
REMARK  Name = 
REMARK  5 active torsions:
REMARK  status: ('A' for Active; 'I' for Inactive)
REMARK    1  A    between atoms: N_1  and  C_2
REMARK    2  A    between atoms: N_5  and  C_6
REMARK    3  A    between atoms: C_7  and  N_8
REMARK    4  A    between atoms: C_9  and  C_11
REMARK    5  A    between atoms: C_23  and  C_24
REMARK                            x       y       z     vdW  Elec       q    Type
REMARK                         _______ _______ _______ _____ _____    ______ ____
ROOT
ATOM      1  C   UNL     1       0.031  12.222  18.940  0.00  0.00    +0.000 A 
ATOM      2  C   UNL     1      -0.225  10.882  18.506  0.00  0.00    +0.000 A 
ATOM      3  C   UNL     1      -1.556  10.461  18.360  0.00  0.00    +0.000 A 
ATOM      4  N   UNL     1      -2.645  11.218  18.572  0.00  0.00    +0.000 NA
ATOM      5  C   UNL     1      -2.401  12.465  19.013  0.00  0.00    +0.000 A 
ATOM      6  C   UNL     1      -1.132  13.038  19.232  0.00  0.00    +0.000 A 
ENDROOT
BRANCH   6   7
ATOM      7  C   UNL     1      -1.136  14.415  19.828  0.00  0.00    +0.000 A 
ATOM      8  C   UNL     1      -1.839  14.716  21.004  0.00  0.00    +0.000 A 
ATOM      9  C   UNL     1      -1.727  15.971  21.622  0.00  0.00    +0.000 A 
ATOM     10 CL   UNL     1      -2.449  16.239  23.165  0.00  0.00    +0.000 Cl
ATOM     11  C   UNL     1      -0.999  16.994  21.032  0.00  0.00    +0.000 A 
ATOM     12  C   UNL     1      -0.408  16.760  19.798  0.00  0.00    +0.000 A 
ATOM     13 CL   UNL     1       0.397  18.048  18.989  0.00  0.00    +0.000 Cl
ATOM     14  C   UNL     1      -0.458  15.489  19.210  0.00  0.00    +0.000 A 
ENDBRANCH   6   7
BRANCH   1  18
ATOM     15  C   UNL     1       3.781  14.146  19.725  0.00  0.00    +0.000 C 
ATOM     16  C   UNL     1       2.763  13.843  20.824  0.00  0.00    +0.000 C 
ATOM     17  C   UNL     1       1.943  12.590  20.528  0.00  0.00    +0.000 C 
ATOM     18  N   UNL     1       1.330  12.704  19.202  0.00  0.00    +0.000 N 
ATOM     19  C   UNL     1       2.305  12.832  18.107  0.00  0.00    +0.000 C 
ATOM     20  C   UNL     1       3.162  14.084  18.330  0.00  0.00    +0.000 C 
BRANCH  15  21
ATOM     21  N   UNL     1       4.360  15.482  19.940  0.00  0.00    +0.000 NA
ATOM     22  H   UNL     1       4.034  16.126  19.220  0.00  0.00    +0.000 HD
ATOM     23  H   UNL     1       5.376  15.435  19.819  0.00  0.00    +0.000 HD
ENDBRANCH  15  21
ENDBRANCH   1  18
BRANCH   2  24
ATOM     24  N   UNL     1       0.772   9.899  18.194  0.00  0.00    +0.000 N 
ATOM     25  C   UNL     1       1.198   9.033  19.197  0.00  0.00    +0.000 C 
ATOM     26  O   UNL     1       0.796   9.144  20.362  0.00  0.00    +0.000 OA
ATOM     27  H   UNL     1       1.319   9.974  17.348  0.00  0.00    +0.000 HD
BRANCH  25  28
ATOM     28  C   UNL     1       2.140   7.955  18.874  0.00  0.00    +0.000 A 
ATOM     29  C   UNL     1       2.879   7.969  17.702  0.00  0.00    +0.000 A 
ATOM     30  N   UNL     1       3.857   7.036  17.858  0.00  0.00    +0.000 N 
ATOM     31  C   UNL     1       5.013   6.856  17.101  0.00  0.00    +0.000 A 
ATOM     32  C   UNL     1       5.868   5.883  17.443  0.00  0.00    +0.000 A 
ATOM     33  C   UNL     1       5.496   4.978  18.532  0.00  0.00    +0.000 A 
ATOM     34  C   UNL     1       4.381   5.181  19.260  0.00  0.00    +0.000 A 
ATOM     35  C   UNL     1       3.532   6.296  18.993  0.00  0.00    +0.000 A 
ATOM     36  N   UNL     1       2.518   6.850  19.644  0.00  0.00    +0.000 NA
ENDBRANCH  25  28
ENDBRANCH   2  24
TORSDOF 5
ENDMDL
