MODEL 1
REMARK VINA RESULT:      -8.1      0.000      0.000
REMARK  Name = 
REMARK  6 active torsions:
REMARK  status: ('A' for Active; 'I' for Inactive)
REMARK    1  A    between atoms: C_1  and  O_2
REMARK    2  A    between atoms: O_2  and  C_3
REMARK    3  A    between atoms: C_3  and  C_5
REMARK    4  A    between atoms: C_6  and  O_7
REMARK    5  A    between atoms: N_13  and  C_14
REMARK    6  A    between atoms: C_18  and  N_19
REMARK                            x       y       z     vdW  Elec       q    Type
REMARK                         _______ _______ _______ _____ _____    ______ ____
ROOT
ATOM      1  C   UNL     1       5.087   4.752  18.445  0.00  0.00    +0.000 A 
ATOM      2  C   UNL     1       4.557   3.710  19.125  0.00  0.00    +0.000 A 
ATOM      3  C   UNL     1       3.318   3.854  19.808  0.00  0.00    +0.000 A 
ATOM      4  N   UNL     1       2.686   2.840  20.486  0.00  0.00    +0.000 NA
ATOM      5  C   UNL     1       1.547   3.307  20.956  0.00  0.00    +0.000 A 
ATOM      6  S   UNL     1       1.199   4.958  20.609  0.00  0.00    +0.000 S 
ATOM      7  C   UNL     1       2.684   5.072  19.788  0.00  0.00    +0.000 A 
ATOM      8  N   UNL     1       3.153   6.187  19.110  0.00  0.00    +0.000 N 
ATOM      9  C   UNL     1       4.324   6.049  18.346  0.00  0.00    +0.000 A 
ATOM     10  O   UNL     1       4.743   6.950  17.616  0.00  0.00    +0.000 OA
ENDROOT
BRANCH   8  11
ATOM     11  C   UNL     1       2.420   7.401  19.084  0.00  0.00    +0.000 A 
ATOM     12  C   UNL     1       2.137   8.038  17.867  0.00  0.00    +0.000 A 
ATOM     13  C   UNL     1       1.320   9.172  17.835  0.00  0.00    +0.000 A 
ATOM     14  C   UNL     1       0.788   9.686  19.018  0.00  0.00    +0.000 A 
ATOM     15  C   UNL     1       1.075   9.054  20.235  0.00  0.00    +0.000 A 
ATOM     16  C   UNL     1       1.878   7.909  20.271  0.00  0.00    +0.000 A 
BRANCH  15  17
ATOM     17  N   UNL     1       0.526   9.589  21.486  0.00  0.00    +0.000 N 
ATOM     18  O   UNL     1      -0.383   8.950  22.034  0.00  0.00    +0.000 OA
ATOM     19  O   UNL     1       0.991  10.656  21.913  0.00  0.00    +0.000 OA
ENDBRANCH  15  17
ENDBRANCH   8  11
BRANCH   1  20
ATOM     20  C   UNL     1       6.416   4.585  17.829  0.00  0.00    +0.000 C 
ATOM     21  O   UNL     1       6.574   4.410  16.625  0.00  0.00    +0.000 OA
BRANCH  20  23
ATOM     22  C   UNL     1       7.865   5.816  19.216  0.00  0.00    +0.000 C 
ATOM     23  O   UNL     1       7.393   4.549  18.761  0.00  0.00    +0.000 OA
ENDBRANCH  20  23
ENDBRANCH   1  20
BRANCH   2  24
ATOM     24  O   UNL     1       5.140   2.461  19.242  0.00  0.00    +0.000 OA
ATOM     25  H   UNL     1       5.447   2.156  18.361  0.00  0.00    +0.000 HD
ENDBRANCH   2  24
TORSDOF 5
ENDMDL
MODEL 2
REMARK VINA RESULT:      -7.8      2.078      3.652
REMARK  Name = 
REMARK  6 active torsions:
REMARK  status: ('A' for Active; 'I' for Inactive)
REMARK    1  A    between atoms: C_1  and  O_2
REMARK    2  A    between atoms: O_2  and  C_3
REMARK    3  A    between atoms: C_3  and  C_5
REMARK    4  A    between atoms: C_6  and  O_7
REMARK    5  A    between atoms: N_13  and  C_14
REMARK    6  A    between atoms: C_18  and  N_19
REMARK                            x       y       z     vdW  Elec       q    Type
REMARK                         _______ _______ _______ _____ _____    ______ ____
ROOT
ATOM      1  C   UNL     1       3.007   3.794  20.028  0.00  0.00    +0.000 A 
ATOM      2  C   UNL     1       4.197   3.604  19.413  0.00  0.00    +0.000 A 
ATOM      3  C   UNL     1       4.801   4.662  18.678  0.00  0.00    +0.000 A 
ATOM      4  N   UNL     1       6.024   4.573  18.058  0.00  0.00    +0.000 NA
ATOM      5  C   UNL     1       6.295   5.742  17.514  0.00  0.00    +0.000 A 
ATOM      6  S   UNL     1       5.109   6.973  17.721  0.00  0.00    +0.000 S 
ATOM      7  C   UNL     1       4.147   5.865  18.582  0.00  0.00    +0.000 A 
ATOM      8  N   UNL     1       2.932   6.146  19.188  0.00  0.00    +0.000 N 
ATOM      9  C   UNL     1       2.356   5.154  20.001  0.00  0.00    +0.000 A 
ATOM     10  O   UNL     1       1.345   5.360  20.674  0.00  0.00    +0.000 OA
ENDROOT
BRANCH   8  11
ATOM     11  C   UNL     1       2.336   7.429  19.096  0.00  0.00    +0.000 A 
ATOM     12  C   UNL     1       2.105   8.023  17.847  0.00  0.00    +0.000 A 
ATOM     13  C   UNL     1       1.417   9.236  17.754  0.00  0.00    +0.000 A 
ATOM     14  C   UNL     1       0.962   9.872  18.910  0.00  0.00    +0.000 A 
ATOM     15  C   UNL     1       1.197   9.284  20.159  0.00  0.00    +0.000 A 
ATOM     16  C   UNL     1       1.871   8.062  20.256  0.00  0.00    +0.000 A 
BRANCH  15  17
ATOM     17  N   UNL     1       0.729   9.947  21.381  0.00  0.00    +0.000 N 
ATOM     18  O   UNL     1       1.340   9.710  22.433  0.00  0.00    +0.000 OA
ATOM     19  O   UNL     1      -0.259  10.692  21.295  0.00  0.00    +0.000 OA
ENDBRANCH  15  17
ENDBRANCH   8  11
BRANCH   1  20
ATOM     20  C   UNL     1       2.375   2.645  20.701  0.00  0.00    +0.000 C 
ATOM     21  O   UNL     1       2.383   2.500  21.920  0.00  0.00    +0.000 OA
BRANCH  20  23
ATOM     22  C   UNL     1       0.866   2.233  18.943  0.00  0.00    +0.000 C 
ATOM     23  O   UNL     1       1.893   1.752  19.809  0.00  0.00    +0.000 OA
ENDBRANCH  20  23
ENDBRANCH   1  20
BRANCH   2  24
ATOM     24  O   UNL     1       4.909   2.419  19.412  0.00  0.00    +0.000 OA
ATOM     25  H   UNL     1       5.270   2.250  20.309  0.00  0.00    +0.000 HD
ENDBRANCH   2  24
TORSDOF 5
ENDMDL
MODEL 3
REMARK VINA RESULT:      -7.8      1.152      1.651
REMARK  Name = 
REMARK  6 active torsions:
REMARK  status: ('A' for Active; 'I' for Inactive)
REMARK    1  A    between atoms: C_1  and  O_2
REMARK    2  A    between atoms: O_2  and  C_3
REMARK    3  A    between atoms: C_3  and  C_5
REMARK    4  A    between atoms: C_6  and  O_7
REMARK    5  A    between atoms: N_13  and  C_14
REMARK    6  A    between atoms: C_18  and  N_19
REMARK                            x       y       z     vdW  Elec       q    Type
REMARK                         _______ _______ _______ _____ _____    ______ ____
ROOT
ATOM      1  C   UNL     1       4.589   4.446  17.578  0.00  0.00    +0.000 A 
ATOM      2  C   UNL     1       4.004   3.353  18.117  0.00  0.00    +0.000 A 
ATOM      3  C   UNL     1       2.865   3.489  18.958  0.00  0.00    +0.000 A 
ATOM      4  N   UNL     1       2.182   2.435  19.513  0.00  0.00    +0.000 NA
ATOM      5  C   UNL     1       1.161   2.917  20.192  0.00  0.00    +0.000 A 
ATOM      6  S   UNL     1       0.987   4.630  20.192  0.00  0.00    +0.000 S 
ATOM      7  C   UNL     1       2.387   4.747  19.233  0.00  0.00    +0.000 A 
ATOM      8  N   UNL     1       2.921   5.917  18.716  0.00  0.00    +0.000 N 
ATOM      9  C   UNL     1       3.987   5.810  17.805  0.00  0.00    +0.000 A 
ATOM     10  O   UNL     1       4.440   6.786  17.204  0.00  0.00    +0.000 OA
ENDROOT
BRANCH   8  11
ATOM     11  C   UNL     1       2.345   7.182  18.996  0.00  0.00    +0.000 A 
ATOM     12  C   UNL     1       2.051   8.079  17.958  0.00  0.00    +0.000 A 
ATOM     13  C   UNL     1       1.381   9.277  18.225  0.00  0.00    +0.000 A 
ATOM     14  C   UNL     1       1.008   9.593  19.532  0.00  0.00    +0.000 A 
ATOM     15  C   UNL     1       1.306   8.702  20.570  0.00  0.00    +0.000 A 
ATOM     16  C   UNL     1       1.962   7.495  20.306  0.00  0.00    +0.000 A 
BRANCH  15  17
ATOM     17  N   UNL     1       0.925   9.028  21.949  0.00  0.00    +0.000 N 
ATOM     18  O   UNL     1       1.812   9.446  22.706  0.00  0.00    +0.000 OA
ATOM     19  O   UNL     1      -0.257   8.851  22.281  0.00  0.00    +0.000 OA
ENDBRANCH  15  17
ENDBRANCH   8  11
BRANCH   1  20
ATOM     20  C   UNL     1       5.821   4.265  16.788  0.00  0.00    +0.000 C 
ATOM     21  O   UNL     1       6.925   4.627  17.184  0.00  0.00    +0.000 OA
BRANCH  20  23
ATOM     22  C   UNL     1       6.415   4.189  14.512  0.00  0.00    +0.000 C 
ATOM     23  O   UNL     1       5.555   3.757  15.565  0.00  0.00    +0.000 OA
ENDBRANCH  20  23
ENDBRANCH   1  20
BRANCH   2  24
ATOM     24  O   UNL     1       4.437   2.051  17.938  0.00  0.00    +0.000 OA
ATOM     25  H   UNL     1       5.036   1.798  18.673  0.00  0.00    +0.000 HD
ENDBRANCH   2  24
TORSDOF 5
ENDMDL
MODEL 4
REMARK VINA RESULT:      -7.7      1.649      1.707
REMARK  Name = 
REMARK  6 active torsions:
REMARK  status: ('A' for Active; 'I' for Inactive)
REMARK    1  A    between atoms: C_1  and  O_2
REMARK    2  A    between atoms: O_2  and  C_3
REMARK    3  A    between atoms: C_3  and  C_5
REMARK    4  A    between atoms: C_6  and  O_7
REMARK    5  A    between atoms: N_13  and  C_14
REMARK    6  A    between atoms: C_18  and  N_19
REMARK                            x       y       z     vdW  Elec       q    Type
REMARK                         _______ _______ _______ _____ _____    ______ ____
ROOT
ATOM      1  C   UNL     1       5.574   5.280  16.953  0.00  0.00    +0.000 A 
ATOM      2  C   UNL     1       4.989   4.060  16.960  0.00  0.00    +0.000 A 
ATOM      3  C   UNL     1       3.656   3.907  17.433  0.00  0.00    +0.000 A 
ATOM      4  N   UNL     1       2.969   2.717  17.438  0.00  0.00    +0.000 NA
ATOM      5  C   UNL     1       1.755   2.945  17.897  0.00  0.00    +0.000 A 
ATOM      6  S   UNL     1       1.399   4.571  18.337  0.00  0.00    +0.000 S 
ATOM      7  C   UNL     1       2.985   5.008  17.905  0.00  0.00    +0.000 A 
ATOM      8  N   UNL     1       3.507   6.292  17.925  0.00  0.00    +0.000 N 
ATOM      9  C   UNL     1       4.785   6.493  17.375  0.00  0.00    +0.000 A 
ATOM     10  O   UNL     1       5.273   7.617  17.238  0.00  0.00    +0.000 OA
ENDROOT
BRANCH   8  11
ATOM     11  C   UNL     1       2.740   7.398  18.374  0.00  0.00    +0.000 A 
ATOM     12  C   UNL     1       2.345   8.404  17.480  0.00  0.00    +0.000 A 
ATOM     13  C   UNL     1       1.497   9.432  17.901  0.00  0.00    +0.000 A 
ATOM     14  C   UNL     1       1.043   9.469  19.220  0.00  0.00    +0.000 A 
ATOM     15  C   UNL     1       1.441   8.468  20.115  0.00  0.00    +0.000 A 
ATOM     16  C   UNL     1       2.277   7.429  19.696  0.00  0.00    +0.000 A 
BRANCH  15  17
ATOM     17  N   UNL     1       0.976   8.502  21.506  0.00  0.00    +0.000 N 
ATOM     18  O   UNL     1      -0.144   8.031  21.748  0.00  0.00    +0.000 OA
ATOM     19  O   UNL     1       1.721   9.014  22.355  0.00  0.00    +0.000 OA
ENDBRANCH  15  17
ENDBRANCH   8  11
BRANCH   1  20
ATOM     20  C   UNL     1       6.986   5.377  16.540  0.00  0.00    +0.000 C 
ATOM     21  O   UNL     1       7.332   5.845  15.460  0.00  0.00    +0.000 OA
BRANCH  20  23
ATOM     22  C   UNL     1       7.835   5.413  18.735  0.00  0.00    +0.000 C 
ATOM     23  O   UNL     1       7.807   4.802  17.446  0.00  0.00    +0.000 OA
ENDBRANCH  20  23
ENDBRANCH   1  20
BRANCH   2  24
ATOM     24  O   UNL     1       5.595   2.887  16.550  0.00  0.00    +0.000 OA
ATOM     25  H   UNL     1       5.334   2.154  17.148  0.00  0.00    +0.000 HD
ENDBRANCH   2  24
TORSDOF 5
ENDMDL
MODEL 5
REMARK VINA RESULT:      -7.7      1.061      1.238
REMARK  Name = 
REMARK  6 active torsions:
REMARK  status: ('A' for Active; 'I' for Inactive)
REMARK    1  A    between atoms: C_1  and  O_2
REMARK    2  A    between atoms: O_2  and  C_3
REMARK    3  A    between atoms: C_3  and  C_5
REMARK    4  A    between atoms: C_6  and  O_7
REMARK    5  A    between atoms: N_13  and  C_14
REMARK    6  A    between atoms: C_18  and  N_19
REMARK                            x       y       z     vdW  Elec       q    Type
REMARK                         _______ _______ _______ _____ _____    ______ ____
ROOT
ATOM      1  C   UNL     1       4.526   4.652  17.336  0.00  0.00    +0.000 A 
ATOM      2  C   UNL     1       4.006   3.535  17.896  0.00  0.00    +0.000 A 
ATOM      3  C   UNL     1       2.915   3.630  18.804  0.00  0.00    +0.000 A 
ATOM      4  N   UNL     1       2.298   2.549  19.386  0.00  0.00    +0.000 NA
ATOM      5  C   UNL     1       1.306   2.994  20.131  0.00  0.00    +0.000 A 
ATOM      6  S   UNL     1       1.082   4.701  20.162  0.00  0.00    +0.000 S 
ATOM      7  C   UNL     1       2.419   4.869  19.123  0.00  0.00    +0.000 A 
ATOM      8  N   UNL     1       2.887   6.060  18.590  0.00  0.00    +0.000 N 
ATOM      9  C   UNL     1       3.898   5.994  17.616  0.00  0.00    +0.000 A 
ATOM     10  O   UNL     1       4.286   6.989  17.000  0.00  0.00    +0.000 OA
ENDROOT
BRANCH   8  11
ATOM     11  C   UNL     1       2.292   7.305  18.918  0.00  0.00    +0.000 A 
ATOM     12  C   UNL     1       1.941   8.218  17.913  0.00  0.00    +0.000 A 
ATOM     13  C   UNL     1       1.254   9.392  18.231  0.00  0.00    +0.000 A 
ATOM     14  C   UNL     1       0.920   9.671  19.557  0.00  0.00    +0.000 A 
ATOM     15  C   UNL     1       1.274   8.763  20.563  0.00  0.00    +0.000 A 
ATOM     16  C   UNL     1       1.948   7.578  20.249  0.00  0.00    +0.000 A 
BRANCH  15  17
ATOM     17  N   UNL     1       0.934   9.049  21.961  0.00  0.00    +0.000 N 
ATOM     18  O   UNL     1       1.852   9.403  22.714  0.00  0.00    +0.000 OA
ATOM     19  O   UNL     1      -0.246   8.904  22.312  0.00  0.00    +0.000 OA
ENDBRANCH  15  17
ENDBRANCH   8  11
BRANCH   1  20
ATOM     20  C   UNL     1       5.712   4.515  16.472  0.00  0.00    +0.000 C 
ATOM     21  O   UNL     1       5.762   3.731  15.529  0.00  0.00    +0.000 OA
BRANCH  20  23
ATOM     22  C   UNL     1       7.613   4.651  17.853  0.00  0.00    +0.000 C 
ATOM     23  O   UNL     1       6.738   5.275  16.915  0.00  0.00    +0.000 OA
ENDBRANCH  20  23
ENDBRANCH   1  20
BRANCH   2  24
ATOM     24  O   UNL     1       4.465   2.250  17.675  0.00  0.00    +0.000 OA
ATOM     25  H   UNL     1       3.813   1.755  17.133  0.00  0.00    +0.000 HD
ENDBRANCH   2  24
TORSDOF 5
ENDMDL
MODEL 6
REMARK VINA RESULT:      -7.6      2.026      2.422
REMARK  Name = 
REMARK  6 active torsions:
REMARK  status: ('A' for Active; 'I' for Inactive)
REMARK    1  A    between atoms: C_1  and  O_2
REMARK    2  A    between atoms: O_2  and  C_3
REMARK    3  A    between atoms: C_3  and  C_5
REMARK    4  A    between atoms: C_6  and  O_7
REMARK    5  A    between atoms: N_13  and  C_14
REMARK    6  A    between atoms: C_18  and  N_19
REMARK                            x       y       z     vdW  Elec       q    Type
REMARK                         _______ _______ _______ _____ _____    ______ ____
ROOT
ATOM      1  C   UNL     1       5.259   5.101  16.945  0.00  0.00    +0.000 A 
ATOM      2  C   UNL     1       4.785   3.834  16.909  0.00  0.00    +0.000 A 
ATOM      3  C   UNL     1       3.560   3.508  17.554  0.00  0.00    +0.000 A 
ATOM      4  N   UNL     1       2.983   2.262  17.534  0.00  0.00    +0.000 NA
ATOM      5  C   UNL     1       1.841   2.327  18.188  0.00  0.00    +0.000 A 
ATOM      6  S   UNL     1       1.424   3.863  18.844  0.00  0.00    +0.000 S 
ATOM      7  C   UNL     1       2.882   4.491  18.233  0.00  0.00    +0.000 A 
ATOM      8  N   UNL     1       3.292   5.813  18.311  0.00  0.00    +0.000 N 
ATOM      9  C   UNL     1       4.448   6.188  17.604  0.00  0.00    +0.000 A 
ATOM     10  O   UNL     1       4.814   7.361  17.516  0.00  0.00    +0.000 OA
ENDROOT
BRANCH   8  11
ATOM     11  C   UNL     1       2.516   6.792  18.982  0.00  0.00    +0.000 A 
ATOM     12  C   UNL     1       2.139   6.612  20.321  0.00  0.00    +0.000 A 
ATOM     13  C   UNL     1       1.471   7.626  21.012  0.00  0.00    +0.000 A 
ATOM     14  C   UNL     1       1.165   8.827  20.369  0.00  0.00    +0.000 A 
ATOM     15  C   UNL     1       1.536   9.007  19.030  0.00  0.00    +0.000 A 
ATOM     16  C   UNL     1       2.219   8.001  18.339  0.00  0.00    +0.000 A 
BRANCH  15  17
ATOM     17  N   UNL     1       1.213  10.262  18.343  0.00  0.00    +0.000 N 
ATOM     18  O   UNL     1       2.157  10.943  17.918  0.00  0.00    +0.000 OA
ATOM     19  O   UNL     1       0.018  10.577  18.242  0.00  0.00    +0.000 OA
ENDBRANCH  15  17
ENDBRANCH   8  11
BRANCH   1  20
ATOM     20  C   UNL     1       6.576   5.373  16.342  0.00  0.00    +0.000 C 
ATOM     21  O   UNL     1       6.709   5.944  15.263  0.00  0.00    +0.000 OA
BRANCH  20  23
ATOM     22  C   UNL     1       7.732   5.348  18.392  0.00  0.00    +0.000 C 
ATOM     23  O   UNL     1       7.576   4.832  17.071  0.00  0.00    +0.000 OA
ENDBRANCH  20  23
ENDBRANCH   1  20
BRANCH   2  24
ATOM     24  O   UNL     1       5.415   2.768  16.293  0.00  0.00    +0.000 OA
ATOM     25  H   UNL     1       5.929   2.260  16.957  0.00  0.00    +0.000 HD
ENDBRANCH   2  24
TORSDOF 5
ENDMDL
MODEL 7
REMARK VINA RESULT:      -7.5      2.163      2.669
REMARK  Name = 
REMARK  6 active torsions:
REMARK  status: ('A' for Active; 'I' for Inactive)
REMARK    1  A    between atoms: C_1  and  O_2
REMARK    2  A    between atoms: O_2  and  C_3
REMARK    3  A    between atoms: C_3  and  C_5
REMARK    4  A    between atoms: C_6  and  O_7
REMARK    5  A    between atoms: N_13  and  C_14
REMARK    6  A    between atoms: C_18  and  N_19
REMARK                            x       y       z     vdW  Elec       q    Type
REMARK                         _______ _______ _______ _____ _____    ______ ____
ROOT
ATOM      1  C   UNL     1       5.163   5.241  16.871  0.00  0.00    +0.000 A 
ATOM      2  C   UNL     1       4.745   3.955  16.888  0.00  0.00    +0.000 A 
ATOM      3  C   UNL     1       3.569   3.593  17.602  0.00  0.00    +0.000 A 
ATOM      4  N   UNL     1       3.047   2.322  17.639  0.00  0.00    +0.000 NA
ATOM      5  C   UNL     1       1.937   2.354  18.349  0.00  0.00    +0.000 A 
ATOM      6  S   UNL     1       1.487   3.887  18.991  0.00  0.00    +0.000 S 
ATOM      7  C   UNL     1       2.883   4.561  18.292  0.00  0.00    +0.000 A 
ATOM      8  N   UNL     1       3.238   5.902  18.320  0.00  0.00    +0.000 N 
ATOM      9  C   UNL     1       4.338   6.308  17.546  0.00  0.00    +0.000 A 
ATOM     10  O   UNL     1       4.648   7.494  17.414  0.00  0.00    +0.000 OA
ENDROOT
BRANCH   8  11
ATOM     11  C   UNL     1       2.453   6.862  19.008  0.00  0.00    +0.000 A 
ATOM     12  C   UNL     1       2.128   6.684  20.360  0.00  0.00    +0.000 A 
ATOM     13  C   UNL     1       1.452   7.684  21.064  0.00  0.00    +0.000 A 
ATOM     14  C   UNL     1       1.086   8.867  20.421  0.00  0.00    +0.000 A 
ATOM     15  C   UNL     1       1.405   9.045  19.069  0.00  0.00    +0.000 A 
ATOM     16  C   UNL     1       2.095   8.054  18.364  0.00  0.00    +0.000 A 
BRANCH  15  17
ATOM     17  N   UNL     1       1.018  10.281  18.381  0.00  0.00    +0.000 N 
ATOM     18  O   UNL     1      -0.175  10.422  18.079  0.00  0.00    +0.000 OA
ATOM     19  O   UNL     1       1.909  11.105  18.125  0.00  0.00    +0.000 OA
ENDBRANCH  15  17
ENDBRANCH   8  11
BRANCH   1  20
ATOM     20  C   UNL     1       6.435   5.556  16.196  0.00  0.00    +0.000 C 
ATOM     21  O   UNL     1       7.477   5.772  16.807  0.00  0.00    +0.000 OA
BRANCH  20  23
ATOM     22  C   UNL     1       7.182   4.921  14.056  0.00  0.00    +0.000 C 
ATOM     23  O   UNL     1       6.272   5.670  14.860  0.00  0.00    +0.000 OA
ENDBRANCH  20  23
ENDBRANCH   1  20
BRANCH   2  24
ATOM     24  O   UNL     1       5.390   2.903  16.264  0.00  0.00    +0.000 OA
ATOM     25  H   UNL     1       5.348   3.020  15.291  0.00  0.00    +0.000 HD
ENDBRANCH   2  24
TORSDOF 5
ENDMDL
MODEL 8
REMARK VINA RESULT:      -7.2      2.641      6.662
REMARK  Name = 
REMARK  6 active torsions:
REMARK  status: ('A' for Active; 'I' for Inactive)
REMARK    1  A    between atoms: C_1  and  O_2
REMARK    2  A    between atoms: O_2  and  C_3
REMARK    3  A    between atoms: C_3  and  C_5
REMARK    4  A    between atoms: C_6  and  O_7
REMARK    5  A    between atoms: N_13  and  C_14
REMARK    6  A    between atoms: C_18  and  N_19
REMARK                            x       y       z     vdW  Elec       q    Type
REMARK                         _______ _______ _______ _____ _____    ______ ____
ROOT
ATOM      1  C   UNL     1       2.548   4.320  20.149  0.00  0.00    +0.000 A 
ATOM      2  C   UNL     1       1.927   5.522  20.127  0.00  0.00    +0.000 A 
ATOM      3  C   UNL     1       2.406   6.562  19.282  0.00  0.00    +0.000 A 
ATOM      4  N   UNL     1       1.815   7.796  19.163  0.00  0.00    +0.000 NA
ATOM      5  C   UNL     1       2.488   8.490  18.268  0.00  0.00    +0.000 A 
ATOM      6  S   UNL     1       3.837   7.699  17.547  0.00  0.00    +0.000 S 
ATOM      7  C   UNL     1       3.521   6.335  18.512  0.00  0.00    +0.000 A 
ATOM      8  N   UNL     1       4.210   5.132  18.469  0.00  0.00    +0.000 N 
ATOM      9  C   UNL     1       3.704   4.056  19.218  0.00  0.00    +0.000 A 
ATOM     10  O   UNL     1       4.179   2.921  19.142  0.00  0.00    +0.000 OA
ENDROOT
BRANCH   8  11
ATOM     11  C   UNL     1       5.321   4.945  17.609  0.00  0.00    +0.000 A 
ATOM     12  C   UNL     1       6.623   4.880  18.126  0.00  0.00    +0.000 A 
ATOM     13  C   UNL     1       7.704   4.584  17.291  0.00  0.00    +0.000 A 
ATOM     14  C   UNL     1       7.495   4.360  15.930  0.00  0.00    +0.000 A 
ATOM     15  C   UNL     1       6.197   4.430  15.410  0.00  0.00    +0.000 A 
ATOM     16  C   UNL     1       5.110   4.710  16.244  0.00  0.00    +0.000 A 
BRANCH  15  17
ATOM     17  N   UNL     1       5.967   4.203  13.979  0.00  0.00    +0.000 N 
ATOM     18  O   UNL     1       6.929   4.351  13.212  0.00  0.00    +0.000 OA
ATOM     19  O   UNL     1       4.822   3.895  13.617  0.00  0.00    +0.000 OA
ENDBRANCH  15  17
ENDBRANCH   8  11
BRANCH   1  20
ATOM     20  C   UNL     1       2.074   3.304  21.105  0.00  0.00    +0.000 C 
ATOM     21  O   UNL     1       2.768   2.879  22.023  0.00  0.00    +0.000 OA
BRANCH  20  23
ATOM     22  C   UNL     1       0.722   2.289  19.468  0.00  0.00    +0.000 C 
ATOM     23  O   UNL     1       0.846   2.847  20.775  0.00  0.00    +0.000 OA
ENDBRANCH  20  23
ENDBRANCH   1  20
BRANCH   2  24
ATOM     24  O   UNL     1       0.830   5.862  20.897  0.00  0.00    +0.000 OA
ATOM     25  H   UNL     1       0.293   5.061  21.079  0.00  0.00    +0.000 HD
ENDBRANCH   2  24
TORSDOF 5
ENDMDL
MODEL 9
REMARK VINA RESULT:      -7.1      3.000      5.043
REMARK  Name = 
REMARK  6 active torsions:
REMARK  status: ('A' for Active; 'I' for Inactive)
REMARK    1  A    between atoms: C_1  and  O_2
REMARK    2  A    between atoms: O_2  and  C_3
REMARK    3  A    between atoms: C_3  and  C_5
REMARK    4  A    between atoms: C_6  and  O_7
REMARK    5  A    between atoms: N_13  and  C_14
REMARK    6  A    between atoms: C_18  and  N_19
REMARK                            x       y       z     vdW  Elec       q    Type
REMARK                         _______ _______ _______ _____ _____    ______ ____
ROOT
ATOM      1  C   UNL     1       5.848   5.380  17.030  0.00  0.00    +0.000 A 
ATOM      2  C   UNL     1       5.552   6.696  16.932  0.00  0.00    +0.000 A 
ATOM      3  C   UNL     1       4.288   7.182  17.370  0.00  0.00    +0.000 A 
ATOM      4  N   UNL     1       3.918   8.504  17.348  0.00  0.00    +0.000 NA
ATOM      5  C   UNL     1       2.709   8.601  17.864  0.00  0.00    +0.000 A 
ATOM      6  S   UNL     1       1.982   7.130  18.386  0.00  0.00    +0.000 S 
ATOM      7  C   UNL     1       3.369   6.291  17.868  0.00  0.00    +0.000 A 
ATOM      8  N   UNL     1       3.595   4.931  18.010  0.00  0.00    +0.000 N 
ATOM      9  C   UNL     1       4.867   4.436  17.677  0.00  0.00    +0.000 A 
ATOM     10  O   UNL     1       5.194   3.266  17.889  0.00  0.00    +0.000 OA
ENDROOT
BRANCH   8  11
ATOM     11  C   UNL     1       2.622   4.074  18.585  0.00  0.00    +0.000 A 
ATOM     12  C   UNL     1       1.607   3.514  17.795  0.00  0.00    +0.000 A 
ATOM     13  C   UNL     1       0.718   2.582  18.339  0.00  0.00    +0.000 A 
ATOM     14  C   UNL     1       0.829   2.210  19.680  0.00  0.00    +0.000 A 
ATOM     15  C   UNL     1       1.839   2.772  20.471  0.00  0.00    +0.000 A 
ATOM     16  C   UNL     1       2.741   3.692  19.927  0.00  0.00    +0.000 A 
BRANCH  15  17
ATOM     17  N   UNL     1       1.960   2.392  21.883  0.00  0.00    +0.000 N 
ATOM     18  O   UNL     1       3.073   2.025  22.285  0.00  0.00    +0.000 OA
ATOM     19  O   UNL     1       0.941   2.443  22.587  0.00  0.00    +0.000 OA
ENDBRANCH  15  17
ENDBRANCH   8  11
BRANCH   1  20
ATOM     20  C   UNL     1       7.132   4.908  16.480  0.00  0.00    +0.000 C 
ATOM     21  O   UNL     1       8.004   4.394  17.174  0.00  0.00    +0.000 OA
BRANCH  20  23
ATOM     22  C   UNL     1       6.533   4.361  14.271  0.00  0.00    +0.000 C 
ATOM     23  O   UNL     1       7.249   5.208  15.168  0.00  0.00    +0.000 OA
ENDBRANCH  20  23
ENDBRANCH   1  20
BRANCH   2  24
ATOM     24  O   UNL     1       6.390   7.661  16.404  0.00  0.00    +0.000 OA
ATOM     25  H   UNL     1       6.465   7.539  15.434  0.00  0.00    +0.000 HD
ENDBRANCH   2  24
TORSDOF 5
ENDMDL
