MODEL 1
REMARK VINA RESULT:      -6.6      0.000      0.000
REMARK  Name = 
REMARK  6 active torsions:
REMARK  status: ('A' for Active; 'I' for Inactive)
REMARK    1  A    between atoms: C_1  and  C_2
REMARK    2  A    between atoms: C_4  and  C_5
REMARK    3  A    between atoms: C_7  and  N_8
REMARK    4  A    between atoms: N_9  and  N_10
REMARK    5  A    between atoms: N_10  and  C_11
REMARK    6  A    between atoms: N_10  and  C_12
REMARK                            x       y       z     vdW  Elec       q    Type
REMARK                         _______ _______ _______ _____ _____    ______ ____
ROOT
ATOM      1  C   UNL     1       7.334   4.755  13.903  0.00  0.00    +0.000 C 
ATOM      2  C   UNL     1       6.670   4.608  15.246  0.00  0.00    +0.000 A 
ATOM      3  C   UNL     1       5.290   4.266  15.308  0.00  0.00    +0.000 A 
ATOM      4  C   UNL     1       4.584   4.125  16.525  0.00  0.00    +0.000 A 
ATOM      5  C   UNL     1       3.140   3.756  16.566  0.00  0.00    +0.000 C 
ATOM      6  C   UNL     1       5.453   4.378  17.593  0.00  0.00    +0.000 A 
ATOM      7  C   UNL     1       5.159   4.390  18.942  0.00  0.00    +0.000 A 
ATOM      8  N   UNL     1       6.373   4.669  19.537  0.00  0.00    +0.000 N 
ATOM      9  N   UNL     1       7.400   4.879  18.700  0.00  0.00    +0.000 NA
ATOM     10  C   UNL     1       6.847   4.712  17.501  0.00  0.00    +0.000 A 
ATOM     11  N   UNL     1       7.487   4.834  16.313  0.00  0.00    +0.000 NA
ATOM     12  H   UNL     1       6.531   4.749  20.533  0.00  0.00    +0.000 HD
ENDROOT
BRANCH   7  13
ATOM     13  N   UNL     1       4.048   4.192  19.708  0.00  0.00    +0.000 NA
ATOM     14  N   UNL     1       3.654   3.007  19.689  0.00  0.00    +0.000 NA
BRANCH  14  15
ATOM     15  N   UNL     1       2.468   2.749  20.291  0.00  0.00    +0.000 N 
ATOM     16  C   UNL     1       1.220   2.501  19.600  0.00  0.00    +0.000 C 
ATOM     17  C   UNL     1       2.457   2.812  21.741  0.00  0.00    +0.000 C 
ENDBRANCH  14  15
ENDBRANCH   7  13
TORSDOF 2
ENDMDL
MODEL 2
REMARK VINA RESULT:      -6.5      1.094      1.363
REMARK  Name = 
REMARK  6 active torsions:
REMARK  status: ('A' for Active; 'I' for Inactive)
REMARK    1  A    between atoms: C_1  and  C_2
REMARK    2  A    between atoms: C_4  and  C_5
REMARK    3  A    between atoms: C_7  and  N_8
REMARK    4  A    between atoms: N_9  and  N_10
REMARK    5  A    between atoms: N_10  and  C_11
REMARK    6  A    between atoms: N_10  and  C_12
REMARK                            x       y       z     vdW  Elec       q    Type
REMARK                         _______ _______ _______ _____ _____    ______ ____
ROOT
ATOM      1  C   UNL     1       7.300   4.805  13.858  0.00  0.00    +0.000 C 
ATOM      2  C   UNL     1       6.676   4.636  15.217  0.00  0.00    +0.000 A 
ATOM      3  C   UNL     1       5.332   4.177  15.317  0.00  0.00    +0.000 A 
ATOM      4  C   UNL     1       4.664   4.008  16.551  0.00  0.00    +0.000 A 
ATOM      5  C   UNL     1       3.259   3.517  16.631  0.00  0.00    +0.000 C 
ATOM      6  C   UNL     1       5.527   4.362  17.594  0.00  0.00    +0.000 A 
ATOM      7  C   UNL     1       5.259   4.384  18.949  0.00  0.00    +0.000 A 
ATOM      8  N   UNL     1       6.455   4.782  19.511  0.00  0.00    +0.000 N 
ATOM      9  N   UNL     1       7.444   5.058  18.648  0.00  0.00    +0.000 NA
ATOM     10  C   UNL     1       6.885   4.813  17.465  0.00  0.00    +0.000 A 
ATOM     11  N   UNL     1       7.490   4.959  16.262  0.00  0.00    +0.000 NA
ATOM     12  H   UNL     1       6.624   4.900  20.502  0.00  0.00    +0.000 HD
ENDROOT
BRANCH   7  13
ATOM     13  N   UNL     1       4.184   4.110  19.742  0.00  0.00    +0.000 NA
ATOM     14  N   UNL     1       3.437   5.099  19.899  0.00  0.00    +0.000 NA
BRANCH  14  15
ATOM     15  N   UNL     1       2.431   4.967  20.798  0.00  0.00    +0.000 N 
ATOM     16  C   UNL     1       2.305   3.887  21.754  0.00  0.00    +0.000 C 
ATOM     17  C   UNL     1       1.368   5.953  20.721  0.00  0.00    +0.000 C 
ENDBRANCH  14  15
ENDBRANCH   7  13
TORSDOF 2
ENDMDL
MODEL 3
REMARK VINA RESULT:      -6.1      1.767      5.693
REMARK  Name = 
REMARK  6 active torsions:
REMARK  status: ('A' for Active; 'I' for Inactive)
REMARK    1  A    between atoms: C_1  and  C_2
REMARK    2  A    between atoms: C_4  and  C_5
REMARK    3  A    between atoms: C_7  and  N_8
REMARK    4  A    between atoms: N_9  and  N_10
REMARK    5  A    between atoms: N_10  and  C_11
REMARK    6  A    between atoms: N_10  and  C_12
REMARK                            x       y       z     vdW  Elec       q    Type
REMARK                         _______ _______ _______ _____ _____    ______ ____
ROOT
ATOM      1  C   UNL     1       0.964   2.258  22.342  0.00  0.00    +0.000 C 
ATOM      2  C   UNL     1       1.817   2.708  21.187  0.00  0.00    +0.000 A 
ATOM      3  C   UNL     1       1.203   3.344  20.071  0.00  0.00    +0.000 A 
ATOM      4  C   UNL     1       1.926   3.782  18.938  0.00  0.00    +0.000 A 
ATOM      5  C   UNL     1       1.262   4.455  17.785  0.00  0.00    +0.000 C 
ATOM      6  C   UNL     1       3.282   3.481  19.113  0.00  0.00    +0.000 A 
ATOM      7  C   UNL     1       4.321   3.698  18.230  0.00  0.00    +0.000 A 
ATOM      8  N   UNL     1       5.429   3.240  18.912  0.00  0.00    +0.000 N 
ATOM      9  N   UNL     1       5.194   2.713  20.123  0.00  0.00    +0.000 NA
ATOM     10  C   UNL     1       3.877   2.847  20.256  0.00  0.00    +0.000 A 
ATOM     11  N   UNL     1       3.147   2.445  21.324  0.00  0.00    +0.000 NA
ATOM     12  H   UNL     1       6.379   3.252  18.560  0.00  0.00    +0.000 HD
ENDROOT
BRANCH   7  13
ATOM     13  N   UNL     1       4.453   4.223  16.978  0.00  0.00    +0.000 NA
ATOM     14  N   UNL     1       5.642   4.270  16.597  0.00  0.00    +0.000 NA
BRANCH  14  15
ATOM     15  N   UNL     1       5.885   4.921  15.434  0.00  0.00    +0.000 N 
ATOM     16  C   UNL     1       6.705   4.414  14.353  0.00  0.00    +0.000 C 
ATOM     17  C   UNL     1       5.337   6.260  15.320  0.00  0.00    +0.000 C 
ENDBRANCH  14  15
ENDBRANCH   7  13
TORSDOF 2
ENDMDL
MODEL 4
REMARK VINA RESULT:      -6.1      1.960      2.329
REMARK  Name = 
REMARK  6 active torsions:
REMARK  status: ('A' for Active; 'I' for Inactive)
REMARK    1  A    between atoms: C_1  and  C_2
REMARK    2  A    between atoms: C_4  and  C_5
REMARK    3  A    between atoms: C_7  and  N_8
REMARK    4  A    between atoms: N_9  and  N_10
REMARK    5  A    between atoms: N_10  and  C_11
REMARK    6  A    between atoms: N_10  and  C_12
REMARK                            x       y       z     vdW  Elec       q    Type
REMARK                         _______ _______ _______ _____ _____    ______ ____
ROOT
ATOM      1  C   UNL     1       6.921   3.962  12.819  0.00  0.00    +0.000 C 
ATOM      2  C   UNL     1       6.527   4.381  14.210  0.00  0.00    +0.000 A 
ATOM      3  C   UNL     1       5.394   3.777  14.826  0.00  0.00    +0.000 A 
ATOM      4  C   UNL     1       4.944   4.123  16.120  0.00  0.00    +0.000 A 
ATOM      5  C   UNL     1       3.760   3.471  16.749  0.00  0.00    +0.000 C 
ATOM      6  C   UNL     1       5.776   5.119  16.646  0.00  0.00    +0.000 A 
ATOM      7  C   UNL     1       5.663   5.766  17.861  0.00  0.00    +0.000 A 
ATOM      8  N   UNL     1       6.746   6.622  17.875  0.00  0.00    +0.000 N 
ATOM      9  N   UNL     1       7.510   6.616  16.773  0.00  0.00    +0.000 NA
ATOM     10  C   UNL     1       6.921   5.703  16.005  0.00  0.00    +0.000 A 
ATOM     11  N   UNL     1       7.321   5.340  14.763  0.00  0.00    +0.000 NA
ATOM     12  H   UNL     1       6.981   7.254  18.630  0.00  0.00    +0.000 HD
ENDROOT
BRANCH   7  13
ATOM     13  N   UNL     1       4.808   5.721  18.922  0.00  0.00    +0.000 NA
ATOM     14  N   UNL     1       3.643   6.056  18.618  0.00  0.00    +0.000 NA
BRANCH  14  15
ATOM     15  N   UNL     1       2.762   6.194  19.638  0.00  0.00    +0.000 N 
ATOM     16  C   UNL     1       2.109   7.432  20.011  0.00  0.00    +0.000 C 
ATOM     17  C   UNL     1       2.534   5.016  20.454  0.00  0.00    +0.000 C 
ENDBRANCH  14  15
ENDBRANCH   7  13
TORSDOF 2
ENDMDL
MODEL 5
REMARK VINA RESULT:      -6.1      2.283      5.659
REMARK  Name = 
REMARK  6 active torsions:
REMARK  status: ('A' for Active; 'I' for Inactive)
REMARK    1  A    between atoms: C_1  and  C_2
REMARK    2  A    between atoms: C_4  and  C_5
REMARK    3  A    between atoms: C_7  and  N_8
REMARK    4  A    between atoms: N_9  and  N_10
REMARK    5  A    between atoms: N_10  and  C_11
REMARK    6  A    between atoms: N_10  and  C_12
REMARK                            x       y       z     vdW  Elec       q    Type
REMARK                         _______ _______ _______ _____ _____    ______ ____
ROOT
ATOM      1  C   UNL     1       1.569   6.192  20.557  0.00  0.00    +0.000 C 
ATOM      2  C   UNL     1       2.538   5.609  19.564  0.00  0.00    +0.000 A 
ATOM      3  C   UNL     1       3.364   6.481  18.799  0.00  0.00    +0.000 A 
ATOM      4  C   UNL     1       4.287   6.020  17.833  0.00  0.00    +0.000 A 
ATOM      5  C   UNL     1       5.149   6.952  17.052  0.00  0.00    +0.000 C 
ATOM      6  C   UNL     1       4.232   4.622  17.774  0.00  0.00    +0.000 A 
ATOM      7  C   UNL     1       4.935   3.779  16.937  0.00  0.00    +0.000 A 
ATOM      8  N   UNL     1       4.517   2.520  17.317  0.00  0.00    +0.000 N 
ATOM      9  N   UNL     1       3.586   2.479  18.281  0.00  0.00    +0.000 NA
ATOM     10  C   UNL     1       3.394   3.765  18.566  0.00  0.00    +0.000 A 
ATOM     11  N   UNL     1       2.524   4.248  19.485  0.00  0.00    +0.000 NA
ATOM     12  H   UNL     1       4.838   1.650  16.911  0.00  0.00    +0.000 HD
ENDROOT
BRANCH   7  13
ATOM     13  N   UNL     1       5.856   3.926  15.942  0.00  0.00    +0.000 NA
ATOM     14  N   UNL     1       5.333   4.143  14.828  0.00  0.00    +0.000 NA
BRANCH  14  15
ATOM     15  N   UNL     1       6.161   4.145  13.755  0.00  0.00    +0.000 N 
ATOM     16  C   UNL     1       5.952   3.382  12.542  0.00  0.00    +0.000 C 
ATOM     17  C   UNL     1       7.384   4.915  13.889  0.00  0.00    +0.000 C 
ENDBRANCH  14  15
ENDBRANCH   7  13
TORSDOF 2
ENDMDL
MODEL 6
REMARK VINA RESULT:      -6.0      1.917      2.313
REMARK  Name = 
REMARK  6 active torsions:
REMARK  status: ('A' for Active; 'I' for Inactive)
REMARK    1  A    between atoms: C_1  and  C_2
REMARK    2  A    between atoms: C_4  and  C_5
REMARK    3  A    between atoms: C_7  and  N_8
REMARK    4  A    between atoms: N_9  and  N_10
REMARK    5  A    between atoms: N_10  and  C_11
REMARK    6  A    between atoms: N_10  and  C_12
REMARK                            x       y       z     vdW  Elec       q    Type
REMARK                         _______ _______ _______ _____ _____    ______ ____
ROOT
ATOM      1  C   UNL     1       7.060   4.930  14.251  0.00  0.00    +0.000 C 
ATOM      2  C   UNL     1       6.000   5.014  15.316  0.00  0.00    +0.000 A 
ATOM      3  C   UNL     1       5.445   3.815  15.846  0.00  0.00    +0.000 A 
ATOM      4  C   UNL     1       4.434   3.803  16.834  0.00  0.00    +0.000 A 
ATOM      5  C   UNL     1       3.875   2.534  17.380  0.00  0.00    +0.000 C 
ATOM      6  C   UNL     1       4.101   5.121  17.167  0.00  0.00    +0.000 A 
ATOM      7  C   UNL     1       3.135   5.554  18.054  0.00  0.00    +0.000 A 
ATOM      8  N   UNL     1       3.249   6.929  18.013  0.00  0.00    +0.000 N 
ATOM      9  N   UNL     1       4.160   7.415  17.157  0.00  0.00    +0.000 NA
ATOM     10  C   UNL     1       4.686   6.315  16.624  0.00  0.00    +0.000 A 
ATOM     11  N   UNL     1       5.656   6.282  15.679  0.00  0.00    +0.000 NA
ATOM     12  H   UNL     1       2.690   7.578  18.552  0.00  0.00    +0.000 HD
ENDROOT
BRANCH   7  13
ATOM     13  N   UNL     1       2.215   4.965  18.870  0.00  0.00    +0.000 NA
ATOM     14  N   UNL     1       2.736   4.392  19.850  0.00  0.00    +0.000 NA
BRANCH  14  15
ATOM     15  N   UNL     1       1.915   3.646  20.628  0.00  0.00    +0.000 N 
ATOM     16  C   UNL     1       2.198   3.242  21.990  0.00  0.00    +0.000 C 
ATOM     17  C   UNL     1       0.702   3.157  19.998  0.00  0.00    +0.000 C 
ENDBRANCH  14  15
ENDBRANCH   7  13
TORSDOF 2
ENDMDL
MODEL 7
REMARK VINA RESULT:      -5.9      2.220      5.791
REMARK  Name = 
REMARK  6 active torsions:
REMARK  status: ('A' for Active; 'I' for Inactive)
REMARK    1  A    between atoms: C_1  and  C_2
REMARK    2  A    between atoms: C_4  and  C_5
REMARK    3  A    between atoms: C_7  and  N_8
REMARK    4  A    between atoms: N_9  and  N_10
REMARK    5  A    between atoms: N_10  and  C_11
REMARK    6  A    between atoms: N_10  and  C_12
REMARK                            x       y       z     vdW  Elec       q    Type
REMARK                         _______ _______ _______ _____ _____    ______ ____
ROOT
ATOM      1  C   UNL     1       2.947   5.810  19.994  0.00  0.00    +0.000 C 
ATOM      2  C   UNL     1       4.033   5.723  18.955  0.00  0.00    +0.000 A 
ATOM      3  C   UNL     1       3.852   6.373  17.701  0.00  0.00    +0.000 A 
ATOM      4  C   UNL     1       4.812   6.328  16.664  0.00  0.00    +0.000 A 
ATOM      5  C   UNL     1       4.605   7.025  15.362  0.00  0.00    +0.000 C 
ATOM      6  C   UNL     1       5.906   5.562  17.082  0.00  0.00    +0.000 A 
ATOM      7  C   UNL     1       7.038   5.233  16.362  0.00  0.00    +0.000 A 
ATOM      8  N   UNL     1       7.787   4.493  17.254  0.00  0.00    +0.000 N 
ATOM      9  N   UNL     1       7.227   4.281  18.454  0.00  0.00    +0.000 NA
ATOM     10  C   UNL     1       6.067   4.926  18.360  0.00  0.00    +0.000 A 
ATOM     11  N   UNL     1       5.123   4.996  19.329  0.00  0.00    +0.000 NA
ATOM     12  H   UNL     1       8.695   4.090  17.060  0.00  0.00    +0.000 HD
ENDROOT
BRANCH   7  13
ATOM     13  N   UNL     1       7.507   5.476  15.105  0.00  0.00    +0.000 NA
ATOM     14  N   UNL     1       6.946   4.774  14.236  0.00  0.00    +0.000 NA
BRANCH  14  15
ATOM     15  N   UNL     1       7.456   4.832  12.982  0.00  0.00    +0.000 N 
ATOM     16  C   UNL     1       8.351   5.861  12.494  0.00  0.00    +0.000 C 
ATOM     17  C   UNL     1       6.991   3.819  12.053  0.00  0.00    +0.000 C 
ENDBRANCH  14  15
ENDBRANCH   7  13
TORSDOF 2
ENDMDL
MODEL 8
REMARK VINA RESULT:      -5.9      3.135      5.640
REMARK  Name = 
REMARK  6 active torsions:
REMARK  status: ('A' for Active; 'I' for Inactive)
REMARK    1  A    between atoms: C_1  and  C_2
REMARK    2  A    between atoms: C_4  and  C_5
REMARK    3  A    between atoms: C_7  and  N_8
REMARK    4  A    between atoms: N_9  and  N_10
REMARK    5  A    between atoms: N_10  and  C_11
REMARK    6  A    between atoms: N_10  and  C_12
REMARK                            x       y       z     vdW  Elec       q    Type
REMARK                         _______ _______ _______ _____ _____    ______ ____
ROOT
ATOM      1  C   UNL     1       7.218   5.545  19.712  0.00  0.00    +0.000 C 
ATOM      2  C   UNL     1       6.821   5.221  18.297  0.00  0.00    +0.000 A 
ATOM      3  C   UNL     1       5.639   4.462  18.060  0.00  0.00    +0.000 A 
ATOM      4  C   UNL     1       5.202   4.097  16.767  0.00  0.00    +0.000 A 
ATOM      5  C   UNL     1       3.956   3.311  16.543  0.00  0.00    +0.000 C 
ATOM      6  C   UNL     1       6.106   4.593  15.819  0.00  0.00    +0.000 A 
ATOM      7  C   UNL     1       6.076   4.427  14.449  0.00  0.00    +0.000 A 
ATOM      8  N   UNL     1       7.177   5.135  14.011  0.00  0.00    +0.000 N 
ATOM      9  N   UNL     1       7.929   5.698  14.968  0.00  0.00    +0.000 NA
ATOM     10  C   UNL     1       7.287   5.367  16.086  0.00  0.00    +0.000 A 
ATOM     11  N   UNL     1       7.669   5.697  17.343  0.00  0.00    +0.000 NA
ATOM     12  H   UNL     1       7.462   5.234  13.044  0.00  0.00    +0.000 HD
ENDROOT
BRANCH   7  13
ATOM     13  N   UNL     1       5.267   3.791  13.553  0.00  0.00    +0.000 NA
ATOM     14  N   UNL     1       5.909   3.167  12.682  0.00  0.00    +0.000 NA
BRANCH  14  15
ATOM     15  N   UNL     1       5.194   2.637  11.660  0.00  0.00    +0.000 N 
ATOM     16  C   UNL     1       3.965   3.190  11.130  0.00  0.00    +0.000 C 
ATOM     17  C   UNL     1       5.673   1.374  11.128  0.00  0.00    +0.000 C 
ENDBRANCH  14  15
ENDBRANCH   7  13
TORSDOF 2
ENDMDL
MODEL 9
REMARK VINA RESULT:      -5.8      1.282      1.382
REMARK  Name = 
REMARK  6 active torsions:
REMARK  status: ('A' for Active; 'I' for Inactive)
REMARK    1  A    between atoms: C_1  and  C_2
REMARK    2  A    between atoms: C_4  and  C_5
REMARK    3  A    between atoms: C_7  and  N_8
REMARK    4  A    between atoms: N_9  and  N_10
REMARK    5  A    between atoms: N_10  and  C_11
REMARK    6  A    between atoms: N_10  and  C_12
REMARK                            x       y       z     vdW  Elec       q    Type
REMARK                         _______ _______ _______ _____ _____    ______ ____
ROOT
ATOM      1  C   UNL     1       7.410   5.016  13.790  0.00  0.00    +0.000 C 
ATOM      2  C   UNL     1       6.833   5.034  15.179  0.00  0.00    +0.000 A 
ATOM      3  C   UNL     1       5.458   5.360  15.360  0.00  0.00    +0.000 A 
ATOM      4  C   UNL     1       4.840   5.417  16.630  0.00  0.00    +0.000 A 
ATOM      5  C   UNL     1       3.396   5.750  16.794  0.00  0.00    +0.000 C 
ATOM      6  C   UNL     1       5.785   5.115  17.617  0.00  0.00    +0.000 A 
ATOM      7  C   UNL     1       5.609   5.101  18.986  0.00  0.00    +0.000 A 
ATOM      8  N   UNL     1       6.844   4.719  19.469  0.00  0.00    +0.000 N 
ATOM      9  N   UNL     1       7.800   4.531  18.548  0.00  0.00    +0.000 NA
ATOM     10  C   UNL     1       7.166   4.779  17.404  0.00  0.00    +0.000 A 
ATOM     11  N   UNL     1       7.720   4.732  16.169  0.00  0.00    +0.000 NA
ATOM     12  H   UNL     1       7.077   4.599  20.447  0.00  0.00    +0.000 HD
ENDROOT
BRANCH   7  13
ATOM     13  N   UNL     1       4.580   5.348  19.847  0.00  0.00    +0.000 NA
ATOM     14  N   UNL     1       3.738   4.425  19.868  0.00  0.00    +0.000 NA
BRANCH  14  15
ATOM     15  N   UNL     1       2.603   4.652  20.573  0.00  0.00    +0.000 N 
ATOM     16  C   UNL     1       1.862   5.896  20.581  0.00  0.00    +0.000 C 
ATOM     17  C   UNL     1       2.162   3.577  21.443  0.00  0.00    +0.000 C 
ENDBRANCH  14  15
ENDBRANCH   7  13
TORSDOF 2
ENDMDL
