MODEL 1
REMARK VINA RESULT:      -5.9      0.000      0.000
REMARK  Name = 
REMARK  5 active torsions:
REMARK  status: ('A' for Active; 'I' for Inactive)
REMARK    1  A    between atoms: C_1  and  N_2
REMARK    2  A    between atoms: N_2  and  C_3
REMARK    3  A    between atoms: N_2  and  C_4
REMARK    4  A    between atoms: N_11  and  C_12
REMARK    5  A    between atoms: N_15  and  C_16
REMARK                            x       y       z     vdW  Elec       q    Type
REMARK                         _______ _______ _______ _____ _____    ______ ____
ROOT
ATOM      1  C   UNL     1       3.476   3.800  18.795  0.00  0.00    +0.000 A 
ATOM      2 SE   UNL     1       2.499   2.869  17.546  0.00  0.00    +0.000 Se
ATOM      3  N   UNL     1       3.653   3.424  16.320  0.00  0.00    +0.000 NA
ATOM      4  C   UNL     1       4.650   4.174  16.814  0.00  0.00    +0.000 A 
ATOM      5  C   UNL     1       4.617   4.417  18.188  0.00  0.00    +0.000 A 
ATOM      6  C   UNL     1       5.671   5.198  18.727  0.00  0.00    +0.000 A 
ATOM      7  O   UNL     1       5.726   5.448  19.911  0.00  0.00    +0.000 OA
ATOM      8  N   UNL     1       6.672   5.684  17.901  0.00  0.00    +0.000 N 
ATOM      9  C   UNL     1       7.788   6.484  18.443  0.00  0.00    +0.000 C 
ATOM     10  C   UNL     1       6.646   5.424  16.546  0.00  0.00    +0.000 A 
ATOM     11  O   UNL     1       7.531   5.866  15.828  0.00  0.00    +0.000 OA
ATOM     12  N   UNL     1       5.630   4.667  16.002  0.00  0.00    +0.000 N 
ATOM     13  C   UNL     1       5.580   4.380  14.556  0.00  0.00    +0.000 C 
ENDROOT
BRANCH   1  15
ATOM     14  C   UNL     1       3.190   2.641  20.995  0.00  0.00    +0.000 C 
ATOM     15  N   UNL     1       2.998   3.829  20.169  0.00  0.00    +0.000 N 
ATOM     16  C   UNL     1       2.304   4.950  20.776  0.00  0.00    +0.000 C 
ENDBRANCH   1  15
TORSDOF 1
ENDMDL
MODEL 2
REMARK VINA RESULT:      -5.4      2.647      3.985
REMARK  Name = 
REMARK  5 active torsions:
REMARK  status: ('A' for Active; 'I' for Inactive)
REMARK    1  A    between atoms: C_1  and  N_2
REMARK    2  A    between atoms: N_2  and  C_3
REMARK    3  A    between atoms: N_2  and  C_4
REMARK    4  A    between atoms: N_11  and  C_12
REMARK    5  A    between atoms: N_15  and  C_16
REMARK                            x       y       z     vdW  Elec       q    Type
REMARK                         _______ _______ _______ _____ _____    ______ ____
ROOT
ATOM      1  C   UNL     1       3.159   3.495  19.819  0.00  0.00    +0.000 A 
ATOM      2 SE   UNL     1       1.983   3.649  21.224  0.00  0.00    +0.000 Se
ATOM      3  N   UNL     1       1.808   5.364  20.809  0.00  0.00    +0.000 NA
ATOM      4  C   UNL     1       2.518   5.735  19.732  0.00  0.00    +0.000 A 
ATOM      5  C   UNL     1       3.288   4.741  19.127  0.00  0.00    +0.000 A 
ATOM      6  C   UNL     1       4.035   5.116  17.980  0.00  0.00    +0.000 A 
ATOM      7  O   UNL     1       4.721   4.314  17.387  0.00  0.00    +0.000 OA
ATOM      8  N   UNL     1       3.981   6.418  17.508  0.00  0.00    +0.000 N 
ATOM      9  C   UNL     1       4.735   6.826  16.307  0.00  0.00    +0.000 C 
ATOM     10  C   UNL     1       3.212   7.364  18.156  0.00  0.00    +0.000 A 
ATOM     11  O   UNL     1       3.181   8.510  17.733  0.00  0.00    +0.000 OA
ATOM     12  N   UNL     1       2.480   7.020  19.272  0.00  0.00    +0.000 N 
ATOM     13  C   UNL     1       1.655   8.016  19.982  0.00  0.00    +0.000 C 
ENDROOT
BRANCH   1  15
ATOM     14  C   UNL     1       4.826   1.776  20.549  0.00  0.00    +0.000 C 
ATOM     15  N   UNL     1       3.810   2.212  19.596  0.00  0.00    +0.000 N 
ATOM     16  C   UNL     1       3.548   1.341  18.465  0.00  0.00    +0.000 C 
ENDBRANCH   1  15
TORSDOF 1
ENDMDL
MODEL 3
REMARK VINA RESULT:      -5.4      2.063      2.298
REMARK  Name = 
REMARK  5 active torsions:
REMARK  status: ('A' for Active; 'I' for Inactive)
REMARK    1  A    between atoms: C_1  and  N_2
REMARK    2  A    between atoms: N_2  and  C_3
REMARK    3  A    between atoms: N_2  and  C_4
REMARK    4  A    between atoms: N_11  and  C_12
REMARK    5  A    between atoms: N_15  and  C_16
REMARK                            x       y       z     vdW  Elec       q    Type
REMARK                         _______ _______ _______ _____ _____    ______ ____
ROOT
ATOM      1  C   UNL     1       2.871   3.173  19.118  0.00  0.00    +0.000 A 
ATOM      2 SE   UNL     1       3.583   1.583  18.528  0.00  0.00    +0.000 Se
ATOM      3  N   UNL     1       4.444   2.503  17.280  0.00  0.00    +0.000 NA
ATOM      4  C   UNL     1       4.237   3.827  17.344  0.00  0.00    +0.000 A 
ATOM      5  C   UNL     1       3.377   4.270  18.350  0.00  0.00    +0.000 A 
ATOM      6  C   UNL     1       3.158   5.669  18.437  0.00  0.00    +0.000 A 
ATOM      7  O   UNL     1       2.435   6.140  19.288  0.00  0.00    +0.000 OA
ATOM      8  N   UNL     1       3.784   6.530  17.550  0.00  0.00    +0.000 N 
ATOM      9  C   UNL     1       3.585   7.990  17.634  0.00  0.00    +0.000 C 
ATOM     10  C   UNL     1       4.615   6.034  16.565  0.00  0.00    +0.000 A 
ATOM     11  O   UNL     1       5.154   6.805  15.784  0.00  0.00    +0.000 OA
ATOM     12  N   UNL     1       4.840   4.678  16.462  0.00  0.00    +0.000 N 
ATOM     13  C   UNL     1       5.720   4.126  15.415  0.00  0.00    +0.000 C 
ENDROOT
BRANCH   1  15
ATOM     14  C   UNL     1       0.489   3.170  19.887  0.00  0.00    +0.000 C 
ATOM     15  N   UNL     1       1.913   3.140  20.211  0.00  0.00    +0.000 N 
ATOM     16  C   UNL     1       2.268   3.117  21.618  0.00  0.00    +0.000 C 
ENDBRANCH   1  15
TORSDOF 1
ENDMDL
MODEL 4
REMARK VINA RESULT:      -5.4      2.434      2.973
REMARK  Name = 
REMARK  5 active torsions:
REMARK  status: ('A' for Active; 'I' for Inactive)
REMARK    1  A    between atoms: C_1  and  N_2
REMARK    2  A    between atoms: N_2  and  C_3
REMARK    3  A    between atoms: N_2  and  C_4
REMARK    4  A    between atoms: N_11  and  C_12
REMARK    5  A    between atoms: N_15  and  C_16
REMARK                            x       y       z     vdW  Elec       q    Type
REMARK                         _______ _______ _______ _____ _____    ______ ____
ROOT
ATOM      1  C   UNL     1       3.095   3.289  19.641  0.00  0.00    +0.000 A 
ATOM      2 SE   UNL     1       4.447   2.119  20.073  0.00  0.00    +0.000 Se
ATOM      3  N   UNL     1       5.584   3.255  19.324  0.00  0.00    +0.000 NA
ATOM      4  C   UNL     1       5.005   4.372  18.856  0.00  0.00    +0.000 A 
ATOM      5  C   UNL     1       3.620   4.459  19.006  0.00  0.00    +0.000 A 
ATOM      6  C   UNL     1       2.996   5.639  18.526  0.00  0.00    +0.000 A 
ATOM      7  O   UNL     1       1.800   5.802  18.626  0.00  0.00    +0.000 OA
ATOM      8  N   UNL     1       3.754   6.640  17.939  0.00  0.00    +0.000 N 
ATOM      9  C   UNL     1       3.128   7.883  17.449  0.00  0.00    +0.000 C 
ATOM     10  C   UNL     1       5.120   6.493  17.804  0.00  0.00    +0.000 A 
ATOM     11  O   UNL     1       5.774   7.380  17.277  0.00  0.00    +0.000 OA
ATOM     12  N   UNL     1       5.746   5.354  18.263  0.00  0.00    +0.000 N 
ATOM     13  C   UNL     1       7.203   5.173  18.126  0.00  0.00    +0.000 C 
ENDROOT
BRANCH   1  15
ATOM     14  C   UNL     1       1.308   2.882  21.346  0.00  0.00    +0.000 C 
ATOM     15  N   UNL     1       1.724   2.908  19.947  0.00  0.00    +0.000 N 
ATOM     16  C   UNL     1       0.738   2.511  18.958  0.00  0.00    +0.000 C 
ENDBRANCH   1  15
TORSDOF 1
ENDMDL
MODEL 5
REMARK VINA RESULT:      -5.4      2.264      5.043
REMARK  Name = 
REMARK  5 active torsions:
REMARK  status: ('A' for Active; 'I' for Inactive)
REMARK    1  A    between atoms: C_1  and  N_2
REMARK    2  A    between atoms: N_2  and  C_3
REMARK    3  A    between atoms: N_2  and  C_4
REMARK    4  A    between atoms: N_11  and  C_12
REMARK    5  A    between atoms: N_15  and  C_16
REMARK                            x       y       z     vdW  Elec       q    Type
REMARK                         _______ _______ _______ _____ _____    ______ ____
ROOT
ATOM      1  C   UNL     1       4.613   6.209  17.794  0.00  0.00    +0.000 A 
ATOM      2 SE   UNL     1       3.329   7.523  17.720  0.00  0.00    +0.000 Se
ATOM      3  N   UNL     1       2.332   6.523  18.792  0.00  0.00    +0.000 NA
ATOM      4  C   UNL     1       2.923   5.379  19.170  0.00  0.00    +0.000 A 
ATOM      5  C   UNL     1       4.199   5.144  18.657  0.00  0.00    +0.000 A 
ATOM      6  C   UNL     1       4.841   3.944  19.057  0.00  0.00    +0.000 A 
ATOM      7  O   UNL     1       5.954   3.667  18.668  0.00  0.00    +0.000 OA
ATOM      8  N   UNL     1       4.204   3.067  19.920  0.00  0.00    +0.000 N 
ATOM      9  C   UNL     1       4.861   1.822  20.364  0.00  0.00    +0.000 C 
ATOM     10  C   UNL     1       2.935   3.345  20.386  0.00  0.00    +0.000 A 
ATOM     11  O   UNL     1       2.382   2.557  21.140  0.00  0.00    +0.000 OA
ATOM     12  N   UNL     1       2.293   4.504  20.008  0.00  0.00    +0.000 N 
ATOM     13  C   UNL     1       0.935   4.819  20.490  0.00  0.00    +0.000 C 
ENDROOT
BRANCH   1  15
ATOM     14  C   UNL     1       5.880   5.720  15.691  0.00  0.00    +0.000 C 
ATOM     15  N   UNL     1       5.819   6.372  16.996  0.00  0.00    +0.000 N 
ATOM     16  C   UNL     1       6.994   7.110  17.420  0.00  0.00    +0.000 C 
ENDBRANCH   1  15
TORSDOF 1
ENDMDL
MODEL 6
REMARK VINA RESULT:      -5.3      2.611      5.303
REMARK  Name = 
REMARK  5 active torsions:
REMARK  status: ('A' for Active; 'I' for Inactive)
REMARK    1  A    between atoms: C_1  and  N_2
REMARK    2  A    between atoms: N_2  and  C_3
REMARK    3  A    between atoms: N_2  and  C_4
REMARK    4  A    between atoms: N_11  and  C_12
REMARK    5  A    between atoms: N_15  and  C_16
REMARK                            x       y       z     vdW  Elec       q    Type
REMARK                         _______ _______ _______ _____ _____    ______ ____
ROOT
ATOM      1  C   UNL     1       4.978   5.360  16.779  0.00  0.00    +0.000 A 
ATOM      2 SE   UNL     1       5.178   7.186  16.873  0.00  0.00    +0.000 Se
ATOM      3  N   UNL     1       3.885   7.203  18.086  0.00  0.00    +0.000 NA
ATOM      4  C   UNL     1       3.411   5.985  18.390  0.00  0.00    +0.000 A 
ATOM      5  C   UNL     1       3.981   4.911  17.704  0.00  0.00    +0.000 A 
ATOM      6  C   UNL     1       3.499   3.617  18.023  0.00  0.00    +0.000 A 
ATOM      7  O   UNL     1       3.946   2.629  17.484  0.00  0.00    +0.000 OA
ATOM      8  N   UNL     1       2.506   3.458  18.977  0.00  0.00    +0.000 N 
ATOM      9  C   UNL     1       2.001   2.119  19.338  0.00  0.00    +0.000 C 
ATOM     10  C   UNL     1       1.968   4.558  19.614  0.00  0.00    +0.000 A 
ATOM     11  O   UNL     1       1.087   4.403  20.447  0.00  0.00    +0.000 OA
ATOM     12  N   UNL     1       2.422   5.825  19.318  0.00  0.00    +0.000 N 
ATOM     13  C   UNL     1       1.860   7.015  19.983  0.00  0.00    +0.000 C 
ENDROOT
BRANCH   1  15
ATOM     14  C   UNL     1       7.141   4.241  16.198  0.00  0.00    +0.000 C 
ATOM     15  N   UNL     1       5.784   4.622  15.818  0.00  0.00    +0.000 N 
ATOM     16  C   UNL     1       5.348   4.264  14.481  0.00  0.00    +0.000 C 
ENDBRANCH   1  15
TORSDOF 1
ENDMDL
MODEL 7
REMARK VINA RESULT:      -5.3      2.441      5.079
REMARK  Name = 
REMARK  5 active torsions:
REMARK  status: ('A' for Active; 'I' for Inactive)
REMARK    1  A    between atoms: C_1  and  N_2
REMARK    2  A    between atoms: N_2  and  C_3
REMARK    3  A    between atoms: N_2  and  C_4
REMARK    4  A    between atoms: N_11  and  C_12
REMARK    5  A    between atoms: N_15  and  C_16
REMARK                            x       y       z     vdW  Elec       q    Type
REMARK                         _______ _______ _______ _____ _____    ______ ____
ROOT
ATOM      1  C   UNL     1       5.273   5.395  17.239  0.00  0.00    +0.000 A 
ATOM      2 SE   UNL     1       5.181   7.111  16.583  0.00  0.00    +0.000 Se
ATOM      3  N   UNL     1       3.843   7.403  17.710  0.00  0.00    +0.000 NA
ATOM      4  C   UNL     1       3.551   6.350  18.488  0.00  0.00    +0.000 A 
ATOM      5  C   UNL     1       4.314   5.199  18.284  0.00  0.00    +0.000 A 
ATOM      6  C   UNL     1       4.024   4.082  19.108  0.00  0.00    +0.000 A 
ATOM      7  O   UNL     1       4.646   3.048  19.005  0.00  0.00    +0.000 OA
ATOM      8  N   UNL     1       3.023   4.160  20.062  0.00  0.00    +0.000 N 
ATOM      9  C   UNL     1       2.716   3.016  20.943  0.00  0.00    +0.000 C 
ATOM     10  C   UNL     1       2.290   5.320  20.211  0.00  0.00    +0.000 A 
ATOM     11  O   UNL     1       1.404   5.372  21.052  0.00  0.00    +0.000 OA
ATOM     12  N   UNL     1       2.555   6.417  19.420  0.00  0.00    +0.000 N 
ATOM     13  C   UNL     1       1.781   7.665  19.558  0.00  0.00    +0.000 C 
ENDROOT
BRANCH   1  15
ATOM     14  C   UNL     1       7.585   4.437  17.184  0.00  0.00    +0.000 C 
ATOM     15  N   UNL     1       6.230   4.475  16.643  0.00  0.00    +0.000 N 
ATOM     16  C   UNL     1       5.947   3.609  15.513  0.00  0.00    +0.000 C 
ENDBRANCH   1  15
TORSDOF 1
ENDMDL
MODEL 8
REMARK VINA RESULT:      -5.1      2.413      3.129
REMARK  Name = 
REMARK  5 active torsions:
REMARK  status: ('A' for Active; 'I' for Inactive)
REMARK    1  A    between atoms: C_1  and  N_2
REMARK    2  A    between atoms: N_2  and  C_3
REMARK    3  A    between atoms: N_2  and  C_4
REMARK    4  A    between atoms: N_11  and  C_12
REMARK    5  A    between atoms: N_15  and  C_16
REMARK                            x       y       z     vdW  Elec       q    Type
REMARK                         _______ _______ _______ _____ _____    ______ ____
ROOT
ATOM      1  C   UNL     1       2.477   4.260  19.664  0.00  0.00    +0.000 A 
ATOM      2 SE   UNL     1       1.611   5.658  20.487  0.00  0.00    +0.000 Se
ATOM      3  N   UNL     1       2.420   6.749  19.348  0.00  0.00    +0.000 NA
ATOM      4  C   UNL     1       3.199   6.119  18.455  0.00  0.00    +0.000 A 
ATOM      5  C   UNL     1       3.272   4.729  18.570  0.00  0.00    +0.000 A 
ATOM      6  C   UNL     1       4.083   4.049  17.626  0.00  0.00    +0.000 A 
ATOM      7  O   UNL     1       4.192   2.843  17.647  0.00  0.00    +0.000 OA
ATOM      8  N   UNL     1       4.760   4.759  16.648  0.00  0.00    +0.000 N 
ATOM      9  C   UNL     1       5.595   4.070  15.645  0.00  0.00    +0.000 C 
ATOM     10  C   UNL     1       4.663   6.135  16.591  0.00  0.00    +0.000 A 
ATOM     11  O   UNL     1       5.273   6.749  15.727  0.00  0.00    +0.000 OA
ATOM     12  N   UNL     1       3.881   6.815  17.499  0.00  0.00    +0.000 N 
ATOM     13  C   UNL     1       3.766   8.285  17.460  0.00  0.00    +0.000 C 
ENDROOT
BRANCH   1  15
ATOM     14  C   UNL     1       1.513   1.962  19.420  0.00  0.00    +0.000 C 
ATOM     15  N   UNL     1       2.294   2.919  20.199  0.00  0.00    +0.000 N 
ATOM     16  C   UNL     1       2.804   2.466  21.480  0.00  0.00    +0.000 C 
ENDBRANCH   1  15
TORSDOF 1
ENDMDL
MODEL 9
REMARK VINA RESULT:      -5.0      2.607      5.217
REMARK  Name = 
REMARK  5 active torsions:
REMARK  status: ('A' for Active; 'I' for Inactive)
REMARK    1  A    between atoms: C_1  and  N_2
REMARK    2  A    between atoms: N_2  and  C_3
REMARK    3  A    between atoms: N_2  and  C_4
REMARK    4  A    between atoms: N_11  and  C_12
REMARK    5  A    between atoms: N_15  and  C_16
REMARK                            x       y       z     vdW  Elec       q    Type
REMARK                         _______ _______ _______ _____ _____    ______ ____
ROOT
ATOM      1  C   UNL     1       4.238   6.164  17.529  0.00  0.00    +0.000 A 
ATOM      2 SE   UNL     1       3.274   7.607  18.137  0.00  0.00    +0.000 Se
ATOM      3  N   UNL     1       2.239   6.467  19.015  0.00  0.00    +0.000 NA
ATOM      4  C   UNL     1       2.612   5.184  18.883  0.00  0.00    +0.000 A 
ATOM      5  C   UNL     1       3.723   4.944  18.074  0.00  0.00    +0.000 A 
ATOM      6  C   UNL     1       4.137   3.595  17.935  0.00  0.00    +0.000 A 
ATOM      7  O   UNL     1       5.098   3.299  17.261  0.00  0.00    +0.000 OA
ATOM      8  N   UNL     1       3.447   2.584  18.584  0.00  0.00    +0.000 N 
ATOM      9  C   UNL     1       3.870   1.174  18.468  0.00  0.00    +0.000 C 
ATOM     10  C   UNL     1       2.345   2.878  19.361  0.00  0.00    +0.000 A 
ATOM     11  O   UNL     1       1.741   1.975  19.921  0.00  0.00    +0.000 OA
ATOM     12  N   UNL     1       1.926   4.183  19.509  0.00  0.00    +0.000 N 
ATOM     13  C   UNL     1       0.748   4.521  20.330  0.00  0.00    +0.000 C 
ENDROOT
BRANCH   1  15
ATOM     14  C   UNL     1       6.528   7.077  17.091  0.00  0.00    +0.000 C 
ATOM     15  N   UNL     1       5.331   6.402  16.598  0.00  0.00    +0.000 N 
ATOM     16  C   UNL     1       5.306   6.049  15.190  0.00  0.00    +0.000 C 
ENDBRANCH   1  15
TORSDOF 1
ENDMDL
