MODEL 1
REMARK VINA RESULT:      -7.9      0.000      0.000
REMARK  Name = 
REMARK  7 active torsions:
REMARK  status: ('A' for Active; 'I' for Inactive)
REMARK    1  A    between atoms: C_2  and  C_3
REMARK    2  A    between atoms: C_3  and  C_4
REMARK    3  A    between atoms: C_3  and  N_19
REMARK    4  A    between atoms: C_4  and  C_5
REMARK    5  A    between atoms: C_8  and  N_9
REMARK    6  A    between atoms: C_11  and  C_12
REMARK    7  A    between atoms: C_20  and  C_22
REMARK                            x       y       z     vdW  Elec       q    Type
REMARK                         _______ _______ _______ _____ _____    ______ ____
ROOT
ATOM      1  C   UNL     1       2.175   5.725  19.962  0.00  0.00    +0.000 C 
ENDROOT
BRANCH   1   2
ATOM      2  N   UNL     1       1.810   6.839  20.834  0.00  0.00    +0.000 N 
ATOM      3  C   UNL     1       1.678   8.114  20.334  0.00  0.00    +0.000 C 
ATOM      4  O   UNL     1       1.882   8.385  19.156  0.00  0.00    +0.000 OA
ATOM      5  H   UNL     1       1.639   6.682  21.824  0.00  0.00    +0.000 HD
BRANCH   3   6
ATOM      6  C   UNL     1       1.228   9.142  21.387  0.00  0.00    +0.000 C 
ATOM      7  N   UNL     1       1.232  10.526  20.807  0.00  0.00    +0.000 NA
ATOM      8  C   UNL     1      -0.174  10.981  20.971  0.00  0.00    +0.000 C 
ATOM      9  C   UNL     1      -0.442  11.238  22.463  0.00  0.00    +0.000 C 
ATOM     10  C   UNL     1      -0.496   9.820  23.049  0.00  0.00    +0.000 C 
ATOM     11  C   UNL     1      -0.231   8.941  21.814  0.00  0.00    +0.000 C 
ATOM     12  C   UNL     1      -0.965   9.707  20.719  0.00  0.00    +0.000 C 
ATOM     13  H   UNL     1       1.410  10.460  19.803  0.00  0.00    +0.000 HD
ENDBRANCH   3   6
ENDBRANCH   1   2
BRANCH   1  15
ATOM     14  N   UNL     1       1.130   3.497  20.922  0.00  0.00    +0.000 NA
ATOM     15  C   UNL     1       1.607   4.471  20.505  0.00  0.00    +0.000 C 
ENDBRANCH   1  15
BRANCH   1  16
ATOM     16  C   UNL     1       3.707   5.636  19.786  0.00  0.00    +0.000 C 
BRANCH  16  17
ATOM     17  C   UNL     1       4.248   5.379  18.391  0.00  0.00    +0.000 A 
ATOM     18  C   UNL     1       4.036   4.180  17.703  0.00  0.00    +0.000 A 
ATOM     19  C   UNL     1       4.644   3.939  16.473  0.00  0.00    +0.000 A 
ATOM     20  C   UNL     1       5.444   4.917  15.874  0.00  0.00    +0.000 A 
ATOM     21  C   UNL     1       5.611   6.150  16.514  0.00  0.00    +0.000 A 
ATOM     22  C   UNL     1       5.018   6.374  17.764  0.00  0.00    +0.000 A 
BRANCH  20  23
ATOM     23  N   UNL     1       6.069   4.652  14.631  0.00  0.00    +0.000 N 
ATOM     24  C   UNL     1       5.699   3.727  13.684  0.00  0.00    +0.000 A 
ATOM     25  C   UNL     1       6.586   3.909  12.659  0.00  0.00    +0.000 A 
ATOM     26  N   UNL     1       7.484   4.878  12.992  0.00  0.00    +0.000 NA
ATOM     27  N   UNL     1       7.166   5.326  14.202  0.00  0.00    +0.000 NA
BRANCH  25  28
ATOM     28  C   UNL     1       6.533   3.139  11.363  0.00  0.00    +0.000 C 
ATOM     29  C   UNL     1       7.277   1.823  11.288  0.00  0.00    +0.000 C 
ATOM     30  C   UNL     1       5.787   1.826  11.327  0.00  0.00    +0.000 C 
ENDBRANCH  25  28
ENDBRANCH  20  23
ENDBRANCH  16  17
ENDBRANCH   1  16
TORSDOF 7
ENDMDL
MODEL 2
REMARK VINA RESULT:      -7.4      4.787      8.121
REMARK  Name = 
REMARK  7 active torsions:
REMARK  status: ('A' for Active; 'I' for Inactive)
REMARK    1  A    between atoms: C_2  and  C_3
REMARK    2  A    between atoms: C_3  and  C_4
REMARK    3  A    between atoms: C_3  and  N_19
REMARK    4  A    between atoms: C_4  and  C_5
REMARK    5  A    between atoms: C_8  and  N_9
REMARK    6  A    between atoms: C_11  and  C_12
REMARK    7  A    between atoms: C_20  and  C_22
REMARK                            x       y       z     vdW  Elec       q    Type
REMARK                         _______ _______ _______ _____ _____    ______ ____
ROOT
ATOM      1  C   UNL     1       5.638   4.775  16.591  0.00  0.00    +0.000 C 
ENDROOT
BRANCH   1   2
ATOM      2  N   UNL     1       4.730   3.997  17.430  0.00  0.00    +0.000 N 
ATOM      3  C   UNL     1       3.584   4.561  17.942  0.00  0.00    +0.000 C 
ATOM      4  O   UNL     1       3.281   5.733  17.748  0.00  0.00    +0.000 OA
ATOM      5  H   UNL     1       4.931   3.022  17.638  0.00  0.00    +0.000 HD
BRANCH   3   6
ATOM      6  C   UNL     1       2.722   3.573  18.747  0.00  0.00    +0.000 C 
ATOM      7  N   UNL     1       3.517   2.978  19.873  0.00  0.00    +0.000 NA
ATOM      8  C   UNL     1       2.744   3.352  21.087  0.00  0.00    +0.000 C 
ATOM      9  C   UNL     1       1.443   2.533  21.120  0.00  0.00    +0.000 C 
ATOM     10  C   UNL     1       0.610   3.174  20.001  0.00  0.00    +0.000 C 
ATOM     11  C   UNL     1       1.555   4.262  19.464  0.00  0.00    +0.000 C 
ATOM     12  C   UNL     1       2.238   4.743  20.740  0.00  0.00    +0.000 C 
ATOM     13  H   UNL     1       4.416   3.461  19.930  0.00  0.00    +0.000 HD
ENDBRANCH   3   6
ENDBRANCH   1   2
BRANCH   1  15
ATOM     14  N   UNL     1       5.843   3.638  14.215  0.00  0.00    +0.000 NA
ATOM     15  C   UNL     1       5.735   4.143  15.257  0.00  0.00    +0.000 C 
ENDBRANCH   1  15
BRANCH   1  16
ATOM     16  C   UNL     1       7.023   4.924  17.260  0.00  0.00    +0.000 C 
BRANCH  16  17
ATOM     17  C   UNL     1       7.452   6.312  17.701  0.00  0.00    +0.000 A 
ATOM     18  C   UNL     1       7.182   7.465  16.955  0.00  0.00    +0.000 A 
ATOM     19  C   UNL     1       7.691   8.704  17.335  0.00  0.00    +0.000 A 
ATOM     20  C   UNL     1       8.446   8.831  18.504  0.00  0.00    +0.000 A 
ATOM     21  C   UNL     1       8.669   7.703  19.302  0.00  0.00    +0.000 A 
ATOM     22  C   UNL     1       8.176   6.455  18.898  0.00  0.00    +0.000 A 
BRANCH  20  23
ATOM     23  N   UNL     1       8.971  10.094  18.870  0.00  0.00    +0.000 N 
ATOM     24  C   UNL     1       9.254  10.553  20.135  0.00  0.00    +0.000 A 
ATOM     25  C   UNL     1       9.786  11.798  19.939  0.00  0.00    +0.000 A 
ATOM     26  N   UNL     1       9.784  12.098  18.612  0.00  0.00    +0.000 NA
ATOM     27  N   UNL     1       9.279  11.054  17.962  0.00  0.00    +0.000 NA
BRANCH  25  28
ATOM     28  C   UNL     1      10.299  12.671  21.059  0.00  0.00    +0.000 C 
ATOM     29  C   UNL     1       9.798  14.096  21.133  0.00  0.00    +0.000 C 
ATOM     30  C   UNL     1       9.341  13.101  22.144  0.00  0.00    +0.000 C 
ENDBRANCH  25  28
ENDBRANCH  20  23
ENDBRANCH  16  17
ENDBRANCH   1  16
TORSDOF 7
ENDMDL
MODEL 3
REMARK VINA RESULT:      -7.4      2.649      8.902
REMARK  Name = 
REMARK  7 active torsions:
REMARK  status: ('A' for Active; 'I' for Inactive)
REMARK    1  A    between atoms: C_2  and  C_3
REMARK    2  A    between atoms: C_3  and  C_4
REMARK    3  A    between atoms: C_3  and  N_19
REMARK    4  A    between atoms: C_4  and  C_5
REMARK    5  A    between atoms: C_8  and  N_9
REMARK    6  A    between atoms: C_11  and  C_12
REMARK    7  A    between atoms: C_20  and  C_22
REMARK                            x       y       z     vdW  Elec       q    Type
REMARK                         _______ _______ _______ _____ _____    ______ ____
ROOT
ATOM      1  C   UNL     1       4.505   3.661  19.679  0.00  0.00    +0.000 C 
ENDROOT
BRANCH   1   2
ATOM      2  N   UNL     1       5.144   3.610  18.367  0.00  0.00    +0.000 N 
ATOM      3  C   UNL     1       6.081   4.549  17.999  0.00  0.00    +0.000 C 
ATOM      4  O   UNL     1       6.404   5.479  18.729  0.00  0.00    +0.000 OA
ATOM      5  H   UNL     1       4.911   2.869  17.710  0.00  0.00    +0.000 HD
BRANCH   3   6
ATOM      6  C   UNL     1       6.690   4.296  16.609  0.00  0.00    +0.000 C 
ATOM      7  N   UNL     1       5.809   3.384  15.807  0.00  0.00    +0.000 NA
ATOM      8  C   UNL     1       5.478   4.187  14.599  0.00  0.00    +0.000 C 
ATOM      9  C   UNL     1       6.734   4.305  13.721  0.00  0.00    +0.000 C 
ATOM     10  C   UNL     1       7.616   5.277  14.518  0.00  0.00    +0.000 C 
ATOM     11  C   UNL     1       6.752   5.569  15.757  0.00  0.00    +0.000 C 
ATOM     12  C   UNL     1       5.348   5.593  15.163  0.00  0.00    +0.000 C 
ATOM     13  H   UNL     1       4.936   3.239  16.317  0.00  0.00    +0.000 HD
ENDBRANCH   3   6
ENDBRANCH   1   2
BRANCH   1  15
ATOM     14  N   UNL     1       5.055   1.440  20.998  0.00  0.00    +0.000 NA
ATOM     15  C   UNL     1       4.826   2.427  20.429  0.00  0.00    +0.000 C 
ENDBRANCH   1  15
BRANCH   1  16
ATOM     16  C   UNL     1       2.981   3.876  19.545  0.00  0.00    +0.000 C 
BRANCH  16  17
ATOM     17  C   UNL     1       2.466   5.303  19.500  0.00  0.00    +0.000 A 
ATOM     18  C   UNL     1       2.613   6.129  18.380  0.00  0.00    +0.000 A 
ATOM     19  C   UNL     1       2.229   7.468  18.418  0.00  0.00    +0.000 A 
ATOM     20  C   UNL     1       1.642   8.004  19.567  0.00  0.00    +0.000 A 
ATOM     21  C   UNL     1       1.422   7.177  20.673  0.00  0.00    +0.000 A 
ATOM     22  C   UNL     1       1.835   5.838  20.637  0.00  0.00    +0.000 A 
BRANCH  20  23
ATOM     23  N   UNL     1       1.272   9.371  19.597  0.00  0.00    +0.000 N 
ATOM     24  C   UNL     1       1.723  10.382  18.782  0.00  0.00    +0.000 A 
ATOM     25  C   UNL     1       1.022  11.486  19.183  0.00  0.00    +0.000 A 
ATOM     26  N   UNL     1       0.210  11.164  20.228  0.00  0.00    +0.000 NA
ATOM     27  N   UNL     1       0.371   9.869  20.481  0.00  0.00    +0.000 NA
BRANCH  25  28
ATOM     28  C   UNL     1       1.151  12.839  18.527  0.00  0.00    +0.000 C 
ATOM     29  C   UNL     1       1.873  13.930  19.286  0.00  0.00    +0.000 C 
ATOM     30  C   UNL     1       2.518  13.311  18.093  0.00  0.00    +0.000 C 
ENDBRANCH  25  28
ENDBRANCH  20  23
ENDBRANCH  16  17
ENDBRANCH   1  16
TORSDOF 7
ENDMDL
MODEL 4
REMARK VINA RESULT:      -7.3      1.166      1.343
REMARK  Name = 
REMARK  7 active torsions:
REMARK  status: ('A' for Active; 'I' for Inactive)
REMARK    1  A    between atoms: C_2  and  C_3
REMARK    2  A    between atoms: C_3  and  C_4
REMARK    3  A    between atoms: C_3  and  N_19
REMARK    4  A    between atoms: C_4  and  C_5
REMARK    5  A    between atoms: C_8  and  N_9
REMARK    6  A    between atoms: C_11  and  C_12
REMARK    7  A    between atoms: C_20  and  C_22
REMARK                            x       y       z     vdW  Elec       q    Type
REMARK                         _______ _______ _______ _____ _____    ______ ____
ROOT
ATOM      1  C   UNL     1       2.377   6.428  19.286  0.00  0.00    +0.000 C 
ENDROOT
BRANCH   1   2
ATOM      2  N   UNL     1       2.018   7.763  19.761  0.00  0.00    +0.000 N 
ATOM      3  C   UNL     1       1.684   8.762  18.875  0.00  0.00    +0.000 C 
ATOM      4  O   UNL     1       1.695   8.597  17.660  0.00  0.00    +0.000 OA
ATOM      5  H   UNL     1       2.002   7.967  20.757  0.00  0.00    +0.000 HD
BRANCH   3   6
ATOM      6  C   UNL     1       1.276  10.077  19.560  0.00  0.00    +0.000 C 
ATOM      7  N   UNL     1       1.003  11.141  18.537  0.00  0.00    +0.000 NA
ATOM      8  C   UNL     1      -0.407  11.533  18.804  0.00  0.00    +0.000 C 
ATOM      9  C   UNL     1      -0.464  12.312  20.128  0.00  0.00    +0.000 C 
ATOM     10  C   UNL     1      -0.235  11.215  21.178  0.00  0.00    +0.000 C 
ATOM     11  C   UNL     1      -0.056   9.957  20.311  0.00  0.00    +0.000 C 
ATOM     12  C   UNL     1      -1.051  10.209  19.183  0.00  0.00    +0.000 C 
ATOM     13  H   UNL     1       1.025  10.716  17.609  0.00  0.00    +0.000 HD
ENDBRANCH   3   6
ENDBRANCH   1   2
BRANCH   1  15
ATOM     14  N   UNL     1       1.322   4.616  20.893  0.00  0.00    +0.000 NA
ATOM     15  C   UNL     1       1.801   5.414  20.197  0.00  0.00    +0.000 C 
ENDBRANCH   1  15
BRANCH   1  16
ATOM     16  C   UNL     1       3.909   6.280  19.151  0.00  0.00    +0.000 C 
BRANCH  16  17
ATOM     17  C   UNL     1       4.460   5.797  17.822  0.00  0.00    +0.000 A 
ATOM     18  C   UNL     1       4.840   4.470  17.593  0.00  0.00    +0.000 A 
ATOM     19  C   UNL     1       5.447   4.091  16.398  0.00  0.00    +0.000 A 
ATOM     20  C   UNL     1       5.647   5.025  15.377  0.00  0.00    +0.000 A 
ATOM     21  C   UNL     1       5.211   6.342  15.560  0.00  0.00    +0.000 A 
ATOM     22  C   UNL     1       4.625   6.722  16.775  0.00  0.00    +0.000 A 
BRANCH  20  23
ATOM     23  N   UNL     1       6.281   4.630  14.174  0.00  0.00    +0.000 N 
ATOM     24  C   UNL     1       5.927   3.598  13.338  0.00  0.00    +0.000 A 
ATOM     25  C   UNL     1       6.816   3.674  12.301  0.00  0.00    +0.000 A 
ATOM     26  N   UNL     1       7.700   4.686  12.524  0.00  0.00    +0.000 NA
ATOM     27  N   UNL     1       7.371   5.264  13.675  0.00  0.00    +0.000 NA
BRANCH  25  28
ATOM     28  C   UNL     1       6.778   2.761  11.101  0.00  0.00    +0.000 C 
ATOM     29  C   UNL     1       7.305   1.352  11.264  0.00  0.00    +0.000 C 
ATOM     30  C   UNL     1       5.839   1.577  11.116  0.00  0.00    +0.000 C 
ENDBRANCH  25  28
ENDBRANCH  20  23
ENDBRANCH  16  17
ENDBRANCH   1  16
TORSDOF 7
ENDMDL
MODEL 5
REMARK VINA RESULT:      -7.2      3.675      6.326
REMARK  Name = 
REMARK  7 active torsions:
REMARK  status: ('A' for Active; 'I' for Inactive)
REMARK    1  A    between atoms: C_2  and  C_3
REMARK    2  A    between atoms: C_3  and  C_4
REMARK    3  A    between atoms: C_3  and  N_19
REMARK    4  A    between atoms: C_4  and  C_5
REMARK    5  A    between atoms: C_8  and  N_9
REMARK    6  A    between atoms: C_11  and  C_12
REMARK    7  A    between atoms: C_20  and  C_22
REMARK                            x       y       z     vdW  Elec       q    Type
REMARK                         _______ _______ _______ _____ _____    ______ ____
ROOT
ATOM      1  C   UNL     1       0.170  12.219  20.588  0.00  0.00    +0.000 C 
ENDROOT
BRANCH   1   2
ATOM      2  N   UNL     1      -0.479  11.974  19.302  0.00  0.00    +0.000 N 
ATOM      3  C   UNL     1      -1.849  12.024  19.182  0.00  0.00    +0.000 C 
ATOM      4  O   UNL     1      -2.588  12.247  20.134  0.00  0.00    +0.000 OA
ATOM      5  H   UNL     1       0.077  11.772  18.475  0.00  0.00    +0.000 HD
BRANCH   3   6
ATOM      6  C   UNL     1      -2.347  11.803  17.742  0.00  0.00    +0.000 C 
ATOM      7  N   UNL     1      -1.422  10.881  17.002  0.00  0.00    +0.000 NA
ATOM      8  C   UNL     1      -2.301   9.753  16.594  0.00  0.00    +0.000 C 
ATOM      9  C   UNL     1      -3.253  10.240  15.489  0.00  0.00    +0.000 C 
ATOM     10  C   UNL     1      -4.229  11.144  16.254  0.00  0.00    +0.000 C 
ATOM     11  C   UNL     1      -3.692  11.069  17.694  0.00  0.00    +0.000 C 
ATOM     12  C   UNL     1      -3.237   9.617  17.785  0.00  0.00    +0.000 C 
ATOM     13  H   UNL     1      -0.738  10.505  17.661  0.00  0.00    +0.000 HD
ENDBRANCH   3   6
ENDBRANCH   1   2
BRANCH   1  15
ATOM     14  N   UNL     1       2.483  13.433  20.199  0.00  0.00    +0.000 NA
ATOM     15  C   UNL     1       1.457  12.913  20.361  0.00  0.00    +0.000 C 
ENDBRANCH   1  15
BRANCH   1  16
ATOM     16  C   UNL     1       0.355  10.903  21.376  0.00  0.00    +0.000 C 
BRANCH  16  17
ATOM     17  C   UNL     1       0.893   9.697  20.627  0.00  0.00    +0.000 A 
ATOM     18  C   UNL     1       1.112   8.458  21.237  0.00  0.00    +0.000 A 
ATOM     19  C   UNL     1       1.714   7.410  20.544  0.00  0.00    +0.000 A 
ATOM     20  C   UNL     1       2.068   7.560  19.200  0.00  0.00    +0.000 A 
ATOM     21  C   UNL     1       1.793   8.769  18.551  0.00  0.00    +0.000 A 
ATOM     22  C   UNL     1       1.213   9.828  19.263  0.00  0.00    +0.000 A 
BRANCH  20  23
ATOM     23  N   UNL     1       2.693   6.492  18.513  0.00  0.00    +0.000 N 
ATOM     24  C   UNL     1       2.263   5.190  18.412  0.00  0.00    +0.000 A 
ATOM     25  C   UNL     1       3.184   4.584  17.604  0.00  0.00    +0.000 A 
ATOM     26  N   UNL     1       4.157   5.473  17.264  0.00  0.00    +0.000 NA
ATOM     27  N   UNL     1       3.855   6.639  17.827  0.00  0.00    +0.000 NA
BRANCH  25  28
ATOM     28  C   UNL     1       3.089   3.143  17.166  0.00  0.00    +0.000 C 
ATOM     29  C   UNL     1       3.687   2.086  18.070  0.00  0.00    +0.000 C 
ATOM     30  C   UNL     1       2.205   2.200  17.949  0.00  0.00    +0.000 C 
ENDBRANCH  25  28
ENDBRANCH  20  23
ENDBRANCH  16  17
ENDBRANCH   1  16
TORSDOF 7
ENDMDL
MODEL 6
REMARK VINA RESULT:      -7.2      2.632      8.991
REMARK  Name = 
REMARK  7 active torsions:
REMARK  status: ('A' for Active; 'I' for Inactive)
REMARK    1  A    between atoms: C_2  and  C_3
REMARK    2  A    between atoms: C_3  and  C_4
REMARK    3  A    between atoms: C_3  and  N_19
REMARK    4  A    between atoms: C_4  and  C_5
REMARK    5  A    between atoms: C_8  and  N_9
REMARK    6  A    between atoms: C_11  and  C_12
REMARK    7  A    between atoms: C_20  and  C_22
REMARK                            x       y       z     vdW  Elec       q    Type
REMARK                         _______ _______ _______ _____ _____    ______ ____
ROOT
ATOM      1  C   UNL     1       3.007   4.640  20.410  0.00  0.00    +0.000 C 
ENDROOT
BRANCH   1   2
ATOM      2  N   UNL     1       3.751   4.275  19.207  0.00  0.00    +0.000 N 
ATOM      3  C   UNL     1       4.992   4.811  18.953  0.00  0.00    +0.000 C 
ATOM      4  O   UNL     1       5.521   5.631  19.695  0.00  0.00    +0.000 OA
ATOM      5  H   UNL     1       3.361   3.608  18.544  0.00  0.00    +0.000 HD
BRANCH   3   6
ATOM      6  C   UNL     1       5.647   4.261  17.674  0.00  0.00    +0.000 C 
ATOM      7  N   UNL     1       4.601   3.772  16.716  0.00  0.00    +0.000 NA
ATOM      8  C   UNL     1       4.837   4.583  15.491  0.00  0.00    +0.000 C 
ATOM      9  C   UNL     1       6.146   4.118  14.832  0.00  0.00    +0.000 C 
ATOM     10  C   UNL     1       7.219   4.662  15.786  0.00  0.00    +0.000 C 
ATOM     11  C   UNL     1       6.377   5.348  16.876  0.00  0.00    +0.000 C 
ATOM     12  C   UNL     1       5.229   5.936  16.063  0.00  0.00    +0.000 C 
ATOM     13  H   UNL     1       3.681   4.032  17.074  0.00  0.00    +0.000 HD
ENDBRANCH   3   6
ENDBRANCH   1   2
BRANCH   1  15
ATOM     14  N   UNL     1       2.635   2.510  21.927  0.00  0.00    +0.000 NA
ATOM     15  C   UNL     1       2.808   3.436  21.247  0.00  0.00    +0.000 C 
ENDBRANCH   1  15
BRANCH   1  16
ATOM     16  C   UNL     1       1.668   5.320  20.050  0.00  0.00    +0.000 C 
BRANCH  16  17
ATOM     17  C   UNL     1       1.680   6.816  19.788  0.00  0.00    +0.000 A 
ATOM     18  C   UNL     1       1.234   7.755  20.724  0.00  0.00    +0.000 A 
ATOM     19  C   UNL     1       1.154   9.109  20.403  0.00  0.00    +0.000 A 
ATOM     20  C   UNL     1       1.566   9.565  19.148  0.00  0.00    +0.000 A 
ATOM     21  C   UNL     1       2.081   8.650  18.222  0.00  0.00    +0.000 A 
ATOM     22  C   UNL     1       2.133   7.287  18.543  0.00  0.00    +0.000 A 
BRANCH  20  23
ATOM     23  N   UNL     1       1.464  10.941  18.830  0.00  0.00    +0.000 N 
ATOM     24  C   UNL     1       0.443  11.804  19.148  0.00  0.00    +0.000 A 
ATOM     25  C   UNL     1       0.852  13.016  18.664  0.00  0.00    +0.000 A 
ATOM     26  N   UNL     1       2.054  12.882  18.038  0.00  0.00    +0.000 NA
ATOM     27  N   UNL     1       2.422  11.608  18.138  0.00  0.00    +0.000 NA
BRANCH  25  28
ATOM     28  C   UNL     1       0.063  14.291  18.832  0.00  0.00    +0.000 C 
ATOM     29  C   UNL     1       0.278  15.097  20.094  0.00  0.00    +0.000 C 
ATOM     30  C   UNL     1       0.795  15.612  18.794  0.00  0.00    +0.000 C 
ENDBRANCH  25  28
ENDBRANCH  20  23
ENDBRANCH  16  17
ENDBRANCH   1  16
TORSDOF 7
ENDMDL
MODEL 7
REMARK VINA RESULT:      -7.2      2.169      9.848
REMARK  Name = 
REMARK  7 active torsions:
REMARK  status: ('A' for Active; 'I' for Inactive)
REMARK    1  A    between atoms: C_2  and  C_3
REMARK    2  A    between atoms: C_3  and  C_4
REMARK    3  A    between atoms: C_3  and  N_19
REMARK    4  A    between atoms: C_4  and  C_5
REMARK    5  A    between atoms: C_8  and  N_9
REMARK    6  A    between atoms: C_11  and  C_12
REMARK    7  A    between atoms: C_20  and  C_22
REMARK                            x       y       z     vdW  Elec       q    Type
REMARK                         _______ _______ _______ _____ _____    ______ ____
ROOT
ATOM      1  C   UNL     1       4.409   4.149  19.030  0.00  0.00    +0.000 C 
ENDROOT
BRANCH   1   2
ATOM      2  N   UNL     1       5.081   3.977  17.744  0.00  0.00    +0.000 N 
ATOM      3  C   UNL     1       6.216   4.692  17.438  0.00  0.00    +0.000 C 
ATOM      4  O   UNL     1       6.703   5.517  18.203  0.00  0.00    +0.000 OA
ATOM      5  H   UNL     1       4.720   3.316  17.060  0.00  0.00    +0.000 HD
BRANCH   3   6
ATOM      6  C   UNL     1       6.817   4.331  16.068  0.00  0.00    +0.000 C 
ATOM      7  N   UNL     1       6.024   3.235  15.418  0.00  0.00    +0.000 NA
ATOM      8  C   UNL     1       5.578   3.838  14.133  0.00  0.00    +0.000 C 
ATOM      9  C   UNL     1       6.793   3.978  13.202  0.00  0.00    +0.000 C 
ATOM     10  C   UNL     1       7.579   5.132  13.839  0.00  0.00    +0.000 C 
ATOM     11  C   UNL     1       6.718   5.485  15.064  0.00  0.00    +0.000 C 
ATOM     12  C   UNL     1       5.306   5.282  14.524  0.00  0.00    +0.000 C 
ATOM     13  H   UNL     1       5.186   3.063  15.975  0.00  0.00    +0.000 HD
ENDBRANCH   3   6
ENDBRANCH   1   2
BRANCH   1  15
ATOM     14  N   UNL     1       4.691   1.928  20.432  0.00  0.00    +0.000 NA
ATOM     15  C   UNL     1       4.561   2.914  19.830  0.00  0.00    +0.000 C 
ENDBRANCH   1  15
BRANCH   1  16
ATOM     16  C   UNL     1       2.925   4.532  18.834  0.00  0.00    +0.000 C 
BRANCH  16  17
ATOM     17  C   UNL     1       2.458   5.866  19.386  0.00  0.00    +0.000 A 
ATOM     18  C   UNL     1       1.870   6.004  20.648  0.00  0.00    +0.000 A 
ATOM     19  C   UNL     1       1.351   7.226  21.071  0.00  0.00    +0.000 A 
ATOM     20  C   UNL     1       1.452   8.358  20.258  0.00  0.00    +0.000 A 
ATOM     21  C   UNL     1       2.099   8.257  19.021  0.00  0.00    +0.000 A 
ATOM     22  C   UNL     1       2.594   7.019  18.592  0.00  0.00    +0.000 A 
BRANCH  20  23
ATOM     23  N   UNL     1       0.906   9.589  20.694  0.00  0.00    +0.000 N 
ATOM     24  C   UNL     1      -0.418   9.896  20.902  0.00  0.00    +0.000 A 
ATOM     25  C   UNL     1      -0.406  11.182  21.367  0.00  0.00    +0.000 A 
ATOM     26  N   UNL     1       0.872  11.650  21.398  0.00  0.00    +0.000 NA
ATOM     27  N   UNL     1       1.671  10.673  20.980  0.00  0.00    +0.000 NA
BRANCH  25  28
ATOM     28  C   UNL     1      -1.648  11.929  21.786  0.00  0.00    +0.000 C 
ATOM     29  C   UNL     1      -2.169  11.709  23.189  0.00  0.00    +0.000 C 
ATOM     30  C   UNL     1      -1.530  13.008  22.836  0.00  0.00    +0.000 C 
ENDBRANCH  25  28
ENDBRANCH  20  23
ENDBRANCH  16  17
ENDBRANCH   1  16
TORSDOF 7
ENDMDL
MODEL 8
REMARK VINA RESULT:      -7.1      3.223      6.134
REMARK  Name = 
REMARK  7 active torsions:
REMARK  status: ('A' for Active; 'I' for Inactive)
REMARK    1  A    between atoms: C_2  and  C_3
REMARK    2  A    between atoms: C_3  and  C_4
REMARK    3  A    between atoms: C_3  and  N_19
REMARK    4  A    between atoms: C_4  and  C_5
REMARK    5  A    between atoms: C_8  and  N_9
REMARK    6  A    between atoms: C_11  and  C_12
REMARK    7  A    between atoms: C_20  and  C_22
REMARK                            x       y       z     vdW  Elec       q    Type
REMARK                         _______ _______ _______ _____ _____    ______ ____
ROOT
ATOM      1  C   UNL     1      -0.206  11.665  20.895  0.00  0.00    +0.000 C 
ENDROOT
BRANCH   1   2
ATOM      2  N   UNL     1      -0.756  11.561  19.545  0.00  0.00    +0.000 N 
ATOM      3  C   UNL     1      -2.060  11.912  19.285  0.00  0.00    +0.000 C 
ATOM      4  O   UNL     1      -2.827  12.299  20.160  0.00  0.00    +0.000 OA
ATOM      5  H   UNL     1      -0.174  11.235  18.777  0.00  0.00    +0.000 HD
BRANCH   3   6
ATOM      6  C   UNL     1      -2.441  11.796  17.798  0.00  0.00    +0.000 C 
ATOM      7  N   UNL     1      -1.435  10.962  17.061  0.00  0.00    +0.000 NA
ATOM      8  C   UNL     1      -2.245   9.849  16.497  0.00  0.00    +0.000 C 
ATOM      9  C   UNL     1      -3.126  10.400  15.364  0.00  0.00    +0.000 C 
ATOM     10  C   UNL     1      -4.185  11.213  16.122  0.00  0.00    +0.000 C 
ATOM     11  C   UNL     1      -3.755  11.035  17.588  0.00  0.00    +0.000 C 
ATOM     12  C   UNL     1      -3.262   9.592  17.598  0.00  0.00    +0.000 C 
ATOM     13  H   UNL     1      -0.791  10.551  17.738  0.00  0.00    +0.000 HD
ENDBRANCH   3   6
ENDBRANCH   1   2
BRANCH   1  15
ATOM     14  N   UNL     1       2.047  13.042  20.813  0.00  0.00    +0.000 NA
ATOM     15  C   UNL     1       1.066  12.420  20.848  0.00  0.00    +0.000 C 
ENDBRANCH   1  15
BRANCH   1  16
ATOM     16  C   UNL     1      -0.024  10.268  21.529  0.00  0.00    +0.000 C 
BRANCH  16  17
ATOM     17  C   UNL     1       0.792   9.242  20.764  0.00  0.00    +0.000 A 
ATOM     18  C   UNL     1       1.191   9.424  19.436  0.00  0.00    +0.000 A 
ATOM     19  C   UNL     1       1.840   8.411  18.733  0.00  0.00    +0.000 A 
ATOM     20  C   UNL     1       2.151   7.202  19.360  0.00  0.00    +0.000 A 
ATOM     21  C   UNL     1       1.823   7.025  20.709  0.00  0.00    +0.000 A 
ATOM     22  C   UNL     1       1.146   8.039  21.401  0.00  0.00    +0.000 A 
BRANCH  20  23
ATOM     23  N   UNL     1       2.797   6.175  18.629  0.00  0.00    +0.000 N 
ATOM     24  C   UNL     1       3.731   6.313  17.630  0.00  0.00    +0.000 A 
ATOM     25  C   UNL     1       4.073   5.032  17.298  0.00  0.00    +0.000 A 
ATOM     26  N   UNL     1       3.343   4.152  18.037  0.00  0.00    +0.000 NA
ATOM     27  N   UNL     1       2.559   4.857  18.847  0.00  0.00    +0.000 NA
BRANCH  25  28
ATOM     28  C   UNL     1       5.122   4.689  16.268  0.00  0.00    +0.000 C 
ATOM     29  C   UNL     1       5.511   5.757  15.270  0.00  0.00    +0.000 C 
ATOM     30  C   UNL     1       6.468   5.370  16.345  0.00  0.00    +0.000 C 
ENDBRANCH  25  28
ENDBRANCH  20  23
ENDBRANCH  16  17
ENDBRANCH   1  16
TORSDOF 7
ENDMDL
MODEL 9
REMARK VINA RESULT:      -7.0      2.763      9.115
REMARK  Name = 
REMARK  7 active torsions:
REMARK  status: ('A' for Active; 'I' for Inactive)
REMARK    1  A    between atoms: C_2  and  C_3
REMARK    2  A    between atoms: C_3  and  C_4
REMARK    3  A    between atoms: C_3  and  N_19
REMARK    4  A    between atoms: C_4  and  C_5
REMARK    5  A    between atoms: C_8  and  N_9
REMARK    6  A    between atoms: C_11  and  C_12
REMARK    7  A    between atoms: C_20  and  C_22
REMARK                            x       y       z     vdW  Elec       q    Type
REMARK                         _______ _______ _______ _____ _____    ______ ____
ROOT
ATOM      1  C   UNL     1       4.139   5.255  16.881  0.00  0.00    +0.000 C 
ENDROOT
BRANCH   1   2
ATOM      2  N   UNL     1       3.596   4.449  17.972  0.00  0.00    +0.000 N 
ATOM      3  C   UNL     1       2.496   3.645  17.778  0.00  0.00    +0.000 C 
ATOM      4  O   UNL     1       1.904   3.584  16.706  0.00  0.00    +0.000 OA
ATOM      5  H   UNL     1       4.034   4.464  18.890  0.00  0.00    +0.000 HD
BRANCH   3   6
ATOM      6  C   UNL     1       2.109   2.825  19.021  0.00  0.00    +0.000 C 
ATOM      7  N   UNL     1       3.337   2.323  19.723  0.00  0.00    +0.000 NA
ATOM      8  C   UNL     1       3.221   2.896  21.091  0.00  0.00    +0.000 C 
ATOM      9  C   UNL     1       2.085   2.177  21.836  0.00  0.00    +0.000 C 
ATOM     10  C   UNL     1       0.826   2.728  21.151  0.00  0.00    +0.000 C 
ATOM     11  C   UNL     1       1.413   3.675  20.090  0.00  0.00    +0.000 C 
ATOM     12  C   UNL     1       2.613   4.264  20.824  0.00  0.00    +0.000 C 
ATOM     13  H   UNL     1       4.159   2.747  19.289  0.00  0.00    +0.000 HD
ENDBRANCH   3   6
ENDBRANCH   1   2
BRANCH   1  15
ATOM     14  N   UNL     1       6.277   4.078  15.871  0.00  0.00    +0.000 NA
ATOM     15  C   UNL     1       5.341   4.590  16.333  0.00  0.00    +0.000 C 
ENDBRANCH   1  15
BRANCH   1  16
ATOM     16  C   UNL     1       4.440   6.695  17.352  0.00  0.00    +0.000 C 
BRANCH  16  17
ATOM     17  C   UNL     1       3.314   7.479  18.001  0.00  0.00    +0.000 A 
ATOM     18  C   UNL     1       2.693   8.571  17.385  0.00  0.00    +0.000 A 
ATOM     19  C   UNL     1       1.743   9.334  18.060  0.00  0.00    +0.000 A 
ATOM     20  C   UNL     1       1.352   8.993  19.358  0.00  0.00    +0.000 A 
ATOM     21  C   UNL     1       1.909   7.863  19.966  0.00  0.00    +0.000 A 
ATOM     22  C   UNL     1       2.884   7.116  19.290  0.00  0.00    +0.000 A 
BRANCH  20  23
ATOM     23  N   UNL     1       0.397   9.787  20.038  0.00  0.00    +0.000 N 
ATOM     24  C   UNL     1       0.250   9.948  21.395  0.00  0.00    +0.000 A 
ATOM     25  C   UNL     1      -0.770  10.849  21.527  0.00  0.00    +0.000 A 
ATOM     26  N   UNL     1      -1.251  11.186  20.299  0.00  0.00    +0.000 NA
ATOM     27  N   UNL     1      -0.537  10.529  19.390  0.00  0.00    +0.000 NA
BRANCH  25  28
ATOM     28  C   UNL     1      -1.251  11.375  22.857  0.00  0.00    +0.000 C 
ATOM     29  C   UNL     1      -1.204  12.870  23.088  0.00  0.00    +0.000 C 
ATOM     30  C   UNL     1      -2.519  12.194  22.902  0.00  0.00    +0.000 C 
ENDBRANCH  25  28
ENDBRANCH  20  23
ENDBRANCH  16  17
ENDBRANCH   1  16
TORSDOF 7
ENDMDL
