MODEL 1
REMARK VINA RESULT:      -7.8      0.000      0.000
REMARK  Name = 
REMARK  10 active torsions:
REMARK  status: ('A' for Active; 'I' for Inactive)
REMARK    1  A    between atoms: C_1  and  O_2
REMARK    2  A    between atoms: O_2  and  C_3
REMARK    3  A    between atoms: C_5  and  C_6
REMARK    4  A    between atoms: C_6  and  S_7
REMARK    5  A    between atoms: S_7  and  C_8
REMARK    6  A    between atoms: C_10  and  S_11
REMARK    7  A    between atoms: S_11  and  C_12
REMARK    8  A    between atoms: C_12  and  C_13
REMARK    9  A    between atoms: C_25  and  O_26
REMARK   10  A    between atoms: O_26  and  C_27
REMARK                            x       y       z     vdW  Elec       q    Type
REMARK                         _______ _______ _______ _____ _____    ______ ____
ROOT
ATOM      1  C   UNL     1       2.635   3.662  19.154  0.00  0.00    +0.000 A 
ATOM      2  N   UNL     1       2.445   4.997  18.909  0.00  0.00    +0.000 NA
ATOM      3  C   UNL     1       2.168   5.708  19.936  0.00  0.00    +0.000 A 
ATOM      4  N   UNL     1       2.055   5.201  21.175  0.00  0.00    +0.000 N 
ATOM      5  C   UNL     1       2.225   3.876  21.383  0.00  0.00    +0.000 A 
ATOM      6  O   UNL     1       2.105   3.426  22.520  0.00  0.00    +0.000 OA
ATOM      7  N   UNL     1       2.531   3.107  20.307  0.00  0.00    +0.000 NA
ATOM      8  H   UNL     1       1.845   5.786  21.967  0.00  0.00    +0.000 HD
ENDROOT
BRANCH   1   9
ATOM      9  S   UNL     1       3.047   2.607  17.807  0.00  0.00    +0.000 S 
BRANCH   9  10
ATOM     10  C   UNL     1       3.324   3.849  16.526  0.00  0.00    +0.000 C 
BRANCH  10  13
ATOM     11  C   UNL     1       6.995   4.582  17.296  0.00  0.00    +0.000 A 
ATOM     12  C   UNL     1       5.625   4.349  17.459  0.00  0.00    +0.000 A 
ATOM     13  C   UNL     1       4.777   4.220  16.348  0.00  0.00    +0.000 A 
ATOM     14  C   UNL     1       5.326   4.384  15.067  0.00  0.00    +0.000 A 
ATOM     15  C   UNL     1       6.695   4.609  14.892  0.00  0.00    +0.000 A 
ATOM     16  C   UNL     1       7.526   4.705  16.010  0.00  0.00    +0.000 A 
BRANCH  11  18
ATOM     17  C   UNL     1       7.939   5.942  19.005  0.00  0.00    +0.000 C 
ATOM     18  O   UNL     1       7.713   4.645  18.461  0.00  0.00    +0.000 OA
ENDBRANCH  11  18
BRANCH  15  19
ATOM     19  O   UNL     1       7.102   4.691  13.588  0.00  0.00    +0.000 OA
ATOM     20  C   UNL     1       6.504   3.789  12.664  0.00  0.00    +0.000 C 
ENDBRANCH  15  19
ENDBRANCH  10  13
ENDBRANCH   9  10
ENDBRANCH   1   9
BRANCH   3  21
ATOM     21  S   UNL     1       1.964   7.427  19.923  0.00  0.00    +0.000 S 
BRANCH  21  22
ATOM     22  C   UNL     1       0.981   7.712  21.422  0.00  0.00    +0.000 C 
BRANCH  22  23
ATOM     23  C   UNL     1       0.303   9.062  21.363  0.00  0.00    +0.000 A 
ATOM     24  C   UNL     1       0.059   9.704  20.140  0.00  0.00    +0.000 A 
ATOM     25  C   UNL     1      -0.517  10.978  20.106  0.00  0.00    +0.000 A 
ATOM     26  C   UNL     1      -0.858  11.628  21.293  0.00  0.00    +0.000 A 
ATOM     27  C   UNL     1      -0.628  11.001  22.514  0.00  0.00    +0.000 A 
ATOM     28  C   UNL     1      -0.052   9.731  22.541  0.00  0.00    +0.000 A 
ATOM     29  F   UNL     1       0.169   9.151  23.728  0.00  0.00    +0.000 F 
ENDBRANCH  22  23
ENDBRANCH  21  22
ENDBRANCH   3  21
TORSDOF 8
ENDMDL
MODEL 2
REMARK VINA RESULT:      -7.8      5.597      8.582
REMARK  Name = 
REMARK  10 active torsions:
REMARK  status: ('A' for Active; 'I' for Inactive)
REMARK    1  A    between atoms: C_1  and  O_2
REMARK    2  A    between atoms: O_2  and  C_3
REMARK    3  A    between atoms: C_5  and  C_6
REMARK    4  A    between atoms: C_6  and  S_7
REMARK    5  A    between atoms: S_7  and  C_8
REMARK    6  A    between atoms: C_10  and  S_11
REMARK    7  A    between atoms: S_11  and  C_12
REMARK    8  A    between atoms: C_12  and  C_13
REMARK    9  A    between atoms: C_25  and  O_26
REMARK   10  A    between atoms: O_26  and  C_27
REMARK                            x       y       z     vdW  Elec       q    Type
REMARK                         _______ _______ _______ _____ _____    ______ ____
ROOT
ATOM      1  C   UNL     1       7.855   7.433  17.818  0.00  0.00    +0.000 A 
ATOM      2  N   UNL     1       7.341   6.689  16.787  0.00  0.00    +0.000 NA
ATOM      3  C   UNL     1       7.100   5.464  17.062  0.00  0.00    +0.000 A 
ATOM      4  N   UNL     1       7.337   4.919  18.267  0.00  0.00    +0.000 N 
ATOM      5  C   UNL     1       7.867   5.669  19.259  0.00  0.00    +0.000 A 
ATOM      6  O   UNL     1       8.091   5.152  20.351  0.00  0.00    +0.000 OA
ATOM      7  N   UNL     1       8.119   6.976  18.989  0.00  0.00    +0.000 NA
ATOM      8  H   UNL     1       7.130   3.952  18.459  0.00  0.00    +0.000 HD
ENDROOT
BRANCH   1   9
ATOM      9  S   UNL     1       8.193   9.137  17.543  0.00  0.00    +0.000 S 
BRANCH   9  10
ATOM     10  C   UNL     1       8.912   9.563  19.143  0.00  0.00    +0.000 C 
BRANCH  10  13
ATOM     11  C   UNL     1      10.534  12.827  17.994  0.00  0.00    +0.000 A 
ATOM     12  C   UNL     1      10.039  11.518  17.994  0.00  0.00    +0.000 A 
ATOM     13  C   UNL     1       9.555  10.929  19.171  0.00  0.00    +0.000 A 
ATOM     14  C   UNL     1       9.630  11.664  20.364  0.00  0.00    +0.000 A 
ATOM     15  C   UNL     1      10.115  12.975  20.374  0.00  0.00    +0.000 A 
ATOM     16  C   UNL     1      10.563  13.554  19.186  0.00  0.00    +0.000 A 
BRANCH  11  18
ATOM     17  C   UNL     1      12.333  13.481  16.581  0.00  0.00    +0.000 C 
ATOM     18  O   UNL     1      10.934  13.293  16.768  0.00  0.00    +0.000 OA
ENDBRANCH  11  18
BRANCH  15  19
ATOM     19  O   UNL     1      10.076  13.594  21.595  0.00  0.00    +0.000 OA
ATOM     20  C   UNL     1      10.067  15.017  21.600  0.00  0.00    +0.000 C 
ENDBRANCH  15  19
ENDBRANCH  10  13
ENDBRANCH   9  10
ENDBRANCH   1   9
BRANCH   3  21
ATOM     21  S   UNL     1       6.374   4.330  15.974  0.00  0.00    +0.000 S 
BRANCH  21  22
ATOM     22  C   UNL     1       4.611   4.752  16.094  0.00  0.00    +0.000 C 
BRANCH  22  23
ATOM     23  C   UNL     1       4.004   4.145  17.339  0.00  0.00    +0.000 A 
ATOM     24  C   UNL     1       3.937   2.755  17.516  0.00  0.00    +0.000 A 
ATOM     25  C   UNL     1       3.321   2.209  18.647  0.00  0.00    +0.000 A 
ATOM     26  C   UNL     1       2.763   3.045  19.617  0.00  0.00    +0.000 A 
ATOM     27  C   UNL     1       2.828   4.425  19.457  0.00  0.00    +0.000 A 
ATOM     28  C   UNL     1       3.443   4.963  18.327  0.00  0.00    +0.000 A 
ATOM     29  F   UNL     1       3.485   6.296  18.190  0.00  0.00    +0.000 F 
ENDBRANCH  22  23
ENDBRANCH  21  22
ENDBRANCH   3  21
TORSDOF 8
ENDMDL
MODEL 3
REMARK VINA RESULT:      -7.7      5.819      8.520
REMARK  Name = 
REMARK  10 active torsions:
REMARK  status: ('A' for Active; 'I' for Inactive)
REMARK    1  A    between atoms: C_1  and  O_2
REMARK    2  A    between atoms: O_2  and  C_3
REMARK    3  A    between atoms: C_5  and  C_6
REMARK    4  A    between atoms: C_6  and  S_7
REMARK    5  A    between atoms: S_7  and  C_8
REMARK    6  A    between atoms: C_10  and  S_11
REMARK    7  A    between atoms: S_11  and  C_12
REMARK    8  A    between atoms: C_12  and  C_13
REMARK    9  A    between atoms: C_25  and  O_26
REMARK   10  A    between atoms: O_26  and  C_27
REMARK                            x       y       z     vdW  Elec       q    Type
REMARK                         _______ _______ _______ _____ _____    ______ ____
ROOT
ATOM      1  C   UNL     1       7.673   7.868  17.823  0.00  0.00    +0.000 A 
ATOM      2  N   UNL     1       6.702   7.420  16.966  0.00  0.00    +0.000 NA
ATOM      3  C   UNL     1       6.346   6.203  17.128  0.00  0.00    +0.000 A 
ATOM      4  N   UNL     1       6.881   5.397  18.060  0.00  0.00    +0.000 N 
ATOM      5  C   UNL     1       7.855   5.858  18.878  0.00  0.00    +0.000 A 
ATOM      6  O   UNL     1       8.344   5.104  19.716  0.00  0.00    +0.000 OA
ATOM      7  N   UNL     1       8.238   7.151  18.727  0.00  0.00    +0.000 NA
ATOM      8  H   UNL     1       6.576   4.444  18.173  0.00  0.00    +0.000 HD
ENDROOT
BRANCH   1   9
ATOM      9  S   UNL     1       8.208   9.538  17.694  0.00  0.00    +0.000 S 
BRANCH   9  10
ATOM     10  C   UNL     1       9.094   9.693  19.259  0.00  0.00    +0.000 C 
BRANCH  10  13
ATOM     11  C   UNL     1      11.283  12.720  18.456  0.00  0.00    +0.000 A 
ATOM     12  C   UNL     1      10.676  11.463  18.376  0.00  0.00    +0.000 A 
ATOM     13  C   UNL     1       9.842  10.997  19.404  0.00  0.00    +0.000 A 
ATOM     14  C   UNL     1       9.673  11.800  20.542  0.00  0.00    +0.000 A 
ATOM     15  C   UNL     1      10.268  13.062  20.628  0.00  0.00    +0.000 A 
ATOM     16  C   UNL     1      11.071  13.520  19.582  0.00  0.00    +0.000 A 
BRANCH  11  18
ATOM     17  C   UNL     1      12.333  14.453  17.207  0.00  0.00    +0.000 C 
ATOM     18  O   UNL     1      12.037  13.068  17.365  0.00  0.00    +0.000 OA
ENDBRANCH  11  18
BRANCH  15  19
ATOM     19  O   UNL     1       9.971  13.762  21.767  0.00  0.00    +0.000 OA
ATOM     20  C   UNL     1      10.358  15.131  21.806  0.00  0.00    +0.000 C 
ENDBRANCH  15  19
ENDBRANCH  10  13
ENDBRANCH   9  10
ENDBRANCH   1   9
BRANCH   3  21
ATOM     21  S   UNL     1       5.086   5.413  16.242  0.00  0.00    +0.000 S 
BRANCH  21  22
ATOM     22  C   UNL     1       4.784   3.925  17.238  0.00  0.00    +0.000 C 
BRANCH  22  23
ATOM     23  C   UNL     1       3.656   4.163  18.217  0.00  0.00    +0.000 A 
ATOM     24  C   UNL     1       3.088   5.434  18.383  0.00  0.00    +0.000 A 
ATOM     25  C   UNL     1       2.084   5.649  19.333  0.00  0.00    +0.000 A 
ATOM     26  C   UNL     1       1.634   4.595  20.131  0.00  0.00    +0.000 A 
ATOM     27  C   UNL     1       2.185   3.327  19.973  0.00  0.00    +0.000 A 
ATOM     28  C   UNL     1       3.185   3.120  19.024  0.00  0.00    +0.000 A 
ATOM     29  F   UNL     1       3.707   1.892  18.897  0.00  0.00    +0.000 F 
ENDBRANCH  22  23
ENDBRANCH  21  22
ENDBRANCH   3  21
TORSDOF 8
ENDMDL
MODEL 4
REMARK VINA RESULT:      -7.7      0.991      1.057
REMARK  Name = 
REMARK  10 active torsions:
REMARK  status: ('A' for Active; 'I' for Inactive)
REMARK    1  A    between atoms: C_1  and  O_2
REMARK    2  A    between atoms: O_2  and  C_3
REMARK    3  A    between atoms: C_5  and  C_6
REMARK    4  A    between atoms: C_6  and  S_7
REMARK    5  A    between atoms: S_7  and  C_8
REMARK    6  A    between atoms: C_10  and  S_11
REMARK    7  A    between atoms: S_11  and  C_12
REMARK    8  A    between atoms: C_12  and  C_13
REMARK    9  A    between atoms: C_25  and  O_26
REMARK   10  A    between atoms: O_26  and  C_27
REMARK                            x       y       z     vdW  Elec       q    Type
REMARK                         _______ _______ _______ _____ _____    ______ ____
ROOT
ATOM      1  C   UNL     1       2.396   4.213  18.840  0.00  0.00    +0.000 A 
ATOM      2  N   UNL     1       2.205   5.569  18.770  0.00  0.00    +0.000 NA
ATOM      3  C   UNL     1       2.054   6.159  19.894  0.00  0.00    +0.000 A 
ATOM      4  N   UNL     1       2.066   5.515  21.073  0.00  0.00    +0.000 N 
ATOM      5  C   UNL     1       2.233   4.174  21.111  0.00  0.00    +0.000 A 
ATOM      6  O   UNL     1       2.228   3.598  22.196  0.00  0.00    +0.000 OA
ATOM      7  N   UNL     1       2.407   3.531  19.928  0.00  0.00    +0.000 NA
ATOM      8  H   UNL     1       1.953   6.007  21.944  0.00  0.00    +0.000 HD
ENDROOT
BRANCH   1   9
ATOM      9  S   UNL     1       2.641   3.317  17.346  0.00  0.00    +0.000 S 
BRANCH   9  10
ATOM     10  C   UNL     1       4.417   3.014  17.464  0.00  0.00    +0.000 C 
BRANCH  10  13
ATOM     11  C   UNL     1       6.929   5.466  15.956  0.00  0.00    +0.000 A 
ATOM     12  C   UNL     1       6.090   4.819  16.869  0.00  0.00    +0.000 A 
ATOM     13  C   UNL     1       5.231   3.790  16.456  0.00  0.00    +0.000 A 
ATOM     14  C   UNL     1       5.191   3.460  15.093  0.00  0.00    +0.000 A 
ATOM     15  C   UNL     1       6.031   4.094  14.173  0.00  0.00    +0.000 A 
ATOM     16  C   UNL     1       6.901   5.096  14.609  0.00  0.00    +0.000 A 
BRANCH  11  18
ATOM     17  C   UNL     1       7.161   7.298  17.456  0.00  0.00    +0.000 C 
ATOM     18  O   UNL     1       7.748   6.422  16.499  0.00  0.00    +0.000 OA
ENDBRANCH  11  18
BRANCH  15  19
ATOM     19  O   UNL     1       5.929   3.633  12.888  0.00  0.00    +0.000 OA
ATOM     20  C   UNL     1       7.032   3.878  12.022  0.00  0.00    +0.000 C 
ENDBRANCH  15  19
ENDBRANCH  10  13
ENDBRANCH   9  10
ENDBRANCH   1   9
BRANCH   3  21
ATOM     21  S   UNL     1       1.881   7.870  20.097  0.00  0.00    +0.000 S 
BRANCH  21  22
ATOM     22  C   UNL     1       0.862   7.982  21.596  0.00  0.00    +0.000 C 
BRANCH  22  23
ATOM     23  C   UNL     1       0.082   9.276  21.612  0.00  0.00    +0.000 A 
ATOM     24  C   UNL     1      -0.251   9.943  20.424  0.00  0.00    +0.000 A 
ATOM     25  C   UNL     1      -0.923  11.170  20.458  0.00  0.00    +0.000 A 
ATOM     26  C   UNL     1      -1.273  11.746  21.681  0.00  0.00    +0.000 A 
ATOM     27  C   UNL     1      -0.955  11.092  22.867  0.00  0.00    +0.000 A 
ATOM     28  C   UNL     1      -0.284   9.871  22.826  0.00  0.00    +0.000 A 
ATOM     29  F   UNL     1       0.020   9.264  23.982  0.00  0.00    +0.000 F 
ENDBRANCH  22  23
ENDBRANCH  21  22
ENDBRANCH   3  21
TORSDOF 8
ENDMDL
MODEL 5
REMARK VINA RESULT:      -7.6      5.061      7.764
REMARK  Name = 
REMARK  10 active torsions:
REMARK  status: ('A' for Active; 'I' for Inactive)
REMARK    1  A    between atoms: C_1  and  O_2
REMARK    2  A    between atoms: O_2  and  C_3
REMARK    3  A    between atoms: C_5  and  C_6
REMARK    4  A    between atoms: C_6  and  S_7
REMARK    5  A    between atoms: S_7  and  C_8
REMARK    6  A    between atoms: C_10  and  S_11
REMARK    7  A    between atoms: S_11  and  C_12
REMARK    8  A    between atoms: C_12  and  C_13
REMARK    9  A    between atoms: C_25  and  O_26
REMARK   10  A    between atoms: O_26  and  C_27
REMARK                            x       y       z     vdW  Elec       q    Type
REMARK                         _______ _______ _______ _____ _____    ______ ____
ROOT
ATOM      1  C   UNL     1       7.153   6.883  17.562  0.00  0.00    +0.000 A 
ATOM      2  N   UNL     1       5.868   6.797  18.031  0.00  0.00    +0.000 NA
ATOM      3  C   UNL     1       5.053   6.155  17.283  0.00  0.00    +0.000 A 
ATOM      4  N   UNL     1       5.407   5.604  16.110  0.00  0.00    +0.000 N 
ATOM      5  C   UNL     1       6.676   5.724  15.660  0.00  0.00    +0.000 A 
ATOM      6  O   UNL     1       6.981   5.226  14.579  0.00  0.00    +0.000 OA
ATOM      7  N   UNL     1       7.559   6.393  16.446  0.00  0.00    +0.000 NA
ATOM      8  H   UNL     1       4.747   5.096  15.545  0.00  0.00    +0.000 HD
ENDROOT
BRANCH   1   9
ATOM      9  S   UNL     1       8.353   7.724  18.535  0.00  0.00    +0.000 S 
BRANCH   9  10
ATOM     10  C   UNL     1       8.178   9.388  17.857  0.00  0.00    +0.000 C 
BRANCH  10  13
ATOM     11  C   UNL     1       9.940  11.550  20.469  0.00  0.00    +0.000 A 
ATOM     12  C   UNL     1       9.013  10.700  19.855  0.00  0.00    +0.000 A 
ATOM     13  C   UNL     1       9.106  10.398  18.488  0.00  0.00    +0.000 A 
ATOM     14  C   UNL     1      10.118  11.013  17.736  0.00  0.00    +0.000 A 
ATOM     15  C   UNL     1      11.055  11.856  18.341  0.00  0.00    +0.000 A 
ATOM     16  C   UNL     1      10.963  12.120  19.709  0.00  0.00    +0.000 A 
BRANCH  11  18
ATOM     17  C   UNL     1       8.702  12.593  22.212  0.00  0.00    +0.000 C 
ATOM     18  O   UNL     1       9.759  11.725  21.816  0.00  0.00    +0.000 OA
ENDBRANCH  11  18
BRANCH  15  19
ATOM     19  O   UNL     1      12.022  12.339  17.500  0.00  0.00    +0.000 OA
ATOM     20  C   UNL     1      11.856  13.667  17.015  0.00  0.00    +0.000 C 
ENDBRANCH  15  19
ENDBRANCH  10  13
ENDBRANCH   9  10
ENDBRANCH   1   9
BRANCH   3  21
ATOM     21  S   UNL     1       3.400   5.826  17.676  0.00  0.00    +0.000 S 
BRANCH  21  22
ATOM     22  C   UNL     1       3.369   4.012  17.737  0.00  0.00    +0.000 C 
BRANCH  22  23
ATOM     23  C   UNL     1       2.678   3.535  18.994  0.00  0.00    +0.000 A 
ATOM     24  C   UNL     1       1.287   3.640  19.148  0.00  0.00    +0.000 A 
ATOM     25  C   UNL     1       0.671   3.247  20.341  0.00  0.00    +0.000 A 
ATOM     26  C   UNL     1       1.434   2.743  21.395  0.00  0.00    +0.000 A 
ATOM     27  C   UNL     1       2.814   2.628  21.254  0.00  0.00    +0.000 A 
ATOM     28  C   UNL     1       3.422   3.022  20.063  0.00  0.00    +0.000 A 
ATOM     29  F   UNL     1       4.754   2.911  19.954  0.00  0.00    +0.000 F 
ENDBRANCH  22  23
ENDBRANCH  21  22
ENDBRANCH   3  21
TORSDOF 8
ENDMDL
MODEL 6
REMARK VINA RESULT:      -7.6      5.742      8.317
REMARK  Name = 
REMARK  10 active torsions:
REMARK  status: ('A' for Active; 'I' for Inactive)
REMARK    1  A    between atoms: C_1  and  O_2
REMARK    2  A    between atoms: O_2  and  C_3
REMARK    3  A    between atoms: C_5  and  C_6
REMARK    4  A    between atoms: C_6  and  S_7
REMARK    5  A    between atoms: S_7  and  C_8
REMARK    6  A    between atoms: C_10  and  S_11
REMARK    7  A    between atoms: S_11  and  C_12
REMARK    8  A    between atoms: C_12  and  C_13
REMARK    9  A    between atoms: C_25  and  O_26
REMARK   10  A    between atoms: O_26  and  C_27
REMARK                            x       y       z     vdW  Elec       q    Type
REMARK                         _______ _______ _______ _____ _____    ______ ____
ROOT
ATOM      1  C   UNL     1       7.536   7.746  17.872  0.00  0.00    +0.000 A 
ATOM      2  N   UNL     1       6.379   7.355  17.252  0.00  0.00    +0.000 NA
ATOM      3  C   UNL     1       5.943   6.199  17.585  0.00  0.00    +0.000 A 
ATOM      4  N   UNL     1       6.566   5.403  18.470  0.00  0.00    +0.000 N 
ATOM      5  C   UNL     1       7.720   5.805  19.049  0.00  0.00    +0.000 A 
ATOM      6  O   UNL     1       8.285   5.060  19.845  0.00  0.00    +0.000 OA
ATOM      7  N   UNL     1       8.192   7.034  18.716  0.00  0.00    +0.000 NA
ATOM      8  H   UNL     1       6.196   4.501  18.721  0.00  0.00    +0.000 HD
ENDROOT
BRANCH   1   9
ATOM      9  S   UNL     1       8.199   9.332  17.498  0.00  0.00    +0.000 S 
BRANCH   9  10
ATOM     10  C   UNL     1       9.051   9.677  19.052  0.00  0.00    +0.000 C 
BRANCH  10  13
ATOM     11  C   UNL     1      10.090  13.052  20.513  0.00  0.00    +0.000 A 
ATOM     12  C   UNL     1       9.516  11.783  20.379  0.00  0.00    +0.000 A 
ATOM     13  C   UNL     1       9.564  11.093  19.159  0.00  0.00    +0.000 A 
ATOM     14  C   UNL     1      10.154  11.729  18.056  0.00  0.00    +0.000 A 
ATOM     15  C   UNL     1      10.739  12.993  18.180  0.00  0.00    +0.000 A 
ATOM     16  C   UNL     1      10.706  13.650  19.411  0.00  0.00    +0.000 A 
BRANCH  11  18
ATOM     17  C   UNL     1      10.161  15.006  21.868  0.00  0.00    +0.000 C 
ATOM     18  O   UNL     1      10.010  13.593  21.769  0.00  0.00    +0.000 OA
ENDBRANCH  11  18
BRANCH  15  19
ATOM     19  O   UNL     1      11.330  13.468  17.040  0.00  0.00    +0.000 OA
ATOM     20  C   UNL     1      11.461  14.880  16.918  0.00  0.00    +0.000 C 
ENDBRANCH  15  19
ENDBRANCH  10  13
ENDBRANCH   9  10
ENDBRANCH   1   9
BRANCH   3  21
ATOM     21  S   UNL     1       4.464   5.499  17.021  0.00  0.00    +0.000 S 
BRANCH  21  22
ATOM     22  C   UNL     1       4.593   3.787  17.612  0.00  0.00    +0.000 C 
BRANCH  22  23
ATOM     23  C   UNL     1       3.510   3.492  18.623  0.00  0.00    +0.000 A 
ATOM     24  C   UNL     1       3.820   3.116  19.939  0.00  0.00    +0.000 A 
ATOM     25  C   UNL     1       2.806   2.791  20.846  0.00  0.00    +0.000 A 
ATOM     26  C   UNL     1       1.468   2.836  20.451  0.00  0.00    +0.000 A 
ATOM     27  C   UNL     1       1.145   3.212  19.151  0.00  0.00    +0.000 A 
ATOM     28  C   UNL     1       2.160   3.535  18.252  0.00  0.00    +0.000 A 
ATOM     29  F   UNL     1       1.825   3.885  17.002  0.00  0.00    +0.000 F 
ENDBRANCH  22  23
ENDBRANCH  21  22
ENDBRANCH   3  21
TORSDOF 8
ENDMDL
MODEL 7
REMARK VINA RESULT:      -7.6      3.490      8.627
REMARK  Name = 
REMARK  10 active torsions:
REMARK  status: ('A' for Active; 'I' for Inactive)
REMARK    1  A    between atoms: C_1  and  O_2
REMARK    2  A    between atoms: O_2  and  C_3
REMARK    3  A    between atoms: C_5  and  C_6
REMARK    4  A    between atoms: C_6  and  S_7
REMARK    5  A    between atoms: S_7  and  C_8
REMARK    6  A    between atoms: C_10  and  S_11
REMARK    7  A    between atoms: S_11  and  C_12
REMARK    8  A    between atoms: C_12  and  C_13
REMARK    9  A    between atoms: C_25  and  O_26
REMARK   10  A    between atoms: O_26  and  C_27
REMARK                            x       y       z     vdW  Elec       q    Type
REMARK                         _______ _______ _______ _____ _____    ______ ____
ROOT
ATOM      1  C   UNL     1       3.503   4.785  18.728  0.00  0.00    +0.000 A 
ATOM      2  N   UNL     1       4.590   5.197  18.002  0.00  0.00    +0.000 NA
ATOM      3  C   UNL     1       5.645   4.489  18.145  0.00  0.00    +0.000 A 
ATOM      4  N   UNL     1       5.710   3.419  18.954  0.00  0.00    +0.000 N 
ATOM      5  C   UNL     1       4.630   3.048  19.677  0.00  0.00    +0.000 A 
ATOM      6  O   UNL     1       4.709   2.075  20.423  0.00  0.00    +0.000 OA
ATOM      7  N   UNL     1       3.496   3.781  19.530  0.00  0.00    +0.000 NA
ATOM      8  H   UNL     1       6.552   2.873  19.041  0.00  0.00    +0.000 HD
ENDROOT
BRANCH   1   9
ATOM      9  S   UNL     1       1.997   5.681  18.576  0.00  0.00    +0.000 S 
BRANCH   9  10
ATOM     10  C   UNL     1       2.653   7.360  18.479  0.00  0.00    +0.000 C 
BRANCH  10  13
ATOM     11  C   UNL     1       1.025   9.411  21.262  0.00  0.00    +0.000 A 
ATOM     12  C   UNL     1       1.721   8.399  20.592  0.00  0.00    +0.000 A 
ATOM     13  C   UNL     1       1.802   8.384  19.191  0.00  0.00    +0.000 A 
ATOM     14  C   UNL     1       1.121   9.378  18.473  0.00  0.00    +0.000 A 
ATOM     15  C   UNL     1       0.430  10.399  19.132  0.00  0.00    +0.000 A 
ATOM     16  C   UNL     1       0.387  10.413  20.528  0.00  0.00    +0.000 A 
BRANCH  11  18
ATOM     17  C   UNL     1      -0.167   9.547  23.317  0.00  0.00    +0.000 C 
ATOM     18  O   UNL     1       1.062   9.329  22.630  0.00  0.00    +0.000 OA
ENDBRANCH  11  18
BRANCH  15  19
ATOM     19  O   UNL     1      -0.137  11.335  18.310  0.00  0.00    +0.000 OA
ATOM     20  C   UNL     1      -1.540  11.539  18.430  0.00  0.00    +0.000 C 
ENDBRANCH  15  19
ENDBRANCH  10  13
ENDBRANCH   9  10
ENDBRANCH   1   9
BRANCH   3  21
ATOM     21  S   UNL     1       7.127   4.736  17.285  0.00  0.00    +0.000 S 
BRANCH  21  22
ATOM     22  C   UNL     1       6.607   5.815  15.920  0.00  0.00    +0.000 C 
BRANCH  22  23
ATOM     23  C   UNL     1       6.625   5.060  14.610  0.00  0.00    +0.000 A 
ATOM     24  C   UNL     1       7.640   5.264  13.663  0.00  0.00    +0.000 A 
ATOM     25  C   UNL     1       7.611   4.599  12.433  0.00  0.00    +0.000 A 
ATOM     26  C   UNL     1       6.568   3.721  12.131  0.00  0.00    +0.000 A 
ATOM     27  C   UNL     1       5.558   3.504  13.064  0.00  0.00    +0.000 A 
ATOM     28  C   UNL     1       5.593   4.171  14.288  0.00  0.00    +0.000 A 
ATOM     29  F   UNL     1       4.604   3.953  15.167  0.00  0.00    +0.000 F 
ENDBRANCH  22  23
ENDBRANCH  21  22
ENDBRANCH   3  21
TORSDOF 8
ENDMDL
MODEL 8
REMARK VINA RESULT:      -7.6      3.557      8.701
REMARK  Name = 
REMARK  10 active torsions:
REMARK  status: ('A' for Active; 'I' for Inactive)
REMARK    1  A    between atoms: C_1  and  O_2
REMARK    2  A    between atoms: O_2  and  C_3
REMARK    3  A    between atoms: C_5  and  C_6
REMARK    4  A    between atoms: C_6  and  S_7
REMARK    5  A    between atoms: S_7  and  C_8
REMARK    6  A    between atoms: C_10  and  S_11
REMARK    7  A    between atoms: S_11  and  C_12
REMARK    8  A    between atoms: C_12  and  C_13
REMARK    9  A    between atoms: C_25  and  O_26
REMARK   10  A    between atoms: O_26  and  C_27
REMARK                            x       y       z     vdW  Elec       q    Type
REMARK                         _______ _______ _______ _____ _____    ______ ____
ROOT
ATOM      1  C   UNL     1       3.489   4.750  18.705  0.00  0.00    +0.000 A 
ATOM      2  N   UNL     1       4.575   5.169  17.982  0.00  0.00    +0.000 NA
ATOM      3  C   UNL     1       5.637   4.472  18.134  0.00  0.00    +0.000 A 
ATOM      4  N   UNL     1       5.708   3.407  18.949  0.00  0.00    +0.000 N 
ATOM      5  C   UNL     1       4.627   3.030  19.669  0.00  0.00    +0.000 A 
ATOM      6  O   UNL     1       4.713   2.061  20.420  0.00  0.00    +0.000 OA
ATOM      7  N   UNL     1       3.488   3.751  19.512  0.00  0.00    +0.000 NA
ATOM      8  H   UNL     1       6.555   2.870  19.043  0.00  0.00    +0.000 HD
ENDROOT
BRANCH   1   9
ATOM      9  S   UNL     1       1.975   5.631  18.540  0.00  0.00    +0.000 S 
BRANCH   9  10
ATOM     10  C   UNL     1       2.621   7.269  18.141  0.00  0.00    +0.000 C 
BRANCH  10  13
ATOM     11  C   UNL     1       1.154  10.646  19.163  0.00  0.00    +0.000 A 
ATOM     12  C   UNL     1       1.811   9.651  18.432  0.00  0.00    +0.000 A 
ATOM     13  C   UNL     1       2.021   8.375  18.977  0.00  0.00    +0.000 A 
ATOM     14  C   UNL     1       1.606   8.135  20.295  0.00  0.00    +0.000 A 
ATOM     15  C   UNL     1       0.941   9.120  21.032  0.00  0.00    +0.000 A 
ATOM     16  C   UNL     1       0.715  10.374  20.461  0.00  0.00    +0.000 A 
BRANCH  11  18
ATOM     17  C   UNL     1       2.153  12.580  18.201  0.00  0.00    +0.000 C 
ATOM     18  O   UNL     1       0.978  11.831  18.497  0.00  0.00    +0.000 OA
ENDBRANCH  11  18
BRANCH  15  19
ATOM     19  O   UNL     1       0.540   8.731  22.282  0.00  0.00    +0.000 OA
ATOM     20  C   UNL     1      -0.338   9.606  22.982  0.00  0.00    +0.000 C 
ENDBRANCH  15  19
ENDBRANCH  10  13
ENDBRANCH   9  10
ENDBRANCH   1   9
BRANCH   3  21
ATOM     21  S   UNL     1       7.120   4.729  17.280  0.00  0.00    +0.000 S 
BRANCH  21  22
ATOM     22  C   UNL     1       6.601   5.814  15.919  0.00  0.00    +0.000 C 
BRANCH  22  23
ATOM     23  C   UNL     1       6.638   5.069  14.604  0.00  0.00    +0.000 A 
ATOM     24  C   UNL     1       7.656   5.294  13.665  0.00  0.00    +0.000 A 
ATOM     25  C   UNL     1       7.644   4.639  12.429  0.00  0.00    +0.000 A 
ATOM     26  C   UNL     1       6.614   3.751  12.114  0.00  0.00    +0.000 A 
ATOM     27  C   UNL     1       5.601   3.513  13.038  0.00  0.00    +0.000 A 
ATOM     28  C   UNL     1       5.619   4.170  14.267  0.00  0.00    +0.000 A 
ATOM     29  F   UNL     1       4.627   3.933  15.137  0.00  0.00    +0.000 F 
ENDBRANCH  22  23
ENDBRANCH  21  22
ENDBRANCH   3  21
TORSDOF 8
ENDMDL
MODEL 9
REMARK VINA RESULT:      -7.5      3.889      9.463
REMARK  Name = 
REMARK  10 active torsions:
REMARK  status: ('A' for Active; 'I' for Inactive)
REMARK    1  A    between atoms: C_1  and  O_2
REMARK    2  A    between atoms: O_2  and  C_3
REMARK    3  A    between atoms: C_5  and  C_6
REMARK    4  A    between atoms: C_6  and  S_7
REMARK    5  A    between atoms: S_7  and  C_8
REMARK    6  A    between atoms: C_10  and  S_11
REMARK    7  A    between atoms: S_11  and  C_12
REMARK    8  A    between atoms: C_12  and  C_13
REMARK    9  A    between atoms: C_25  and  O_26
REMARK   10  A    between atoms: O_26  and  C_27
REMARK                            x       y       z     vdW  Elec       q    Type
REMARK                         _______ _______ _______ _____ _____    ______ ____
ROOT
ATOM      1  C   UNL     1       3.924   5.902  18.421  0.00  0.00    +0.000 A 
ATOM      2  N   UNL     1       5.081   5.865  17.688  0.00  0.00    +0.000 NA
ATOM      3  C   UNL     1       5.802   4.822  17.854  0.00  0.00    +0.000 A 
ATOM      4  N   UNL     1       5.473   3.825  18.692  0.00  0.00    +0.000 N 
ATOM      5  C   UNL     1       4.337   3.898  19.421  0.00  0.00    +0.000 A 
ATOM      6  O   UNL     1       4.057   2.985  20.193  0.00  0.00    +0.000 OA
ATOM      7  N   UNL     1       3.553   4.993  19.250  0.00  0.00    +0.000 NA
ATOM      8  H   UNL     1       6.055   3.010  18.797  0.00  0.00    +0.000 HD
ENDROOT
BRANCH   1   9
ATOM      9  S   UNL     1       2.853   7.286  18.239  0.00  0.00    +0.000 S 
BRANCH   9  10
ATOM     10  C   UNL     1       2.190   7.377  19.916  0.00  0.00    +0.000 C 
BRANCH  10  13
ATOM     11  C   UNL     1      -0.189  10.290  19.244  0.00  0.00    +0.000 A 
ATOM     12  C   UNL     1       0.752   9.274  19.051  0.00  0.00    +0.000 A 
ATOM     13  C   UNL     1       1.268   8.551  20.138  0.00  0.00    +0.000 A 
ATOM     14  C   UNL     1       0.859   8.910  21.432  0.00  0.00    +0.000 A 
ATOM     15  C   UNL     1      -0.088   9.918  21.635  0.00  0.00    +0.000 A 
ATOM     16  C   UNL     1      -0.611  10.605  20.538  0.00  0.00    +0.000 A 
BRANCH  11  18
ATOM     17  C   UNL     1      -1.733  10.252  17.434  0.00  0.00    +0.000 C 
ATOM     18  O   UNL     1      -0.641  10.884  18.095  0.00  0.00    +0.000 OA
ENDBRANCH  11  18
BRANCH  15  19
ATOM     19  O   UNL     1      -0.439  10.123  22.943  0.00  0.00    +0.000 OA
ATOM     20  C   UNL     1      -1.378  11.159  23.207  0.00  0.00    +0.000 C 
ENDBRANCH  15  19
ENDBRANCH  10  13
ENDBRANCH   9  10
ENDBRANCH   1   9
BRANCH   3  21
ATOM     21  S   UNL     1       7.264   4.483  16.992  0.00  0.00    +0.000 S 
BRANCH  21  22
ATOM     22  C   UNL     1       7.174   5.647  15.601  0.00  0.00    +0.000 C 
BRANCH  22  23
ATOM     23  C   UNL     1       6.790   4.926  14.330  0.00  0.00    +0.000 A 
ATOM     24  C   UNL     1       5.632   4.137  14.258  0.00  0.00    +0.000 A 
ATOM     25  C   UNL     1       5.322   3.431  13.091  0.00  0.00    +0.000 A 
ATOM     26  C   UNL     1       6.164   3.502  11.980  0.00  0.00    +0.000 A 
ATOM     27  C   UNL     1       7.312   4.286  12.035  0.00  0.00    +0.000 A 
ATOM     28  C   UNL     1       7.616   4.987  13.201  0.00  0.00    +0.000 A 
ATOM     29  F   UNL     1       8.734   5.727  13.233  0.00  0.00    +0.000 F 
ENDBRANCH  22  23
ENDBRANCH  21  22
ENDBRANCH   3  21
TORSDOF 8
ENDMDL
