MODEL 1
REMARK VINA RESULT:      -7.5      0.000      0.000
REMARK  Name = 
REMARK  3 active torsions:
REMARK  status: ('A' for Active; 'I' for Inactive)
REMARK    1  A    between atoms: C_4  and  C_5
REMARK    2  A    between atoms: C_8  and  O_9
REMARK    3  A    between atoms: O_9  and  C_10
REMARK                            x       y       z     vdW  Elec       q    Type
REMARK                         _______ _______ _______ _____ _____    ______ ____
ROOT
ATOM      1  C   UNL     1       5.070   5.381  18.062  0.00  0.00    +0.000 A 
ATOM      2  C   UNL     1       4.656   5.526  19.392  0.00  0.00    +0.000 A 
ATOM      3  C   UNL     1       3.381   5.111  19.787  0.00  0.00    +0.000 A 
ATOM      4  C   UNL     1       2.495   4.548  18.866  0.00  0.00    +0.000 A 
ATOM      5  C   UNL     1       2.915   4.354  17.554  0.00  0.00    +0.000 A 
ATOM      6  C   UNL     1       4.187   4.781  17.153  0.00  0.00    +0.000 A 
ENDROOT
BRANCH   1  10
ATOM      7  N   UNL     1       7.478   5.248  14.303  0.00  0.00    +0.000 N 
ATOM      8  C   UNL     1       7.203   5.339  15.613  0.00  0.00    +0.000 C 
ATOM      9  N   UNL     1       6.450   6.216  16.183  0.00  0.00    +0.000 NA
ATOM     10  C   UNL     1       6.451   5.816  17.606  0.00  0.00    +0.000 C 
ATOM     11  C   UNL     1       7.515   4.729  17.701  0.00  0.00    +0.000 C 
ATOM     12  O   UNL     1       7.779   4.360  16.353  0.00  0.00    +0.000 OA
ATOM     13  H   UNL     1       6.812   5.733  13.719  0.00  0.00    +0.000 HD
ATOM     14  H   UNL     1       7.729   4.322  13.987  0.00  0.00    +0.000 HD
ENDBRANCH   1  10
BRANCH   4  15
ATOM     15  O   UNL     1       1.293   4.184  19.392  0.00  0.00    +0.000 OA
BRANCH  15  16
ATOM     16  C   UNL     1       1.088   2.848  19.830  0.00  0.00    +0.000 C 
ATOM     17  F   UNL     1       0.744   2.733  21.129  0.00  0.00    +0.000 F 
ATOM     18  F   UNL     1       0.133   2.269  19.072  0.00  0.00    +0.000 F 
ATOM     19  F   UNL     1       2.240   2.161  19.649  0.00  0.00    +0.000 F 
ENDBRANCH  15  16
ENDBRANCH   4  15
TORSDOF 3
ENDMDL
MODEL 2
REMARK VINA RESULT:      -7.3      4.403      6.329
REMARK  Name = 
REMARK  3 active torsions:
REMARK  status: ('A' for Active; 'I' for Inactive)
REMARK    1  A    between atoms: C_4  and  C_5
REMARK    2  A    between atoms: C_8  and  O_9
REMARK    3  A    between atoms: O_9  and  C_10
REMARK                            x       y       z     vdW  Elec       q    Type
REMARK                         _______ _______ _______ _____ _____    ______ ____
ROOT
ATOM      1  C   UNL     1       2.502   4.786  18.170  0.00  0.00    +0.000 A 
ATOM      2  C   UNL     1       2.597   6.175  18.331  0.00  0.00    +0.000 A 
ATOM      3  C   UNL     1       3.683   6.878  17.805  0.00  0.00    +0.000 A 
ATOM      4  C   UNL     1       4.698   6.213  17.112  0.00  0.00    +0.000 A 
ATOM      5  C   UNL     1       4.588   4.842  16.903  0.00  0.00    +0.000 A 
ATOM      6  C   UNL     1       3.506   4.133  17.442  0.00  0.00    +0.000 A 
ENDROOT
BRANCH   1  10
ATOM      7  N   UNL     1       1.488   2.642  21.953  0.00  0.00    +0.000 N 
ATOM      8  C   UNL     1       1.439   2.992  20.659  0.00  0.00    +0.000 C 
ATOM      9  N   UNL     1       1.207   4.168  20.188  0.00  0.00    +0.000 NA
ATOM     10  C   UNL     1       1.330   3.998  18.725  0.00  0.00    +0.000 C 
ATOM     11  C   UNL     1       1.434   2.491  18.519  0.00  0.00    +0.000 C 
ATOM     12  O   UNL     1       1.702   1.966  19.814  0.00  0.00    +0.000 OA
ATOM     13  H   UNL     1       1.634   3.424  22.574  0.00  0.00    +0.000 HD
ATOM     14  H   UNL     1       2.054   1.828  22.150  0.00  0.00    +0.000 HD
ENDBRANCH   1  10
BRANCH   4  15
ATOM     15  O   UNL     1       5.688   7.024  16.649  0.00  0.00    +0.000 OA
BRANCH  15  16
ATOM     16  C   UNL     1       6.999   6.915  17.183  0.00  0.00    +0.000 C 
ATOM     17  F   UNL     1       7.706   8.064  17.170  0.00  0.00    +0.000 F 
ATOM     18  F   UNL     1       6.930   6.459  18.452  0.00  0.00    +0.000 F 
ATOM     19  F   UNL     1       7.682   6.006  16.449  0.00  0.00    +0.000 F 
ENDBRANCH  15  16
ENDBRANCH   4  15
TORSDOF 3
ENDMDL
MODEL 3
REMARK VINA RESULT:      -7.3      4.347      6.371
REMARK  Name = 
REMARK  3 active torsions:
REMARK  status: ('A' for Active; 'I' for Inactive)
REMARK    1  A    between atoms: C_4  and  C_5
REMARK    2  A    between atoms: C_8  and  O_9
REMARK    3  A    between atoms: O_9  and  C_10
REMARK                            x       y       z     vdW  Elec       q    Type
REMARK                         _______ _______ _______ _____ _____    ______ ____
ROOT
ATOM      1  C   UNL     1       2.524   4.696  18.075  0.00  0.00    +0.000 A 
ATOM      2  C   UNL     1       3.555   4.051  17.380  0.00  0.00    +0.000 A 
ATOM      3  C   UNL     1       4.640   4.779  16.885  0.00  0.00    +0.000 A 
ATOM      4  C   UNL     1       4.717   6.162  17.068  0.00  0.00    +0.000 A 
ATOM      5  C   UNL     1       3.723   6.804  17.800  0.00  0.00    +0.000 A 
ATOM      6  C   UNL     1       2.628   6.078  18.286  0.00  0.00    +0.000 A 
ENDROOT
BRANCH   1  10
ATOM      7  N   UNL     1       1.424   2.668  21.899  0.00  0.00    +0.000 N 
ATOM      8  C   UNL     1       1.403   2.980  20.595  0.00  0.00    +0.000 C 
ATOM      9  N   UNL     1       1.186   4.143  20.085  0.00  0.00    +0.000 NA
ATOM     10  C   UNL     1       1.337   3.929  18.630  0.00  0.00    +0.000 C 
ATOM     11  C   UNL     1       1.437   2.417  18.471  0.00  0.00    +0.000 C 
ATOM     12  O   UNL     1       1.677   1.929  19.785  0.00  0.00    +0.000 OA
ATOM     13  H   UNL     1       1.562   3.468  22.500  0.00  0.00    +0.000 HD
ATOM     14  H   UNL     1       1.982   1.859  22.131  0.00  0.00    +0.000 HD
ENDBRANCH   1  10
BRANCH   4  15
ATOM     15  O   UNL     1       5.831   6.738  16.540  0.00  0.00    +0.000 OA
BRANCH  15  16
ATOM     16  C   UNL     1       7.093   6.540  17.162  0.00  0.00    +0.000 C 
ATOM     17  F   UNL     1       7.742   5.427  16.765  0.00  0.00    +0.000 F 
ATOM     18  F   UNL     1       7.880   7.612  16.930  0.00  0.00    +0.000 F 
ATOM     19  F   UNL     1       6.897   6.446  18.498  0.00  0.00    +0.000 F 
ENDBRANCH  15  16
ENDBRANCH   4  15
TORSDOF 3
ENDMDL
MODEL 4
REMARK VINA RESULT:      -7.3      1.499      2.235
REMARK  Name = 
REMARK  3 active torsions:
REMARK  status: ('A' for Active; 'I' for Inactive)
REMARK    1  A    between atoms: C_4  and  C_5
REMARK    2  A    between atoms: C_8  and  O_9
REMARK    3  A    between atoms: O_9  and  C_10
REMARK                            x       y       z     vdW  Elec       q    Type
REMARK                         _______ _______ _______ _____ _____    ______ ____
ROOT
ATOM      1  C   UNL     1       5.471   4.673  18.031  0.00  0.00    +0.000 A 
ATOM      2  C   UNL     1       4.700   4.096  17.013  0.00  0.00    +0.000 A 
ATOM      3  C   UNL     1       3.350   3.805  17.224  0.00  0.00    +0.000 A 
ATOM      4  C   UNL     1       2.742   4.078  18.451  0.00  0.00    +0.000 A 
ATOM      5  C   UNL     1       3.486   4.695  19.452  0.00  0.00    +0.000 A 
ATOM      6  C   UNL     1       4.843   4.976  19.247  0.00  0.00    +0.000 A 
ENDROOT
BRANCH   1  10
ATOM      7  N   UNL     1       7.989   8.348  17.728  0.00  0.00    +0.000 N 
ATOM      8  C   UNL     1       7.622   7.065  17.591  0.00  0.00    +0.000 C 
ATOM      9  N   UNL     1       7.314   6.247  18.537  0.00  0.00    +0.000 NA
ATOM     10  C   UNL     1       6.938   5.006  17.828  0.00  0.00    +0.000 C 
ATOM     11  C   UNL     1       7.329   5.257  16.376  0.00  0.00    +0.000 C 
ATOM     12  O   UNL     1       7.557   6.659  16.299  0.00  0.00    +0.000 OA
ATOM     13  H   UNL     1       7.718   8.749  18.614  0.00  0.00    +0.000 HD
ATOM     14  H   UNL     1       7.805   8.929  16.922  0.00  0.00    +0.000 HD
ENDBRANCH   1  10
BRANCH   4  15
ATOM     15  O   UNL     1       1.423   3.750  18.512  0.00  0.00    +0.000 OA
BRANCH  15  16
ATOM     16  C   UNL     1       1.009   2.618  19.263  0.00  0.00    +0.000 C 
ATOM     17  F   UNL     1       1.968   1.689  19.448  0.00  0.00    +0.000 F 
ATOM     18  F   UNL     1       0.554   3.022  20.468  0.00  0.00    +0.000 F 
ATOM     19  F   UNL     1      -0.015   2.024  18.607  0.00  0.00    +0.000 F 
ENDBRANCH  15  16
ENDBRANCH   4  15
TORSDOF 3
ENDMDL
MODEL 5
REMARK VINA RESULT:      -7.3      1.578      1.852
REMARK  Name = 
REMARK  3 active torsions:
REMARK  status: ('A' for Active; 'I' for Inactive)
REMARK    1  A    between atoms: C_4  and  C_5
REMARK    2  A    between atoms: C_8  and  O_9
REMARK    3  A    between atoms: O_9  and  C_10
REMARK                            x       y       z     vdW  Elec       q    Type
REMARK                         _______ _______ _______ _____ _____    ______ ____
ROOT
ATOM      1  C   UNL     1       4.338   5.562  17.618  0.00  0.00    +0.000 A 
ATOM      2  C   UNL     1       4.888   4.412  18.200  0.00  0.00    +0.000 A 
ATOM      3  C   UNL     1       4.093   3.558  18.969  0.00  0.00    +0.000 A 
ATOM      4  C   UNL     1       2.739   3.833  19.175  0.00  0.00    +0.000 A 
ATOM      5  C   UNL     1       2.173   4.945  18.561  0.00  0.00    +0.000 A 
ATOM      6  C   UNL     1       2.971   5.810  17.800  0.00  0.00    +0.000 A 
ENDROOT
BRANCH   1  10
ATOM      7  N   UNL     1       7.483   5.224  14.465  0.00  0.00    +0.000 N 
ATOM      8  C   UNL     1       6.743   5.765  15.443  0.00  0.00    +0.000 C 
ATOM      9  N   UNL     1       5.464   5.927  15.442  0.00  0.00    +0.000 NA
ATOM     10  C   UNL     1       5.176   6.504  16.772  0.00  0.00    +0.000 C 
ATOM     11  C   UNL     1       6.546   6.824  17.359  0.00  0.00    +0.000 C 
ATOM     12  O   UNL     1       7.468   6.128  16.530  0.00  0.00    +0.000 OA
ATOM     13  H   UNL     1       6.947   4.656  13.825  0.00  0.00    +0.000 HD
ATOM     14  H   UNL     1       8.355   4.816  14.771  0.00  0.00    +0.000 HD
ENDBRANCH   1  10
BRANCH   4  15
ATOM     15  O   UNL     1       2.087   2.912  19.937  0.00  0.00    +0.000 OA
BRANCH  15  16
ATOM     16  C   UNL     1       2.108   3.022  21.353  0.00  0.00    +0.000 C 
ATOM     17  F   UNL     1       0.967   2.638  21.960  0.00  0.00    +0.000 F 
ATOM     18  F   UNL     1       3.132   2.293  21.844  0.00  0.00    +0.000 F 
ATOM     19  F   UNL     1       2.326   4.318  21.674  0.00  0.00    +0.000 F 
ENDBRANCH  15  16
ENDBRANCH   4  15
TORSDOF 3
ENDMDL
MODEL 6
REMARK VINA RESULT:      -7.3      1.614      1.843
REMARK  Name = 
REMARK  3 active torsions:
REMARK  status: ('A' for Active; 'I' for Inactive)
REMARK    1  A    between atoms: C_4  and  C_5
REMARK    2  A    between atoms: C_8  and  O_9
REMARK    3  A    between atoms: O_9  and  C_10
REMARK                            x       y       z     vdW  Elec       q    Type
REMARK                         _______ _______ _______ _____ _____    ______ ____
ROOT
ATOM      1  C   UNL     1       4.644   4.649  17.387  0.00  0.00    +0.000 A 
ATOM      2  C   UNL     1       5.231   4.242  18.592  0.00  0.00    +0.000 A 
ATOM      3  C   UNL     1       4.481   3.558  19.552  0.00  0.00    +0.000 A 
ATOM      4  C   UNL     1       3.132   3.269  19.333  0.00  0.00    +0.000 A 
ATOM      5  C   UNL     1       2.552   3.626  18.119  0.00  0.00    +0.000 A 
ATOM      6  C   UNL     1       3.299   4.323  17.161  0.00  0.00    +0.000 A 
ENDROOT
BRANCH   1  10
ATOM      7  N   UNL     1       6.638   3.674  13.512  0.00  0.00    +0.000 N 
ATOM      8  C   UNL     1       6.349   4.339  14.640  0.00  0.00    +0.000 C 
ATOM      9  N   UNL     1       5.202   4.817  14.980  0.00  0.00    +0.000 NA
ATOM     10  C   UNL     1       5.437   5.387  16.324  0.00  0.00    +0.000 C 
ATOM     11  C   UNL     1       6.948   5.325  16.511  0.00  0.00    +0.000 C 
ATOM     12  O   UNL     1       7.406   4.457  15.481  0.00  0.00    +0.000 OA
ATOM     13  H   UNL     1       5.824   3.288  13.055  0.00  0.00    +0.000 HD
ATOM     14  H   UNL     1       7.426   3.045  13.582  0.00  0.00    +0.000 HD
ENDBRANCH   1  10
BRANCH   4  15
ATOM     15  O   UNL     1       2.529   2.593  20.348  0.00  0.00    +0.000 OA
BRANCH  15  16
ATOM     16  C   UNL     1       1.645   3.275  21.226  0.00  0.00    +0.000 C 
ATOM     17  F   UNL     1       0.615   3.892  20.613  0.00  0.00    +0.000 F 
ATOM     18  F   UNL     1       1.154   2.404  22.134  0.00  0.00    +0.000 F 
ATOM     19  F   UNL     1       2.351   4.218  21.891  0.00  0.00    +0.000 F 
ENDBRANCH  15  16
ENDBRANCH   4  15
TORSDOF 3
ENDMDL
MODEL 7
REMARK VINA RESULT:      -7.3      1.498      1.919
REMARK  Name = 
REMARK  3 active torsions:
REMARK  status: ('A' for Active; 'I' for Inactive)
REMARK    1  A    between atoms: C_4  and  C_5
REMARK    2  A    between atoms: C_8  and  O_9
REMARK    3  A    between atoms: O_9  and  C_10
REMARK                            x       y       z     vdW  Elec       q    Type
REMARK                         _______ _______ _______ _____ _____    ______ ____
ROOT
ATOM      1  C   UNL     1       5.458   4.724  18.040  0.00  0.00    +0.000 A 
ATOM      2  C   UNL     1       4.782   5.062  19.220  0.00  0.00    +0.000 A 
ATOM      3  C   UNL     1       3.429   4.752  19.375  0.00  0.00    +0.000 A 
ATOM      4  C   UNL     1       2.722   4.104  18.360  0.00  0.00    +0.000 A 
ATOM      5  C   UNL     1       3.396   3.720  17.205  0.00  0.00    +0.000 A 
ATOM      6  C   UNL     1       4.750   4.041  17.041  0.00  0.00    +0.000 A 
ENDROOT
BRANCH   1  10
ATOM      7  N   UNL     1       8.016   8.373  17.753  0.00  0.00    +0.000 N 
ATOM      8  C   UNL     1       7.637   7.094  17.613  0.00  0.00    +0.000 C 
ATOM      9  N   UNL     1       7.314   6.279  18.558  0.00  0.00    +0.000 NA
ATOM     10  C   UNL     1       6.930   5.042  17.846  0.00  0.00    +0.000 C 
ATOM     11  C   UNL     1       7.333   5.290  16.397  0.00  0.00    +0.000 C 
ATOM     12  O   UNL     1       7.576   6.689  16.321  0.00  0.00    +0.000 OA
ATOM     13  H   UNL     1       7.744   8.778  18.638  0.00  0.00    +0.000 HD
ATOM     14  H   UNL     1       7.843   8.956  16.946  0.00  0.00    +0.000 HD
ENDBRANCH   1  10
BRANCH   4  15
ATOM     15  O   UNL     1       1.415   3.858  18.652  0.00  0.00    +0.000 OA
BRANCH  15  16
ATOM     16  C   UNL     1       1.053   2.657  19.317  0.00  0.00    +0.000 C 
ATOM     17  F   UNL     1       2.047   1.751  19.417  0.00  0.00    +0.000 F 
ATOM     18  F   UNL     1       0.602   2.949  20.556  0.00  0.00    +0.000 F 
ATOM     19  F   UNL     1       0.040   2.080  18.629  0.00  0.00    +0.000 F 
ENDBRANCH  15  16
ENDBRANCH   4  15
TORSDOF 3
ENDMDL
MODEL 8
REMARK VINA RESULT:      -7.3      1.255      1.567
REMARK  Name = 
REMARK  3 active torsions:
REMARK  status: ('A' for Active; 'I' for Inactive)
REMARK    1  A    between atoms: C_4  and  C_5
REMARK    2  A    between atoms: C_8  and  O_9
REMARK    3  A    between atoms: O_9  and  C_10
REMARK                            x       y       z     vdW  Elec       q    Type
REMARK                         _______ _______ _______ _____ _____    ______ ____
ROOT
ATOM      1  C   UNL     1       4.445   5.541  17.550  0.00  0.00    +0.000 A 
ATOM      2  C   UNL     1       4.475   5.732  18.938  0.00  0.00    +0.000 A 
ATOM      3  C   UNL     1       3.799   4.854  19.789  0.00  0.00    +0.000 A 
ATOM      4  C   UNL     1       3.078   3.773  19.276  0.00  0.00    +0.000 A 
ATOM      5  C   UNL     1       3.083   3.547  17.904  0.00  0.00    +0.000 A 
ATOM      6  C   UNL     1       3.748   4.433  17.047  0.00  0.00    +0.000 A 
ENDROOT
BRANCH   1  10
ATOM      7  N   UNL     1       7.635   5.225  14.441  0.00  0.00    +0.000 N 
ATOM      8  C   UNL     1       6.828   5.781  15.357  0.00  0.00    +0.000 C 
ATOM      9  N   UNL     1       5.540   5.792  15.343  0.00  0.00    +0.000 NA
ATOM     10  C   UNL     1       5.175   6.475  16.602  0.00  0.00    +0.000 C 
ATOM     11  C   UNL     1       6.493   7.015  17.144  0.00  0.00    +0.000 C 
ATOM     12  O   UNL     1       7.497   6.343  16.393  0.00  0.00    +0.000 OA
ATOM     13  H   UNL     1       7.174   4.530  13.870  0.00  0.00    +0.000 HD
ATOM     14  H   UNL     1       8.545   4.957  14.787  0.00  0.00    +0.000 HD
ENDBRANCH   1  10
BRANCH   4  15
ATOM     15  O   UNL     1       2.477   2.998  20.221  0.00  0.00    +0.000 OA
BRANCH  15  16
ATOM     16  C   UNL     1       1.096   3.168  20.501  0.00  0.00    +0.000 C 
ATOM     17  F   UNL     1       0.268   2.645  19.574  0.00  0.00    +0.000 F 
ATOM     18  F   UNL     1       0.811   2.618  21.701  0.00  0.00    +0.000 F 
ATOM     19  F   UNL     1       0.838   4.494  20.577  0.00  0.00    +0.000 F 
ENDBRANCH  15  16
ENDBRANCH   4  15
TORSDOF 3
ENDMDL
MODEL 9
REMARK VINA RESULT:      -7.3      1.238      1.786
REMARK  Name = 
REMARK  3 active torsions:
REMARK  status: ('A' for Active; 'I' for Inactive)
REMARK    1  A    between atoms: C_4  and  C_5
REMARK    2  A    between atoms: C_8  and  O_9
REMARK    3  A    between atoms: O_9  and  C_10
REMARK                            x       y       z     vdW  Elec       q    Type
REMARK                         _______ _______ _______ _____ _____    ______ ____
ROOT
ATOM      1  C   UNL     1       4.450   5.511  17.563  0.00  0.00    +0.000 A 
ATOM      2  C   UNL     1       3.851   4.332  17.099  0.00  0.00    +0.000 A 
ATOM      3  C   UNL     1       3.175   3.486  17.981  0.00  0.00    +0.000 A 
ATOM      4  C   UNL     1       3.085   3.793  19.341  0.00  0.00    +0.000 A 
ATOM      5  C   UNL     1       3.635   4.985  19.802  0.00  0.00    +0.000 A 
ATOM      6  C   UNL     1       4.324   5.828  18.922  0.00  0.00    +0.000 A 
ENDROOT
BRANCH   1  10
ATOM      7  N   UNL     1       7.627   5.214  14.439  0.00  0.00    +0.000 N 
ATOM      8  C   UNL     1       6.828   5.763  15.365  0.00  0.00    +0.000 C 
ATOM      9  N   UNL     1       5.540   5.785  15.356  0.00  0.00    +0.000 NA
ATOM     10  C   UNL     1       5.185   6.452  16.626  0.00  0.00    +0.000 C 
ATOM     11  C   UNL     1       6.509   6.973  17.172  0.00  0.00    +0.000 C 
ATOM     12  O   UNL     1       7.505   6.304  16.407  0.00  0.00    +0.000 OA
ATOM     13  H   UNL     1       7.159   4.532  13.859  0.00  0.00    +0.000 HD
ATOM     14  H   UNL     1       8.537   4.933  14.777  0.00  0.00    +0.000 HD
ENDBRANCH   1  10
BRANCH   4  15
ATOM     15  O   UNL     1       2.392   2.884  20.079  0.00  0.00    +0.000 OA
BRANCH  15  16
ATOM     16  C   UNL     1       1.039   3.140  20.429  0.00  0.00    +0.000 C 
ATOM     17  F   UNL     1       0.719   4.448  20.498  0.00  0.00    +0.000 F 
ATOM     18  F   UNL     1       0.224   2.536  19.539  0.00  0.00    +0.000 F 
ATOM     19  F   UNL     1       0.806   2.596  21.646  0.00  0.00    +0.000 F 
ENDBRANCH  15  16
ENDBRANCH   4  15
TORSDOF 3
ENDMDL
