MODEL 1
REMARK VINA RESULT:      -7.4      0.000      0.000
REMARK  Name = 
REMARK  14 active torsions:
REMARK  status: ('A' for Active; 'I' for Inactive)
REMARK    1  A    between atoms: C_2  and  O_23
REMARK    2  A    between atoms: N_3  and  C_4
REMARK    3  A    between atoms: C_4  and  C_5
REMARK    4  A    between atoms: C_5  and  C_6
REMARK    5  A    between atoms: C_6  and  C_7
REMARK    6  A    between atoms: C_7  and  C_8
REMARK    7  A    between atoms: C_8  and  N_9
REMARK    8  A    between atoms: C_8  and  C_20
REMARK    9  A    between atoms: C_10  and  O_12
REMARK   10  A    between atoms: O_12  and  C_13
REMARK   11  A    between atoms: C_13  and  C_14
REMARK   12  A    between atoms: C_20  and  O_22
REMARK   13  A    between atoms: O_23  and  C_24
REMARK   14  A    between atoms: C_24  and  C_25
REMARK                            x       y       z     vdW  Elec       q    Type
REMARK                         _______ _______ _______ _____ _____    ______ ____
ROOT
ATOM      1  C   UNK A   1       4.208   3.293  18.951  0.00  0.00    +0.000 C 
ENDROOT
BRANCH   1   2
ATOM      2  N   UNK A   1       3.101   3.891  19.707  0.00  0.00    +0.000 N 
ATOM      3  C   UNK A   0       1.924   4.357  19.228  0.00  0.00    +0.000 C 
ATOM      4  O   UNK A   0       1.558   4.229  18.059  0.00  0.00    +0.000 OA
ATOM      5  H   UNK A   1       3.265   4.138  20.675  0.00  0.00    +0.000 HD
BRANCH   3   6
ATOM      6  O   UNK A   0       1.283   5.048  20.192  0.00  0.00    +0.000 OA
BRANCH   6   7
ATOM      7  C   UNK A   0       2.034   6.128  20.773  0.00  0.00    +0.000 C 
BRANCH   7   8
ATOM      8  C   UNK A   0       1.735   7.435  20.092  0.00  0.00    +0.000 A 
ATOM      9  C   UNK A   0       2.126   7.658  18.766  0.00  0.00    +0.000 A 
ATOM     10  C   UNK A   0       1.920   8.903  18.169  0.00  0.00    +0.000 A 
ATOM     11  C   UNK A   0       1.298   9.924  18.883  0.00  0.00    +0.000 A 
ATOM     12  C   UNK A   0       0.847   9.691  20.181  0.00  0.00    +0.000 A 
ATOM     13  C   UNK A   0       1.055   8.450  20.780  0.00  0.00    +0.000 A 
ENDBRANCH   7   8
ENDBRANCH   6   7
ENDBRANCH   3   6
ENDBRANCH   1   2
BRANCH   1  14
ATOM     14  C   UNK A   1       4.566   1.899  19.499  0.00  0.00    +0.000 C 
ATOM     15  O   UNK A   1       5.108   1.712  20.585  0.00  0.00    +0.000 OA
BRANCH  14  16
ATOM     16  O   UNK A   1       4.192   0.865  18.708  0.00  0.00    +0.000 OA
ATOM     17  H   UNK A   1       4.807   0.098  18.714  0.00  0.00    +0.000 HD
ENDBRANCH  14  16
ENDBRANCH   1  14
BRANCH   1  18
ATOM     18  C   UNK A   1       5.466   4.158  18.697  0.00  0.00    +0.000 C 
BRANCH  18  19
ATOM     19  C   UNK A   1       5.216   5.675  18.648  0.00  0.00    +0.000 C 
BRANCH  19  20
ATOM     20  C   UNK A   1       5.337   6.349  17.290  0.00  0.00    +0.000 C 
BRANCH  20  21
ATOM     21  C   UNK A   1       6.805   6.385  16.892  0.00  0.00    +0.000 C 
BRANCH  21  24
ATOM     22  O   UNK A   1       8.451   7.462  18.848  0.00  0.00    +0.000 OA
ATOM     23  C   UNK A   1       8.136   8.154  17.911  0.00  0.00    +0.000 C 
ATOM     24  N   UNK A   1       7.318   7.722  16.882  0.00  0.00    +0.000 N 
ATOM     25  H   UNK A   1       7.158   8.289  16.064  0.00  0.00    +0.000 HD
BRANCH  23  26
ATOM     26  O   UNK A   1       8.478   9.470  17.750  0.00  0.00    +0.000 OA
BRANCH  26  27
ATOM     27  C   UNK A   1       8.629  10.257  18.950  0.00  0.00    +0.000 C 
BRANCH  27  28
ATOM     28  C   UNK A   1       9.933  11.007  18.956  0.00  0.00    +0.000 A 
ATOM     29  C   UNK A   1      10.582  11.313  20.161  0.00  0.00    +0.000 A 
ATOM     30  C   UNK A   1      11.758  12.062  20.156  0.00  0.00    +0.000 A 
ATOM     31  C   UNK A   1      12.297  12.501  18.947  0.00  0.00    +0.000 A 
ATOM     32  C   UNK A   1      11.670  12.184  17.744  0.00  0.00    +0.000 A 
ATOM     33  C   UNK A   1      10.492  11.438  17.747  0.00  0.00    +0.000 A 
ENDBRANCH  27  28
ENDBRANCH  26  27
ENDBRANCH  23  26
ENDBRANCH  21  24
ENDBRANCH  20  21
ENDBRANCH  19  20
ENDBRANCH  18  19
ENDBRANCH   1  18
TORSDOF 14
ENDMDL
MODEL 2
REMARK VINA RESULT:      -7.2      2.085      8.347
REMARK  Name = 
REMARK  14 active torsions:
REMARK  status: ('A' for Active; 'I' for Inactive)
REMARK    1  A    between atoms: C_2  and  O_23
REMARK    2  A    between atoms: N_3  and  C_4
REMARK    3  A    between atoms: C_4  and  C_5
REMARK    4  A    between atoms: C_5  and  C_6
REMARK    5  A    between atoms: C_6  and  C_7
REMARK    6  A    between atoms: C_7  and  C_8
REMARK    7  A    between atoms: C_8  and  N_9
REMARK    8  A    between atoms: C_8  and  C_20
REMARK    9  A    between atoms: C_10  and  O_12
REMARK   10  A    between atoms: O_12  and  C_13
REMARK   11  A    between atoms: C_13  and  C_14
REMARK   12  A    between atoms: C_20  and  O_22
REMARK   13  A    between atoms: O_23  and  C_24
REMARK   14  A    between atoms: C_24  and  C_25
REMARK                            x       y       z     vdW  Elec       q    Type
REMARK                         _______ _______ _______ _____ _____    ______ ____
ROOT
ATOM      1  C   UNK A   1       6.425   6.030  16.946  0.00  0.00    +0.000 C 
ENDROOT
BRANCH   1   2
ATOM      2  N   UNK A   1       7.281   7.090  17.494  0.00  0.00    +0.000 N 
ATOM      3  C   UNK A   0       8.067   7.037  18.595  0.00  0.00    +0.000 C 
ATOM      4  O   UNK A   0       8.269   6.012  19.247  0.00  0.00    +0.000 OA
ATOM      5  H   UNK A   1       7.180   8.025  17.119  0.00  0.00    +0.000 HD
BRANCH   3   6
ATOM      6  O   UNK A   0       8.499   8.277  18.904  0.00  0.00    +0.000 OA
BRANCH   6   7
ATOM      7  C   UNK A   0       8.268   9.275  17.895  0.00  0.00    +0.000 C 
BRANCH   7   8
ATOM      8  C   UNK A   0       8.892  10.591  18.272  0.00  0.00    +0.000 A 
ATOM      9  C   UNK A   0       8.443  11.787  17.698  0.00  0.00    +0.000 A 
ATOM     10  C   UNK A   0       9.083  12.993  17.989  0.00  0.00    +0.000 A 
ATOM     11  C   UNK A   0      10.159  13.016  18.874  0.00  0.00    +0.000 A 
ATOM     12  C   UNK A   0      10.571  11.841  19.499  0.00  0.00    +0.000 A 
ATOM     13  C   UNK A   0       9.935  10.635  19.207  0.00  0.00    +0.000 A 
ENDBRANCH   7   8
ENDBRANCH   6   7
ENDBRANCH   3   6
ENDBRANCH   1   2
BRANCH   1  14
ATOM     14  C   UNK A   1       7.232   5.067  16.057  0.00  0.00    +0.000 C 
ATOM     15  O   UNK A   1       7.355   5.201  14.842  0.00  0.00    +0.000 OA
BRANCH  14  16
ATOM     16  O   UNK A   1       7.855   4.065  16.724  0.00  0.00    +0.000 OA
ATOM     17  H   UNK A   1       8.801   4.233  16.929  0.00  0.00    +0.000 HD
ENDBRANCH  14  16
ENDBRANCH   1  14
BRANCH   1  18
ATOM     18  C   UNK A   1       5.087   6.445  16.289  0.00  0.00    +0.000 C 
BRANCH  18  19
ATOM     19  C   UNK A   1       3.936   6.723  17.270  0.00  0.00    +0.000 C 
BRANCH  19  20
ATOM     20  C   UNK A   1       3.608   8.182  17.551  0.00  0.00    +0.000 C 
BRANCH  20  21
ATOM     21  C   UNK A   1       2.216   8.261  18.159  0.00  0.00    +0.000 C 
BRANCH  21  24
ATOM     22  O   UNK A   1       1.789   8.194  20.900  0.00  0.00    +0.000 OA
ATOM     23  C   UNK A   1       1.702   7.166  20.275  0.00  0.00    +0.000 C 
ATOM     24  N   UNK A   1       1.899   7.082  18.908  0.00  0.00    +0.000 N 
ATOM     25  H   UNK A   1       1.717   6.229  18.402  0.00  0.00    +0.000 HD
BRANCH  23  26
ATOM     26  O   UNK A   1       1.462   5.930  20.816  0.00  0.00    +0.000 OA
BRANCH  26  27
ATOM     27  C   UNK A   1       2.586   5.030  20.910  0.00  0.00    +0.000 C 
BRANCH  27  28
ATOM     28  C   UNK A   1       2.540   3.978  19.837  0.00  0.00    +0.000 A 
ATOM     29  C   UNK A   1       3.680   3.672  19.078  0.00  0.00    +0.000 A 
ATOM     30  C   UNK A   1       3.607   2.738  18.046  0.00  0.00    +0.000 A 
ATOM     31  C   UNK A   1       2.400   2.098  17.770  0.00  0.00    +0.000 A 
ATOM     32  C   UNK A   1       1.267   2.381  18.532  0.00  0.00    +0.000 A 
ATOM     33  C   UNK A   1       1.336   3.317  19.562  0.00  0.00    +0.000 A 
ENDBRANCH  27  28
ENDBRANCH  26  27
ENDBRANCH  23  26
ENDBRANCH  21  24
ENDBRANCH  20  21
ENDBRANCH  19  20
ENDBRANCH  18  19
ENDBRANCH   1  18
TORSDOF 14
ENDMDL
MODEL 3
REMARK VINA RESULT:      -7.1      3.220      5.108
REMARK  Name = 
REMARK  14 active torsions:
REMARK  status: ('A' for Active; 'I' for Inactive)
REMARK    1  A    between atoms: C_2  and  O_23
REMARK    2  A    between atoms: N_3  and  C_4
REMARK    3  A    between atoms: C_4  and  C_5
REMARK    4  A    between atoms: C_5  and  C_6
REMARK    5  A    between atoms: C_6  and  C_7
REMARK    6  A    between atoms: C_7  and  C_8
REMARK    7  A    between atoms: C_8  and  N_9
REMARK    8  A    between atoms: C_8  and  C_20
REMARK    9  A    between atoms: C_10  and  O_12
REMARK   10  A    between atoms: O_12  and  C_13
REMARK   11  A    between atoms: C_13  and  C_14
REMARK   12  A    between atoms: C_20  and  O_22
REMARK   13  A    between atoms: O_23  and  C_24
REMARK   14  A    between atoms: C_24  and  C_25
REMARK                            x       y       z     vdW  Elec       q    Type
REMARK                         _______ _______ _______ _____ _____    ______ ____
ROOT
ATOM      1  C   UNK A   1       7.061   6.505  17.646  0.00  0.00    +0.000 C 
ENDROOT
BRANCH   1   2
ATOM      2  N   UNK A   1       5.706   6.498  18.210  0.00  0.00    +0.000 N 
ATOM      3  C   UNK A   0       4.546   6.189  17.584  0.00  0.00    +0.000 C 
ATOM      4  O   UNK A   0       4.482   5.739  16.440  0.00  0.00    +0.000 OA
ATOM      5  H   UNK A   1       5.569   6.913  19.123  0.00  0.00    +0.000 HD
BRANCH   3   6
ATOM      6  O   UNK A   0       3.503   6.539  18.363  0.00  0.00    +0.000 OA
BRANCH   6   7
ATOM      7  C   UNK A   0       2.262   5.878  18.057  0.00  0.00    +0.000 C 
BRANCH   7   8
ATOM      8  C   UNK A   0       1.970   4.777  19.040  0.00  0.00    +0.000 A 
ATOM      9  C   UNK A   0       1.402   3.570  18.616  0.00  0.00    +0.000 A 
ATOM     10  C   UNK A   0       1.055   2.588  19.545  0.00  0.00    +0.000 A 
ATOM     11  C   UNK A   0       1.298   2.794  20.901  0.00  0.00    +0.000 A 
ATOM     12  C   UNK A   0       1.922   3.965  21.326  0.00  0.00    +0.000 A 
ATOM     13  C   UNK A   0       2.265   4.949  20.399  0.00  0.00    +0.000 A 
ENDBRANCH   7   8
ENDBRANCH   6   7
ENDBRANCH   3   6
ENDBRANCH   1   2
BRANCH   1  14
ATOM     14  C   UNK A   1       7.530   5.077  17.311  0.00  0.00    +0.000 C 
ATOM     15  O   UNK A   1       7.923   4.272  18.152  0.00  0.00    +0.000 OA
BRANCH  14  16
ATOM     16  O   UNK A   1       7.435   4.741  16.001  0.00  0.00    +0.000 OA
ATOM     17  H   UNK A   1       7.921   5.334  15.387  0.00  0.00    +0.000 HD
ENDBRANCH  14  16
ENDBRANCH   1  14
BRANCH   1  18
ATOM     18  C   UNK A   1       8.152   7.317  18.384  0.00  0.00    +0.000 C 
BRANCH  18  19
ATOM     19  C   UNK A   1       8.190   8.817  18.048  0.00  0.00    +0.000 C 
BRANCH  19  20
ATOM     20  C   UNK A   1       8.989   9.712  18.983  0.00  0.00    +0.000 C 
BRANCH  20  21
ATOM     21  C   UNK A   1       9.171  11.070  18.322  0.00  0.00    +0.000 C 
BRANCH  21  24
ATOM     22  O   UNK A   1      11.589  11.957  19.353  0.00  0.00    +0.000 OA
ATOM     23  C   UNK A   1      10.570  12.479  19.734  0.00  0.00    +0.000 C 
ATOM     24  N   UNK A   1       9.311  12.115  19.291  0.00  0.00    +0.000 N 
ATOM     25  H   UNK A   1       8.490  12.640  19.550  0.00  0.00    +0.000 HD
BRANCH  23  26
ATOM     26  O   UNK A   1      10.493  13.454  20.693  0.00  0.00    +0.000 OA
BRANCH  26  27
ATOM     27  C   UNK A   1       9.171  13.885  21.080  0.00  0.00    +0.000 C 
BRANCH  27  28
ATOM     28  C   UNK A   1       8.882  13.550  22.518  0.00  0.00    +0.000 A 
ATOM     29  C   UNK A   1       8.637  12.227  22.914  0.00  0.00    +0.000 A 
ATOM     30  C   UNK A   1       8.311  11.939  24.238  0.00  0.00    +0.000 A 
ATOM     31  C   UNK A   1       8.236  12.968  25.176  0.00  0.00    +0.000 A 
ATOM     32  C   UNK A   1       8.499  14.283  24.796  0.00  0.00    +0.000 A 
ATOM     33  C   UNK A   1       8.822  14.573  23.471  0.00  0.00    +0.000 A 
ENDBRANCH  27  28
ENDBRANCH  26  27
ENDBRANCH  23  26
ENDBRANCH  21  24
ENDBRANCH  20  21
ENDBRANCH  19  20
ENDBRANCH  18  19
ENDBRANCH   1  18
TORSDOF 14
ENDMDL
MODEL 4
REMARK VINA RESULT:      -7.0      2.239      8.762
REMARK  Name = 
REMARK  14 active torsions:
REMARK  status: ('A' for Active; 'I' for Inactive)
REMARK    1  A    between atoms: C_2  and  O_23
REMARK    2  A    between atoms: N_3  and  C_4
REMARK    3  A    between atoms: C_4  and  C_5
REMARK    4  A    between atoms: C_5  and  C_6
REMARK    5  A    between atoms: C_6  and  C_7
REMARK    6  A    between atoms: C_7  and  C_8
REMARK    7  A    between atoms: C_8  and  N_9
REMARK    8  A    between atoms: C_8  and  C_20
REMARK    9  A    between atoms: C_10  and  O_12
REMARK   10  A    between atoms: O_12  and  C_13
REMARK   11  A    between atoms: C_13  and  C_14
REMARK   12  A    between atoms: C_20  and  O_22
REMARK   13  A    between atoms: O_23  and  C_24
REMARK   14  A    between atoms: C_24  and  C_25
REMARK                            x       y       z     vdW  Elec       q    Type
REMARK                         _______ _______ _______ _____ _____    ______ ____
ROOT
ATOM      1  C   UNK A   1       6.413   6.581  17.012  0.00  0.00    +0.000 C 
ENDROOT
BRANCH   1   2
ATOM      2  N   UNK A   1       7.161   7.844  17.033  0.00  0.00    +0.000 N 
ATOM      3  C   UNK A   0       8.095   8.243  17.928  0.00  0.00    +0.000 C 
ATOM      4  O   UNK A   0       8.548   7.520  18.815  0.00  0.00    +0.000 OA
ATOM      5  H   UNK A   1       6.859   8.586  16.412  0.00  0.00    +0.000 HD
BRANCH   3   6
ATOM      6  O   UNK A   0       8.365   9.552  17.750  0.00  0.00    +0.000 OA
BRANCH   6   7
ATOM      7  C   UNK A   0       9.076  10.182  18.830  0.00  0.00    +0.000 C 
BRANCH   7   8
ATOM      8  C   UNK A   0       9.650  11.507  18.409  0.00  0.00    +0.000 A 
ATOM      9  C   UNK A   0       8.955  12.698  18.652  0.00  0.00    +0.000 A 
ATOM     10  C   UNK A   0       9.454  13.915  18.183  0.00  0.00    +0.000 A 
ATOM     11  C   UNK A   0      10.663  13.953  17.493  0.00  0.00    +0.000 A 
ATOM     12  C   UNK A   0      11.394  12.782  17.303  0.00  0.00    +0.000 A 
ATOM     13  C   UNK A   0      10.895  11.565  17.767  0.00  0.00    +0.000 A 
ENDBRANCH   7   8
ENDBRANCH   6   7
ENDBRANCH   3   6
ENDBRANCH   1   2
BRANCH   1  14
ATOM     14  C   UNK A   1       7.212   5.474  16.300  0.00  0.00    +0.000 C 
ATOM     15  O   UNK A   1       7.450   5.472  15.095  0.00  0.00    +0.000 OA
BRANCH  14  16
ATOM     16  O   UNK A   1       7.689   4.503  17.116  0.00  0.00    +0.000 OA
ATOM     17  H   UNK A   1       8.250   4.827  17.855  0.00  0.00    +0.000 HD
ENDBRANCH  14  16
ENDBRANCH   1  14
BRANCH   1  18
ATOM     18  C   UNK A   1       4.936   6.619  16.553  0.00  0.00    +0.000 C 
BRANCH  18  19
ATOM     19  C   UNK A   1       3.916   6.121  17.591  0.00  0.00    +0.000 C 
BRANCH  19  20
ATOM     20  C   UNK A   1       3.207   4.810  17.286  0.00  0.00    +0.000 C 
BRANCH  20  21
ATOM     21  C   UNK A   1       4.253   3.753  16.967  0.00  0.00    +0.000 C 
BRANCH  21  24
ATOM     22  O   UNK A   1       3.215   1.506  18.220  0.00  0.00    +0.000 OA
ATOM     23  C   UNK A   1       4.190   2.036  18.695  0.00  0.00    +0.000 C 
ATOM     24  N   UNK A   1       4.788   3.161  18.157  0.00  0.00    +0.000 N 
ATOM     25  H   UNK A   1       5.660   3.517  18.518  0.00  0.00    +0.000 HD
BRANCH  23  26
ATOM     26  O   UNK A   1       4.811   1.655  19.855  0.00  0.00    +0.000 OA
BRANCH  26  27
ATOM     27  C   UNK A   1       4.219   2.106  21.091  0.00  0.00    +0.000 C 
BRANCH  27  28
ATOM     28  C   UNK A   1       3.003   2.956  20.841  0.00  0.00    +0.000 A 
ATOM     29  C   UNK A   1       1.767   2.370  20.529  0.00  0.00    +0.000 A 
ATOM     30  C   UNK A   1       0.663   3.170  20.240  0.00  0.00    +0.000 A 
ATOM     31  C   UNK A   1       0.784   4.559  20.269  0.00  0.00    +0.000 A 
ATOM     32  C   UNK A   1       2.003   5.149  20.598  0.00  0.00    +0.000 A 
ATOM     33  C   UNK A   1       3.109   4.351  20.884  0.00  0.00    +0.000 A 
ENDBRANCH  27  28
ENDBRANCH  26  27
ENDBRANCH  23  26
ENDBRANCH  21  24
ENDBRANCH  20  21
ENDBRANCH  19  20
ENDBRANCH  18  19
ENDBRANCH   1  18
TORSDOF 14
ENDMDL
MODEL 5
REMARK VINA RESULT:      -7.0      4.147      8.256
REMARK  Name = 
REMARK  14 active torsions:
REMARK  status: ('A' for Active; 'I' for Inactive)
REMARK    1  A    between atoms: C_2  and  O_23
REMARK    2  A    between atoms: N_3  and  C_4
REMARK    3  A    between atoms: C_4  and  C_5
REMARK    4  A    between atoms: C_5  and  C_6
REMARK    5  A    between atoms: C_6  and  C_7
REMARK    6  A    between atoms: C_7  and  C_8
REMARK    7  A    between atoms: C_8  and  N_9
REMARK    8  A    between atoms: C_8  and  C_20
REMARK    9  A    between atoms: C_10  and  O_12
REMARK   10  A    between atoms: O_12  and  C_13
REMARK   11  A    between atoms: C_13  and  C_14
REMARK   12  A    between atoms: C_20  and  O_22
REMARK   13  A    between atoms: O_23  and  C_24
REMARK   14  A    between atoms: C_24  and  C_25
REMARK                            x       y       z     vdW  Elec       q    Type
REMARK                         _______ _______ _______ _____ _____    ______ ____
ROOT
ATOM      1  C   UNK A   1       2.429   4.289  20.639  0.00  0.00    +0.000 C 
ENDROOT
BRANCH   1   2
ATOM      2  N   UNK A   1       3.240   3.778  19.527  0.00  0.00    +0.000 N 
ATOM      3  C   UNK A   0       2.812   3.329  18.324  0.00  0.00    +0.000 C 
ATOM      4  O   UNK A   0       1.645   3.402  17.938  0.00  0.00    +0.000 OA
ATOM      5  H   UNK A   1       4.218   3.583  19.702  0.00  0.00    +0.000 HD
BRANCH   3   6
ATOM      6  O   UNK A   0       3.828   2.721  17.679  0.00  0.00    +0.000 OA
BRANCH   6   7
ATOM      7  C   UNK A   0       4.184   3.301  16.412  0.00  0.00    +0.000 C 
BRANCH   7   8
ATOM      8  C   UNK A   0       5.292   4.308  16.562  0.00  0.00    +0.000 A 
ATOM      9  C   UNK A   0       5.207   5.330  17.516  0.00  0.00    +0.000 A 
ATOM     10  C   UNK A   0       6.198   6.310  17.591  0.00  0.00    +0.000 A 
ATOM     11  C   UNK A   0       7.295   6.260  16.732  0.00  0.00    +0.000 A 
ATOM     12  C   UNK A   0       7.420   5.210  15.825  0.00  0.00    +0.000 A 
ATOM     13  C   UNK A   0       6.429   4.233  15.745  0.00  0.00    +0.000 A 
ENDBRANCH   7   8
ENDBRANCH   6   7
ENDBRANCH   3   6
ENDBRANCH   1   2
BRANCH   1  14
ATOM     14  C   UNK A   1       1.449   3.217  21.150  0.00  0.00    +0.000 C 
ATOM     15  O   UNK A   1       1.642   2.541  22.158  0.00  0.00    +0.000 OA
BRANCH  14  16
ATOM     16  O   UNK A   1       0.309   3.099  20.427  0.00  0.00    +0.000 OA
ATOM     17  H   UNK A   1      -0.258   2.335  20.676  0.00  0.00    +0.000 HD
ENDBRANCH  14  16
ENDBRANCH   1  14
BRANCH   1  18
ATOM     18  C   UNK A   1       1.746   5.667  20.467  0.00  0.00    +0.000 C 
BRANCH  18  19
ATOM     19  C   UNK A   1       2.582   6.723  19.724  0.00  0.00    +0.000 C 
BRANCH  19  20
ATOM     20  C   UNK A   1       2.170   7.046  18.296  0.00  0.00    +0.000 C 
BRANCH  20  21
ATOM     21  C   UNK A   1       2.410   8.527  18.043  0.00  0.00    +0.000 C 
BRANCH  21  24
ATOM     22  O   UNK A   1       2.361  11.297  18.179  0.00  0.00    +0.000 OA
ATOM     23  C   UNK A   1       1.338  10.690  18.380  0.00  0.00    +0.000 C 
ATOM     24  N   UNK A   1       1.248   9.309  18.342  0.00  0.00    +0.000 N 
ATOM     25  H   UNK A   1       0.359   8.838  18.412  0.00  0.00    +0.000 HD
BRANCH  23  26
ATOM     26  O   UNK A   1       0.141  11.252  18.733  0.00  0.00    +0.000 OA
BRANCH  26  27
ATOM     27  C   UNK A   1      -0.952  10.348  18.997  0.00  0.00    +0.000 C 
BRANCH  27  28
ATOM     28  C   UNK A   1      -2.045  10.492  17.974  0.00  0.00    +0.000 A 
ATOM     29  C   UNK A   1      -1.987   9.798  16.756  0.00  0.00    +0.000 A 
ATOM     30  C   UNK A   1      -2.975   9.988  15.791  0.00  0.00    +0.000 A 
ATOM     31  C   UNK A   1      -4.032  10.864  16.040  0.00  0.00    +0.000 A 
ATOM     32  C   UNK A   1      -4.108  11.542  17.255  0.00  0.00    +0.000 A 
ATOM     33  C   UNK A   1      -3.119  11.356  18.220  0.00  0.00    +0.000 A 
ENDBRANCH  27  28
ENDBRANCH  26  27
ENDBRANCH  23  26
ENDBRANCH  21  24
ENDBRANCH  20  21
ENDBRANCH  19  20
ENDBRANCH  18  19
ENDBRANCH   1  18
TORSDOF 14
ENDMDL
MODEL 6
REMARK VINA RESULT:      -7.0      2.133      8.338
REMARK  Name = 
REMARK  14 active torsions:
REMARK  status: ('A' for Active; 'I' for Inactive)
REMARK    1  A    between atoms: C_2  and  O_23
REMARK    2  A    between atoms: N_3  and  C_4
REMARK    3  A    between atoms: C_4  and  C_5
REMARK    4  A    between atoms: C_5  and  C_6
REMARK    5  A    between atoms: C_6  and  C_7
REMARK    6  A    between atoms: C_7  and  C_8
REMARK    7  A    between atoms: C_8  and  N_9
REMARK    8  A    between atoms: C_8  and  C_20
REMARK    9  A    between atoms: C_10  and  O_12
REMARK   10  A    between atoms: O_12  and  C_13
REMARK   11  A    between atoms: C_13  and  C_14
REMARK   12  A    between atoms: C_20  and  O_22
REMARK   13  A    between atoms: O_23  and  C_24
REMARK   14  A    between atoms: C_24  and  C_25
REMARK                            x       y       z     vdW  Elec       q    Type
REMARK                         _______ _______ _______ _____ _____    ______ ____
ROOT
ATOM      1  C   UNK A   1       6.140   5.254  17.333  0.00  0.00    +0.000 C 
ENDROOT
BRANCH   1   2
ATOM      2  N   UNK A   1       7.110   6.288  17.714  0.00  0.00    +0.000 N 
ATOM      3  C   UNK A   0       7.949   6.289  18.777  0.00  0.00    +0.000 C 
ATOM      4  O   UNK A   0       8.101   5.330  19.534  0.00  0.00    +0.000 OA
ATOM      5  H   UNK A   1       7.066   7.180  17.239  0.00  0.00    +0.000 HD
BRANCH   3   6
ATOM      6  O   UNK A   0       8.498   7.512  18.920  0.00  0.00    +0.000 OA
BRANCH   6   7
ATOM      7  C   UNK A   0       8.097   8.483  17.938  0.00  0.00    +0.000 C 
BRANCH   7   8
ATOM      8  C   UNK A   0       8.599   9.857  18.286  0.00  0.00    +0.000 A 
ATOM      9  C   UNK A   0       8.221  10.972  17.528  0.00  0.00    +0.000 A 
ATOM     10  C   UNK A   0       8.758  12.230  17.806  0.00  0.00    +0.000 A 
ATOM     11  C   UNK A   0       9.657  12.387  18.859  0.00  0.00    +0.000 A 
ATOM     12  C   UNK A   0       9.989  11.296  19.660  0.00  0.00    +0.000 A 
ATOM     13  C   UNK A   0       9.456  10.038  19.381  0.00  0.00    +0.000 A 
ENDBRANCH   7   8
ENDBRANCH   6   7
ENDBRANCH   3   6
ENDBRANCH   1   2
BRANCH   1  14
ATOM     14  C   UNK A   1       6.446   4.693  15.933  0.00  0.00    +0.000 C 
ATOM     15  O   UNK A   1       5.840   3.753  15.426  0.00  0.00    +0.000 OA
BRANCH  14  16
ATOM     16  O   UNK A   1       7.420   5.352  15.257  0.00  0.00    +0.000 OA
ATOM     17  H   UNK A   1       8.335   5.065  15.471  0.00  0.00    +0.000 HD
ENDBRANCH  14  16
ENDBRANCH   1  14
BRANCH   1  18
ATOM     18  C   UNK A   1       4.636   5.566  17.518  0.00  0.00    +0.000 C 
BRANCH  18  19
ATOM     19  C   UNK A   1       4.229   7.020  17.225  0.00  0.00    +0.000 C 
BRANCH  19  20
ATOM     20  C   UNK A   1       2.877   7.476  17.754  0.00  0.00    +0.000 C 
BRANCH  20  21
ATOM     21  C   UNK A   1       2.765   7.073  19.216  0.00  0.00    +0.000 C 
BRANCH  21  24
ATOM     22  O   UNK A   1       2.490   5.493  21.480  0.00  0.00    +0.000 OA
ATOM     23  C   UNK A   1       1.676   5.384  20.596  0.00  0.00    +0.000 C 
ATOM     24  N   UNK A   1       1.718   6.118  19.423  0.00  0.00    +0.000 N 
ATOM     25  H   UNK A   1       0.967   6.078  18.751  0.00  0.00    +0.000 HD
BRANCH  23  26
ATOM     26  O   UNK A   1       0.638   4.491  20.582  0.00  0.00    +0.000 OA
BRANCH  26  27
ATOM     27  C   UNK A   1       0.978   3.094  20.696  0.00  0.00    +0.000 C 
BRANCH  27  28
ATOM     28  C   UNK A   1       2.014   2.695  19.682  0.00  0.00    +0.000 A 
ATOM     29  C   UNK A   1       1.697   2.623  18.317  0.00  0.00    +0.000 A 
ATOM     30  C   UNK A   1       2.650   2.193  17.396  0.00  0.00    +0.000 A 
ATOM     31  C   UNK A   1       3.927   1.841  17.829  0.00  0.00    +0.000 A 
ATOM     32  C   UNK A   1       4.258   1.928  19.180  0.00  0.00    +0.000 A 
ATOM     33  C   UNK A   1       3.305   2.355  20.104  0.00  0.00    +0.000 A 
ENDBRANCH  27  28
ENDBRANCH  26  27
ENDBRANCH  23  26
ENDBRANCH  21  24
ENDBRANCH  20  21
ENDBRANCH  19  20
ENDBRANCH  18  19
ENDBRANCH   1  18
TORSDOF 14
ENDMDL
MODEL 7
REMARK VINA RESULT:      -6.9      3.775      8.997
REMARK  Name = 
REMARK  14 active torsions:
REMARK  status: ('A' for Active; 'I' for Inactive)
REMARK    1  A    between atoms: C_2  and  O_23
REMARK    2  A    between atoms: N_3  and  C_4
REMARK    3  A    between atoms: C_4  and  C_5
REMARK    4  A    between atoms: C_5  and  C_6
REMARK    5  A    between atoms: C_6  and  C_7
REMARK    6  A    between atoms: C_7  and  C_8
REMARK    7  A    between atoms: C_8  and  N_9
REMARK    8  A    between atoms: C_8  and  C_20
REMARK    9  A    between atoms: C_10  and  O_12
REMARK   10  A    between atoms: O_12  and  C_13
REMARK   11  A    between atoms: C_13  and  C_14
REMARK   12  A    between atoms: C_20  and  O_22
REMARK   13  A    between atoms: O_23  and  C_24
REMARK   14  A    between atoms: C_24  and  C_25
REMARK                            x       y       z     vdW  Elec       q    Type
REMARK                         _______ _______ _______ _____ _____    ______ ____
ROOT
ATOM      1  C   UNK A   1       6.812   5.673  17.870  0.00  0.00    +0.000 C 
ENDROOT
BRANCH   1   2
ATOM      2  N   UNK A   1       7.383   5.321  16.564  0.00  0.00    +0.000 N 
ATOM      3  C   UNK A   0       6.735   5.180  15.384  0.00  0.00    +0.000 C 
ATOM      4  O   UNK A   0       5.546   5.455  15.216  0.00  0.00    +0.000 OA
ATOM      5  H   UNK A   1       8.340   4.991  16.537  0.00  0.00    +0.000 HD
BRANCH   3   6
ATOM      6  O   UNK A   0       7.558   4.614  14.478  0.00  0.00    +0.000 OA
BRANCH   6   7
ATOM      7  C   UNK A   0       7.291   4.960  13.108  0.00  0.00    +0.000 C 
BRANCH   7   8
ATOM      8  C   UNK A   0       6.745   3.785  12.343  0.00  0.00    +0.000 A 
ATOM      9  C   UNK A   0       5.364   3.604  12.196  0.00  0.00    +0.000 A 
ATOM     10  C   UNK A   0       4.865   2.468  11.557  0.00  0.00    +0.000 A 
ATOM     11  C   UNK A   0       5.742   1.518  11.038  0.00  0.00    +0.000 A 
ATOM     12  C   UNK A   0       7.118   1.721  11.122  0.00  0.00    +0.000 A 
ATOM     13  C   UNK A   0       7.618   2.854  11.763  0.00  0.00    +0.000 A 
ENDBRANCH   7   8
ENDBRANCH   6   7
ENDBRANCH   3   6
ENDBRANCH   1   2
BRANCH   1  14
ATOM     14  C   UNK A   1       7.917   6.010  18.887  0.00  0.00    +0.000 C 
ATOM     15  O   UNK A   1       8.357   5.209  19.708  0.00  0.00    +0.000 OA
BRANCH  14  16
ATOM     16  O   UNK A   1       8.421   7.264  18.784  0.00  0.00    +0.000 OA
ATOM     17  H   UNK A   1       9.214   7.343  18.209  0.00  0.00    +0.000 HD
ENDBRANCH  14  16
ENDBRANCH   1  14
BRANCH   1  18
ATOM     18  C   UNK A   1       5.737   4.736  18.469  0.00  0.00    +0.000 C 
BRANCH  18  19
ATOM     19  C   UNK A   1       4.441   5.431  18.920  0.00  0.00    +0.000 C 
BRANCH  19  20
ATOM     20  C   UNK A   1       4.016   6.666  18.141  0.00  0.00    +0.000 C 
BRANCH  20  21
ATOM     21  C   UNK A   1       2.505   6.810  18.240  0.00  0.00    +0.000 C 
BRANCH  21  24
ATOM     22  O   UNK A   1       1.604   6.962  20.860  0.00  0.00    +0.000 OA
ATOM     23  C   UNK A   1       1.499   5.914  20.272  0.00  0.00    +0.000 C 
ATOM     24  N   UNK A   1       1.918   5.724  18.966  0.00  0.00    +0.000 N 
ATOM     25  H   UNK A   1       1.721   4.868  18.471  0.00  0.00    +0.000 HD
BRANCH  23  26
ATOM     26  O   UNK A   1       1.017   4.750  20.809  0.00  0.00    +0.000 OA
BRANCH  26  27
ATOM     27  C   UNK A   1       0.807   3.649  19.901  0.00  0.00    +0.000 C 
BRANCH  27  28
ATOM     28  C   UNK A   1       2.065   2.847  19.708  0.00  0.00    +0.000 A 
ATOM     29  C   UNK A   1       3.009   2.729  20.739  0.00  0.00    +0.000 A 
ATOM     30  C   UNK A   1       4.198   2.034  20.527  0.00  0.00    +0.000 A 
ATOM     31  C   UNK A   1       4.449   1.446  19.288  0.00  0.00    +0.000 A 
ATOM     32  C   UNK A   1       3.508   1.542  18.264  0.00  0.00    +0.000 A 
ATOM     33  C   UNK A   1       2.319   2.239  18.473  0.00  0.00    +0.000 A 
ENDBRANCH  27  28
ENDBRANCH  26  27
ENDBRANCH  23  26
ENDBRANCH  21  24
ENDBRANCH  20  21
ENDBRANCH  19  20
ENDBRANCH  18  19
ENDBRANCH   1  18
TORSDOF 14
ENDMDL
MODEL 8
REMARK VINA RESULT:      -6.9      3.178      5.466
REMARK  Name = 
REMARK  14 active torsions:
REMARK  status: ('A' for Active; 'I' for Inactive)
REMARK    1  A    between atoms: C_2  and  O_23
REMARK    2  A    between atoms: N_3  and  C_4
REMARK    3  A    between atoms: C_4  and  C_5
REMARK    4  A    between atoms: C_5  and  C_6
REMARK    5  A    between atoms: C_6  and  C_7
REMARK    6  A    between atoms: C_7  and  C_8
REMARK    7  A    between atoms: C_8  and  N_9
REMARK    8  A    between atoms: C_8  and  C_20
REMARK    9  A    between atoms: C_10  and  O_12
REMARK   10  A    between atoms: O_12  and  C_13
REMARK   11  A    between atoms: C_13  and  C_14
REMARK   12  A    between atoms: C_20  and  O_22
REMARK   13  A    between atoms: O_23  and  C_24
REMARK   14  A    between atoms: C_24  and  C_25
REMARK                            x       y       z     vdW  Elec       q    Type
REMARK                         _______ _______ _______ _____ _____    ______ ____
ROOT
ATOM      1  C   UNK A   1       6.551   6.893  17.298  0.00  0.00    +0.000 C 
ENDROOT
BRANCH   1   2
ATOM      2  N   UNK A   1       5.939   5.988  18.279  0.00  0.00    +0.000 N 
ATOM      3  C   UNK A   0       6.421   4.809  18.737  0.00  0.00    +0.000 C 
ATOM      4  O   UNK A   0       7.542   4.375  18.469  0.00  0.00    +0.000 OA
ATOM      5  H   UNK A   1       4.978   6.159  18.548  0.00  0.00    +0.000 HD
BRANCH   3   6
ATOM      6  O   UNK A   0       5.462   4.165  19.432  0.00  0.00    +0.000 OA
BRANCH   6   7
ATOM      7  C   UNK A   0       4.641   3.271  18.660  0.00  0.00    +0.000 C 
BRANCH   7   8
ATOM      8  C   UNK A   0       3.213   3.294  19.130  0.00  0.00    +0.000 A 
ATOM      9  C   UNK A   0       2.849   4.001  20.283  0.00  0.00    +0.000 A 
ATOM     10  C   UNK A   0       1.538   3.947  20.760  0.00  0.00    +0.000 A 
ATOM     11  C   UNK A   0       0.576   3.209  20.074  0.00  0.00    +0.000 A 
ATOM     12  C   UNK A   0       0.914   2.555  18.890  0.00  0.00    +0.000 A 
ATOM     13  C   UNK A   0       2.224   2.605  18.415  0.00  0.00    +0.000 A 
ENDBRANCH   7   8
ENDBRANCH   6   7
ENDBRANCH   3   6
ENDBRANCH   1   2
BRANCH   1  14
ATOM     14  C   UNK A   1       6.530   6.279  15.887  0.00  0.00    +0.000 C 
ATOM     15  O   UNK A   1       7.482   5.686  15.386  0.00  0.00    +0.000 OA
BRANCH  14  16
ATOM     16  O   UNK A   1       5.348   6.396  15.234  0.00  0.00    +0.000 OA
ATOM     17  H   UNK A   1       5.400   6.262  14.262  0.00  0.00    +0.000 HD
ENDBRANCH  14  16
ENDBRANCH   1  14
BRANCH   1  18
ATOM     18  C   UNK A   1       7.926   7.513  17.642  0.00  0.00    +0.000 C 
BRANCH  18  19
ATOM     19  C   UNK A   1       7.933   9.043  17.798  0.00  0.00    +0.000 C 
BRANCH  19  20
ATOM     20  C   UNK A   1       8.957   9.634  18.755  0.00  0.00    +0.000 C 
BRANCH  20  21
ATOM     21  C   UNK A   1       9.477  10.938  18.169  0.00  0.00    +0.000 C 
BRANCH  21  24
ATOM     22  O   UNK A   1      10.633  13.456  18.035  0.00  0.00    +0.000 OA
ATOM     23  C   UNK A   1       9.713  13.282  18.795  0.00  0.00    +0.000 C 
ATOM     24  N   UNK A   1       9.065  12.068  18.946  0.00  0.00    +0.000 N 
ATOM     25  H   UNK A   1       8.235  11.983  19.512  0.00  0.00    +0.000 HD
BRANCH  23  26
ATOM     26  O   UNK A   1       9.212  14.219  19.658  0.00  0.00    +0.000 OA
BRANCH  26  27
ATOM     27  C   UNK A   1       9.660  14.150  21.028  0.00  0.00    +0.000 C 
BRANCH  27  28
ATOM     28  C   UNK A   1       8.650  13.460  21.903  0.00  0.00    +0.000 A 
ATOM     29  C   UNK A   1       8.970  12.267  22.569  0.00  0.00    +0.000 A 
ATOM     30  C   UNK A   1       8.006  11.605  23.327  0.00  0.00    +0.000 A 
ATOM     31  C   UNK A   1       6.720  12.135  23.434  0.00  0.00    +0.000 A 
ATOM     32  C   UNK A   1       6.400  13.330  22.793  0.00  0.00    +0.000 A 
ATOM     33  C   UNK A   1       7.361  13.992  22.031  0.00  0.00    +0.000 A 
ENDBRANCH  27  28
ENDBRANCH  26  27
ENDBRANCH  23  26
ENDBRANCH  21  24
ENDBRANCH  20  21
ENDBRANCH  19  20
ENDBRANCH  18  19
ENDBRANCH   1  18
TORSDOF 14
ENDMDL
MODEL 9
REMARK VINA RESULT:      -6.9      2.206      3.395
REMARK  Name = 
REMARK  14 active torsions:
REMARK  status: ('A' for Active; 'I' for Inactive)
REMARK    1  A    between atoms: C_2  and  O_23
REMARK    2  A    between atoms: N_3  and  C_4
REMARK    3  A    between atoms: C_4  and  C_5
REMARK    4  A    between atoms: C_5  and  C_6
REMARK    5  A    between atoms: C_6  and  C_7
REMARK    6  A    between atoms: C_7  and  C_8
REMARK    7  A    between atoms: C_8  and  N_9
REMARK    8  A    between atoms: C_8  and  C_20
REMARK    9  A    between atoms: C_10  and  O_12
REMARK   10  A    between atoms: O_12  and  C_13
REMARK   11  A    between atoms: C_13  and  C_14
REMARK   12  A    between atoms: C_20  and  O_22
REMARK   13  A    between atoms: O_23  and  C_24
REMARK   14  A    between atoms: C_24  and  C_25
REMARK                            x       y       z     vdW  Elec       q    Type
REMARK                         _______ _______ _______ _____ _____    ______ ____
ROOT
ATOM      1  C   UNK A   1       2.801   6.226  18.559  0.00  0.00    +0.000 C 
ENDROOT
BRANCH   1   2
ATOM      2  N   UNK A   1       2.150   7.390  19.172  0.00  0.00    +0.000 N 
ATOM      3  C   UNK A   0       1.889   8.591  18.604  0.00  0.00    +0.000 C 
ATOM      4  O   UNK A   0       2.063   8.839  17.410  0.00  0.00    +0.000 OA
ATOM      5  H   UNK A   1       2.006   7.382  20.174  0.00  0.00    +0.000 HD
BRANCH   3   6
ATOM      6  O   UNK A   0       1.511   9.470  19.554  0.00  0.00    +0.000 OA
BRANCH   6   7
ATOM      7  C   UNK A   0       0.172   9.977  19.420  0.00  0.00    +0.000 C 
BRANCH   7   8
ATOM      8  C   UNK A   0      -0.373  10.446  20.742  0.00  0.00    +0.000 A 
ATOM      9  C   UNK A   0      -0.164   9.699  21.908  0.00  0.00    +0.000 A 
ATOM     10  C   UNK A   0      -0.744  10.096  23.114  0.00  0.00    +0.000 A 
ATOM     11  C   UNK A   0      -1.514  11.255  23.169  0.00  0.00    +0.000 A 
ATOM     12  C   UNK A   0      -1.673  12.040  22.028  0.00  0.00    +0.000 A 
ATOM     13  C   UNK A   0      -1.098  11.643  20.822  0.00  0.00    +0.000 A 
ENDBRANCH   7   8
ENDBRANCH   6   7
ENDBRANCH   3   6
ENDBRANCH   1   2
BRANCH   1  14
ATOM     14  C   UNK A   1       1.958   4.952  18.751  0.00  0.00    +0.000 C 
ATOM     15  O   UNK A   1       1.715   4.454  19.847  0.00  0.00    +0.000 OA
BRANCH  14  16
ATOM     16  O   UNK A   1       1.447   4.431  17.609  0.00  0.00    +0.000 OA
ATOM     17  H   UNK A   1       1.714   4.900  16.788  0.00  0.00    +0.000 HD
ENDBRANCH  14  16
ENDBRANCH   1  14
BRANCH   1  18
ATOM     18  C   UNK A   1       4.298   5.984  18.867  0.00  0.00    +0.000 C 
BRANCH  18  19
ATOM     19  C   UNK A   1       4.894   4.707  18.251  0.00  0.00    +0.000 C 
BRANCH  19  20
ATOM     20  C   UNK A   1       5.973   4.892  17.195  0.00  0.00    +0.000 C 
BRANCH  20  21
ATOM     21  C   UNK A   1       7.335   4.745  17.858  0.00  0.00    +0.000 C 
BRANCH  21  24
ATOM     22  O   UNK A   1       7.724   7.185  16.595  0.00  0.00    +0.000 OA
ATOM     23  C   UNK A   1       7.896   7.116  17.787  0.00  0.00    +0.000 C 
ATOM     24  N   UNK A   1       7.734   5.952  18.518  0.00  0.00    +0.000 N 
ATOM     25  H   UNK A   1       7.784   5.953  19.525  0.00  0.00    +0.000 HD
BRANCH  23  26
ATOM     26  O   UNK A   1       8.329   8.142  18.584  0.00  0.00    +0.000 OA
BRANCH  26  27
ATOM     27  C   UNK A   1       8.240   9.475  18.038  0.00  0.00    +0.000 C 
BRANCH  27  28
ATOM     28  C   UNK A   1       9.271  10.388  18.643  0.00  0.00    +0.000 A 
ATOM     29  C   UNK A   1      10.289  10.946  17.855  0.00  0.00    +0.000 A 
ATOM     30  C   UNK A   1      11.273  11.742  18.440  0.00  0.00    +0.000 A 
ATOM     31  C   UNK A   1      11.242  11.992  19.811  0.00  0.00    +0.000 A 
ATOM     32  C   UNK A   1      10.222  11.458  20.597  0.00  0.00    +0.000 A 
ATOM     33  C   UNK A   1       9.239  10.660  20.016  0.00  0.00    +0.000 A 
ENDBRANCH  27  28
ENDBRANCH  26  27
ENDBRANCH  23  26
ENDBRANCH  21  24
ENDBRANCH  20  21
ENDBRANCH  19  20
ENDBRANCH  18  19
ENDBRANCH   1  18
TORSDOF 14
ENDMDL
