MODEL 1
REMARK VINA RESULT:      -7.6      0.000      0.000
REMARK  Name = 
REMARK  15 active torsions:
REMARK  status: ('A' for Active; 'I' for Inactive)
REMARK    1  A    between atoms: C_1  and  C_2
REMARK    2  A    between atoms: C_5  and  S_6
REMARK    3  A    between atoms: S_6  and  N_9
REMARK    4  A    between atoms: N_9  and  C_10
REMARK    5  A    between atoms: C_10  and  C_11
REMARK    6  A    between atoms: C_10  and  C_15
REMARK    7  A    between atoms: C_11  and  C_12
REMARK    8  A    between atoms: C_12  and  C_13
REMARK    9  A    between atoms: C_12  and  C_14
REMARK   10  A    between atoms: N_17  and  CA_18
REMARK   11  A    between atoms: CA_18  and  C_19
REMARK   12  A    between atoms: CA_18  and  CB_21
REMARK   13  A    between atoms: CB_21  and  CG_22
REMARK   14  A    between atoms: CG_22  and  CD1_23
REMARK   15  A    between atoms: CG_22  and  CD2_24
REMARK                            x       y       z     vdW  Elec       q    Type
REMARK                         _______ _______ _______ _____ _____    ______ ____
ROOT
ATOM      1  C   UNK A   0       2.345   5.293  19.647  0.00  0.00    +0.000 C 
ENDROOT
BRANCH   1   2
ATOM      2  C   UNK A   0       2.246   6.830  19.628  0.00  0.00    +0.000 C 
ATOM      3  O   UNK A   0       2.726   7.493  18.712  0.00  0.00    +0.000 OA
ATOM      4  N   LEU A   1       1.607   7.392  20.714  0.00  0.00    +0.000 N 
ATOM      5  H   LEU A   1       1.462   6.811  21.532  0.00  0.00    +0.000 HD
BRANCH   4   6
ATOM      6  CA  LEU A   1       1.436   8.843  20.875  0.00  0.00    +0.000 C 
BRANCH   6   7
ATOM      7  C   LEU A   1       0.554   9.192  22.072  0.00  0.00    +0.000 C 
ATOM      8  O   LEU A   1       0.967   9.670  23.124  0.00  0.00    +0.000 OA
ENDBRANCH   6   7
BRANCH   6   9
ATOM      9  CB  LEU A   1       0.778   9.458  19.628  0.00  0.00    +0.000 C 
BRANCH   9  10
ATOM     10  CG  LEU A   1      -0.177  10.644  19.902  0.00  0.00    +0.000 C 
ATOM     11  CD1 LEU A   1       0.487  12.008  19.712  0.00  0.00    +0.000 C 
ATOM     12  CD2 LEU A   1      -1.394  10.532  18.980  0.00  0.00    +0.000 C 
ENDBRANCH   9  10
ENDBRANCH   6   9
ENDBRANCH   4   6
ENDBRANCH   1   2
BRANCH   1  13
ATOM     13  N   UNK A   0       3.708   4.814  19.992  0.00  0.00    +0.000 NA
ATOM     14  H   UNK A   0       4.277   5.565  20.386  0.00  0.00    +0.000 HD
BRANCH  13  15
ATOM     15  S   UNK A   0       4.568   4.046  18.740  0.00  0.00    +0.000 S 
ATOM     16  O   UNK A   0       3.655   3.815  17.652  0.00  0.00    +0.000 OA
ATOM     17  O   UNK A   0       5.334   2.960  19.335  0.00  0.00    +0.000 OA
BRANCH  15  22
ATOM     18  C   UNK A   0       8.304   8.672  17.775  0.00  0.00    +0.000 C 
ATOM     19  C   UNK A   0       7.465   7.427  17.827  0.00  0.00    +0.000 A 
ATOM     20  C   UNK A   0       6.298   7.301  17.064  0.00  0.00    +0.000 A 
ATOM     21  C   UNK A   0       5.436   6.226  17.280  0.00  0.00    +0.000 A 
ATOM     22  C   UNK A   0       5.754   5.265  18.253  0.00  0.00    +0.000 A 
ATOM     23  C   UNK A   0       6.969   5.329  18.939  0.00  0.00    +0.000 A 
ATOM     24  C   UNK A   0       7.820   6.413  18.724  0.00  0.00    +0.000 A 
ENDBRANCH  15  22
ENDBRANCH  13  15
ENDBRANCH   1  13
BRANCH   1  25
ATOM     25  C   UNK A   0       1.348   4.810  20.714  0.00  0.00    +0.000 C 
BRANCH  25  26
ATOM     26  C   UNK A   0       0.997   3.311  20.712  0.00  0.00    +0.000 C 
ATOM     27  C   UNK A   0       0.888   2.821  19.261  0.00  0.00    +0.000 C 
ATOM     28  C   UNK A   0       2.004   2.443  21.465  0.00  0.00    +0.000 C 
ENDBRANCH  25  26
ENDBRANCH   1  25
TORSDOF 10
ENDMDL
MODEL 2
REMARK VINA RESULT:      -7.4      3.437      7.877
REMARK  Name = 
REMARK  15 active torsions:
REMARK  status: ('A' for Active; 'I' for Inactive)
REMARK    1  A    between atoms: C_1  and  C_2
REMARK    2  A    between atoms: C_5  and  S_6
REMARK    3  A    between atoms: S_6  and  N_9
REMARK    4  A    between atoms: N_9  and  C_10
REMARK    5  A    between atoms: C_10  and  C_11
REMARK    6  A    between atoms: C_10  and  C_15
REMARK    7  A    between atoms: C_11  and  C_12
REMARK    8  A    between atoms: C_12  and  C_13
REMARK    9  A    between atoms: C_12  and  C_14
REMARK   10  A    between atoms: N_17  and  CA_18
REMARK   11  A    between atoms: CA_18  and  C_19
REMARK   12  A    between atoms: CA_18  and  CB_21
REMARK   13  A    between atoms: CB_21  and  CG_22
REMARK   14  A    between atoms: CG_22  and  CD1_23
REMARK   15  A    between atoms: CG_22  and  CD2_24
REMARK                            x       y       z     vdW  Elec       q    Type
REMARK                         _______ _______ _______ _____ _____    ______ ____
ROOT
ATOM      1  C   UNK A   0       6.056   4.887  17.810  0.00  0.00    +0.000 C 
ENDROOT
BRANCH   1   2
ATOM      2  C   UNK A   0       6.747   4.438  16.508  0.00  0.00    +0.000 C 
ATOM      3  O   UNK A   0       7.921   4.078  16.495  0.00  0.00    +0.000 OA
ATOM      4  N   LEU A   1       5.960   4.494  15.375  0.00  0.00    +0.000 N 
ATOM      5  H   LEU A   1       5.098   5.026  15.422  0.00  0.00    +0.000 HD
BRANCH   4   6
ATOM      6  CA  LEU A   1       6.454   4.122  14.042  0.00  0.00    +0.000 C 
BRANCH   6   7
ATOM      7  C   LEU A   1       7.600   5.018  13.579  0.00  0.00    +0.000 C 
ATOM      8  O   LEU A   1       7.861   5.263  12.405  0.00  0.00    +0.000 OA
ENDBRANCH   6   7
BRANCH   6   9
ATOM      9  CB  LEU A   1       5.335   4.232  12.993  0.00  0.00    +0.000 C 
BRANCH   9  10
ATOM     10  CG  LEU A   1       5.002   2.923  12.241  0.00  0.00    +0.000 C 
ATOM     11  CD1 LEU A   1       3.981   3.116  11.119  0.00  0.00    +0.000 C 
ATOM     12  CD2 LEU A   1       6.291   2.330  11.666  0.00  0.00    +0.000 C 
ENDBRANCH   9  10
ENDBRANCH   6   9
ENDBRANCH   4   6
ENDBRANCH   1   2
BRANCH   1  13
ATOM     13  N   UNK A   0       5.756   3.749  18.717  0.00  0.00    +0.000 NA
ATOM     14  H   UNK A   0       6.432   2.992  18.599  0.00  0.00    +0.000 HD
BRANCH  13  15
ATOM     15  S   UNK A   0       4.177   3.121  18.628  0.00  0.00    +0.000 S 
ATOM     16  O   UNK A   0       4.065   2.061  19.594  0.00  0.00    +0.000 OA
ATOM     17  O   UNK A   0       3.869   2.905  17.221  0.00  0.00    +0.000 OA
BRANCH  15  22
ATOM     18  C   UNK A   0       1.499   8.110  20.686  0.00  0.00    +0.000 C 
ATOM     19  C   UNK A   0       1.956   6.799  20.112  0.00  0.00    +0.000 A 
ATOM     20  C   UNK A   0       1.892   5.614  20.855  0.00  0.00    +0.000 A 
ATOM     21  C   UNK A   0       2.503   4.457  20.376  0.00  0.00    +0.000 A 
ATOM     22  C   UNK A   0       3.169   4.482  19.139  0.00  0.00    +0.000 A 
ATOM     23  C   UNK A   0       3.142   5.631  18.346  0.00  0.00    +0.000 A 
ATOM     24  C   UNK A   0       2.536   6.788  18.838  0.00  0.00    +0.000 A 
ENDBRANCH  15  22
ENDBRANCH  13  15
ENDBRANCH   1  13
BRANCH   1  25
ATOM     25  C   UNK A   0       7.032   5.851  18.506  0.00  0.00    +0.000 C 
BRANCH  25  26
ATOM     26  C   UNK A   0       7.459   7.101  17.716  0.00  0.00    +0.000 C 
ATOM     27  C   UNK A   0       6.205   7.847  17.237  0.00  0.00    +0.000 C 
ATOM     28  C   UNK A   0       8.346   8.058  18.511  0.00  0.00    +0.000 C 
ENDBRANCH  25  26
ENDBRANCH   1  25
TORSDOF 10
ENDMDL
MODEL 3
REMARK VINA RESULT:      -7.3      1.824      2.508
REMARK  Name = 
REMARK  15 active torsions:
REMARK  status: ('A' for Active; 'I' for Inactive)
REMARK    1  A    between atoms: C_1  and  C_2
REMARK    2  A    between atoms: C_5  and  S_6
REMARK    3  A    between atoms: S_6  and  N_9
REMARK    4  A    between atoms: N_9  and  C_10
REMARK    5  A    between atoms: C_10  and  C_11
REMARK    6  A    between atoms: C_10  and  C_15
REMARK    7  A    between atoms: C_11  and  C_12
REMARK    8  A    between atoms: C_12  and  C_13
REMARK    9  A    between atoms: C_12  and  C_14
REMARK   10  A    between atoms: N_17  and  CA_18
REMARK   11  A    between atoms: CA_18  and  C_19
REMARK   12  A    between atoms: CA_18  and  CB_21
REMARK   13  A    between atoms: CB_21  and  CG_22
REMARK   14  A    between atoms: CG_22  and  CD1_23
REMARK   15  A    between atoms: CG_22  and  CD2_24
REMARK                            x       y       z     vdW  Elec       q    Type
REMARK                         _______ _______ _______ _____ _____    ______ ____
ROOT
ATOM      1  C   UNK A   0       3.279   5.943  18.375  0.00  0.00    +0.000 C 
ENDROOT
BRANCH   1   2
ATOM      2  C   UNK A   0       2.854   7.424  18.401  0.00  0.00    +0.000 C 
ATOM      3  O   UNK A   0       3.296   8.232  17.590  0.00  0.00    +0.000 OA
ATOM      4  N   LEU A   1       1.972   7.765  19.406  0.00  0.00    +0.000 N 
ATOM      5  H   LEU A   1       1.850   7.112  20.172  0.00  0.00    +0.000 HD
BRANCH   4   6
ATOM      6  CA  LEU A   1       1.472   9.133  19.597  0.00  0.00    +0.000 C 
BRANCH   6   7
ATOM      7  C   LEU A   1       0.781   9.314  20.946  0.00  0.00    +0.000 C 
ATOM      8  O   LEU A   1       1.207  10.017  21.857  0.00  0.00    +0.000 OA
ENDBRANCH   6   7
BRANCH   6   9
ATOM      9  CB  LEU A   1       0.451   9.500  18.507  0.00  0.00    +0.000 C 
BRANCH   9  10
ATOM     10  CG  LEU A   1      -0.615  10.541  18.924  0.00  0.00    +0.000 C 
ATOM     11  CD1 LEU A   1      -0.155  11.986  18.725  0.00  0.00    +0.000 C 
ATOM     12  CD2 LEU A   1      -1.898  10.295  18.125  0.00  0.00    +0.000 C 
ENDBRANCH   9  10
ENDBRANCH   6   9
ENDBRANCH   4   6
ENDBRANCH   1   2
BRANCH   1  13
ATOM     13  N   UNK A   0       4.072   5.556  19.570  0.00  0.00    +0.000 NA
ATOM     14  H   UNK A   0       4.316   6.373  20.134  0.00  0.00    +0.000 HD
BRANCH  13  15
ATOM     15  S   UNK A   0       5.470   4.632  19.271  0.00  0.00    +0.000 S 
ATOM     16  O   UNK A   0       5.194   3.273  19.653  0.00  0.00    +0.000 OA
ATOM     17  O   UNK A   0       6.604   5.362  19.820  0.00  0.00    +0.000 OA
BRANCH  15  22
ATOM     18  C   UNK A   0       6.631   4.237  13.373  0.00  0.00    +0.000 C 
ATOM     19  C   UNK A   0       6.210   4.515  14.788  0.00  0.00    +0.000 A 
ATOM     20  C   UNK A   0       6.850   5.490  15.563  0.00  0.00    +0.000 A 
ATOM     21  C   UNK A   0       6.576   5.589  16.926  0.00  0.00    +0.000 A 
ATOM     22  C   UNK A   0       5.645   4.717  17.513  0.00  0.00    +0.000 A 
ATOM     23  C   UNK A   0       4.925   3.816  16.724  0.00  0.00    +0.000 A 
ATOM     24  C   UNK A   0       5.214   3.717  15.363  0.00  0.00    +0.000 A 
ENDBRANCH  15  22
ENDBRANCH  13  15
ENDBRANCH   1  13
BRANCH   1  25
ATOM     25  C   UNK A   0       1.979   5.121  18.337  0.00  0.00    +0.000 C 
BRANCH  25  26
ATOM     26  C   UNK A   0       1.923   3.865  19.224  0.00  0.00    +0.000 C 
ATOM     27  C   UNK A   0       0.894   4.084  20.343  0.00  0.00    +0.000 C 
ATOM     28  C   UNK A   0       1.577   2.588  18.460  0.00  0.00    +0.000 C 
ENDBRANCH  25  26
ENDBRANCH   1  25
TORSDOF 10
ENDMDL
MODEL 4
REMARK VINA RESULT:      -7.2      3.488      7.971
REMARK  Name = 
REMARK  15 active torsions:
REMARK  status: ('A' for Active; 'I' for Inactive)
REMARK    1  A    between atoms: C_1  and  C_2
REMARK    2  A    between atoms: C_5  and  S_6
REMARK    3  A    between atoms: S_6  and  N_9
REMARK    4  A    between atoms: N_9  and  C_10
REMARK    5  A    between atoms: C_10  and  C_11
REMARK    6  A    between atoms: C_10  and  C_15
REMARK    7  A    between atoms: C_11  and  C_12
REMARK    8  A    between atoms: C_12  and  C_13
REMARK    9  A    between atoms: C_12  and  C_14
REMARK   10  A    between atoms: N_17  and  CA_18
REMARK   11  A    between atoms: CA_18  and  C_19
REMARK   12  A    between atoms: CA_18  and  CB_21
REMARK   13  A    between atoms: CB_21  and  CG_22
REMARK   14  A    between atoms: CG_22  and  CD1_23
REMARK   15  A    between atoms: CG_22  and  CD2_24
REMARK                            x       y       z     vdW  Elec       q    Type
REMARK                         _______ _______ _______ _____ _____    ______ ____
ROOT
ATOM      1  C   UNK A   0       4.728   6.064  17.015  0.00  0.00    +0.000 C 
ENDROOT
BRANCH   1   2
ATOM      2  C   UNK A   0       5.187   4.851  16.182  0.00  0.00    +0.000 C 
ATOM      3  O   UNK A   0       5.064   3.703  16.599  0.00  0.00    +0.000 OA
ATOM      4  N   LEU A   1       5.756   5.157  14.963  0.00  0.00    +0.000 N 
ATOM      5  H   LEU A   1       6.044   6.116  14.801  0.00  0.00    +0.000 HD
BRANCH   4   6
ATOM      6  CA  LEU A   1       6.268   4.132  14.043  0.00  0.00    +0.000 C 
BRANCH   6   7
ATOM      7  C   LEU A   1       7.228   4.711  13.007  0.00  0.00    +0.000 C 
ATOM      8  O   LEU A   1       8.105   5.534  13.255  0.00  0.00    +0.000 OA
ENDBRANCH   6   7
BRANCH   6   9
ATOM      9  CB  LEU A   1       5.116   3.463  13.274  0.00  0.00    +0.000 C 
BRANCH   9  10
ATOM     10  CG  LEU A   1       5.388   3.198  11.774  0.00  0.00    +0.000 C 
ATOM     11  CD1 LEU A   1       5.909   1.787  11.497  0.00  0.00    +0.000 C 
ATOM     12  CD2 LEU A   1       4.101   3.436  10.980  0.00  0.00    +0.000 C 
ENDBRANCH   9  10
ENDBRANCH   6   9
ENDBRANCH   4   6
ENDBRANCH   1   2
BRANCH   1  13
ATOM     13  N   UNK A   0       4.551   5.733  18.453  0.00  0.00    +0.000 NA
ATOM     14  H   UNK A   0       5.104   4.915  18.716  0.00  0.00    +0.000 HD
BRANCH  13  15
ATOM     15  S   UNK A   0       2.945   5.527  18.978  0.00  0.00    +0.000 S 
ATOM     16  O   UNK A   0       2.979   4.928  20.286  0.00  0.00    +0.000 OA
ATOM     17  O   UNK A   0       2.198   4.924  17.884  0.00  0.00    +0.000 OA
BRANCH  15  22
ATOM     18  C   UNK A   0       0.093  10.820  19.359  0.00  0.00    +0.000 C 
ATOM     19  C   UNK A   0       0.997   9.623  19.279  0.00  0.00    +0.000 A 
ATOM     20  C   UNK A   0       1.586   9.232  18.071  0.00  0.00    +0.000 A 
ATOM     21  C   UNK A   0       2.254   8.011  17.983  0.00  0.00    +0.000 A 
ATOM     22  C   UNK A   0       2.346   7.186  19.115  0.00  0.00    +0.000 A 
ATOM     23  C   UNK A   0       1.855   7.621  20.349  0.00  0.00    +0.000 A 
ATOM     24  C   UNK A   0       1.180   8.839  20.425  0.00  0.00    +0.000 A 
ENDBRANCH  15  22
ENDBRANCH  13  15
ENDBRANCH   1  13
BRANCH   1  25
ATOM     25  C   UNK A   0       5.827   7.129  16.868  0.00  0.00    +0.000 C 
BRANCH  25  26
ATOM     26  C   UNK A   0       6.929   7.146  17.942  0.00  0.00    +0.000 C 
ATOM     27  C   UNK A   0       7.666   5.800  17.929  0.00  0.00    +0.000 C 
ATOM     28  C   UNK A   0       7.939   8.280  17.768  0.00  0.00    +0.000 C 
ENDBRANCH  25  26
ENDBRANCH   1  25
TORSDOF 10
ENDMDL
MODEL 5
REMARK VINA RESULT:      -7.2      3.320      6.071
REMARK  Name = 
REMARK  15 active torsions:
REMARK  status: ('A' for Active; 'I' for Inactive)
REMARK    1  A    between atoms: C_1  and  C_2
REMARK    2  A    between atoms: C_5  and  S_6
REMARK    3  A    between atoms: S_6  and  N_9
REMARK    4  A    between atoms: N_9  and  C_10
REMARK    5  A    between atoms: C_10  and  C_11
REMARK    6  A    between atoms: C_10  and  C_15
REMARK    7  A    between atoms: C_11  and  C_12
REMARK    8  A    between atoms: C_12  and  C_13
REMARK    9  A    between atoms: C_12  and  C_14
REMARK   10  A    between atoms: N_17  and  CA_18
REMARK   11  A    between atoms: CA_18  and  C_19
REMARK   12  A    between atoms: CA_18  and  CB_21
REMARK   13  A    between atoms: CB_21  and  CG_22
REMARK   14  A    between atoms: CG_22  and  CD1_23
REMARK   15  A    between atoms: CG_22  and  CD2_24
REMARK                            x       y       z     vdW  Elec       q    Type
REMARK                         _______ _______ _______ _____ _____    ______ ____
ROOT
ATOM      1  C   UNK A   0       4.148   6.532  17.769  0.00  0.00    +0.000 C 
ENDROOT
BRANCH   1   2
ATOM      2  C   UNK A   0       3.940   5.282  18.647  0.00  0.00    +0.000 C 
ATOM      3  O   UNK A   0       4.456   5.185  19.757  0.00  0.00    +0.000 OA
ATOM      4  N   LEU A   1       3.161   4.292  18.084  0.00  0.00    +0.000 N 
ATOM      5  H   LEU A   1       2.981   4.338  17.087  0.00  0.00    +0.000 HD
BRANCH   4   6
ATOM      6  CA  LEU A   1       2.870   3.023  18.766  0.00  0.00    +0.000 C 
BRANCH   6   7
ATOM      7  C   LEU A   1       3.345   1.813  17.965  0.00  0.00    +0.000 C 
ATOM      8  O   LEU A   1       3.978   0.873  18.435  0.00  0.00    +0.000 OA
ENDBRANCH   6   7
BRANCH   6   9
ATOM      9  CB  LEU A   1       1.357   2.858  18.992  0.00  0.00    +0.000 C 
BRANCH   9  10
ATOM     10  CG  LEU A   1       0.855   3.226  20.408  0.00  0.00    +0.000 C 
ATOM     11  CD1 LEU A   1       1.609   2.498  21.522  0.00  0.00    +0.000 C 
ATOM     12  CD2 LEU A   1       0.978   4.738  20.608  0.00  0.00    +0.000 C 
ENDBRANCH   9  10
ENDBRANCH   6   9
ENDBRANCH   4   6
ENDBRANCH   1   2
BRANCH   1  13
ATOM     13  N   UNK A   0       4.661   6.198  16.415  0.00  0.00    +0.000 NA
ATOM     14  H   UNK A   0       4.049   5.532  15.941  0.00  0.00    +0.000 HD
BRANCH  13  15
ATOM     15  S   UNK A   0       6.269   5.647  16.342  0.00  0.00    +0.000 S 
ATOM     16  O   UNK A   0       6.414   4.575  17.291  0.00  0.00    +0.000 OA
ATOM     17  O   UNK A   0       7.136   6.816  16.375  0.00  0.00    +0.000 OA
BRANCH  15  22
ATOM     18  C   UNK A   0       7.114   2.717  11.146  0.00  0.00    +0.000 C 
ATOM     19  C   UNK A   0       6.815   3.616  12.313  0.00  0.00    +0.000 A 
ATOM     20  C   UNK A   0       7.688   4.645  12.685  0.00  0.00    +0.000 A 
ATOM     21  C   UNK A   0       7.489   5.330  13.883  0.00  0.00    +0.000 A 
ATOM     22  C   UNK A   0       6.401   4.993  14.704  0.00  0.00    +0.000 A 
ATOM     23  C   UNK A   0       5.467   4.043  14.285  0.00  0.00    +0.000 A 
ATOM     24  C   UNK A   0       5.680   3.355  13.090  0.00  0.00    +0.000 A 
ENDBRANCH  15  22
ENDBRANCH  13  15
ENDBRANCH   1  13
BRANCH   1  25
ATOM     25  C   UNK A   0       2.770   7.204  17.642  0.00  0.00    +0.000 C 
BRANCH  25  26
ATOM     26  C   UNK A   0       2.519   8.448  18.514  0.00  0.00    +0.000 C 
ATOM     27  C   UNK A   0       1.657   9.447  17.729  0.00  0.00    +0.000 C 
ATOM     28  C   UNK A   0       1.845   8.136  19.850  0.00  0.00    +0.000 C 
ENDBRANCH  25  26
ENDBRANCH   1  25
TORSDOF 10
ENDMDL
MODEL 6
REMARK VINA RESULT:      -7.1      3.381      7.981
REMARK  Name = 
REMARK  15 active torsions:
REMARK  status: ('A' for Active; 'I' for Inactive)
REMARK    1  A    between atoms: C_1  and  C_2
REMARK    2  A    between atoms: C_5  and  S_6
REMARK    3  A    between atoms: S_6  and  N_9
REMARK    4  A    between atoms: N_9  and  C_10
REMARK    5  A    between atoms: C_10  and  C_11
REMARK    6  A    between atoms: C_10  and  C_15
REMARK    7  A    between atoms: C_11  and  C_12
REMARK    8  A    between atoms: C_12  and  C_13
REMARK    9  A    between atoms: C_12  and  C_14
REMARK   10  A    between atoms: N_17  and  CA_18
REMARK   11  A    between atoms: CA_18  and  C_19
REMARK   12  A    between atoms: CA_18  and  CB_21
REMARK   13  A    between atoms: CB_21  and  CG_22
REMARK   14  A    between atoms: CG_22  and  CD1_23
REMARK   15  A    between atoms: CG_22  and  CD2_24
REMARK                            x       y       z     vdW  Elec       q    Type
REMARK                         _______ _______ _______ _____ _____    ______ ____
ROOT
ATOM      1  C   UNK A   0       6.547   5.495  17.949  0.00  0.00    +0.000 C 
ENDROOT
BRANCH   1   2
ATOM      2  C   UNK A   0       7.173   4.755  16.751  0.00  0.00    +0.000 C 
ATOM      3  O   UNK A   0       8.214   4.113  16.867  0.00  0.00    +0.000 OA
ATOM      4  N   LEU A   1       6.495   4.890  15.557  0.00  0.00    +0.000 N 
ATOM      5  H   LEU A   1       5.798   5.623  15.487  0.00  0.00    +0.000 HD
BRANCH   4   6
ATOM      6  CA  LEU A   1       6.953   4.270  14.306  0.00  0.00    +0.000 C 
BRANCH   6   7
ATOM      7  C   LEU A   1       7.430   5.304  13.289  0.00  0.00    +0.000 C 
ATOM      8  O   LEU A   1       8.534   5.837  13.304  0.00  0.00    +0.000 OA
ENDBRANCH   6   7
BRANCH   6   9
ATOM      9  CB  LEU A   1       5.820   3.467  13.646  0.00  0.00    +0.000 C 
BRANCH   9  10
ATOM     10  CG  LEU A   1       5.871   3.398  12.102  0.00  0.00    +0.000 C 
ATOM     11  CD1 LEU A   1       6.652   2.192  11.578  0.00  0.00    +0.000 C 
ATOM     12  CD2 LEU A   1       4.443   3.364  11.551  0.00  0.00    +0.000 C 
ENDBRANCH   9  10
ENDBRANCH   6   9
ENDBRANCH   4   6
ENDBRANCH   1   2
BRANCH   1  13
ATOM     13  N   UNK A   0       6.206   4.580  19.069  0.00  0.00    +0.000 NA
ATOM     14  H   UNK A   0       6.975   3.939  19.272  0.00  0.00    +0.000 HD
BRANCH  13  15
ATOM     15  S   UNK A   0       4.760   3.699  18.897  0.00  0.00    +0.000 S 
ATOM     16  O   UNK A   0       4.772   2.633  19.864  0.00  0.00    +0.000 OA
ATOM     17  O   UNK A   0       4.571   3.438  17.478  0.00  0.00    +0.000 OA
BRANCH  15  22
ATOM     18  C   UNK A   0       1.151   8.087  20.901  0.00  0.00    +0.000 C 
ATOM     19  C   UNK A   0       1.865   6.912  20.295  0.00  0.00    +0.000 A 
ATOM     20  C   UNK A   0       1.821   5.645  20.890  0.00  0.00    +0.000 A 
ATOM     21  C   UNK A   0       2.649   4.626  20.422  0.00  0.00    +0.000 A 
ATOM     22  C   UNK A   0       3.513   4.872  19.343  0.00  0.00    +0.000 A 
ATOM     23  C   UNK A   0       3.481   6.100  18.678  0.00  0.00    +0.000 A 
ATOM     24  C   UNK A   0       2.656   7.118  19.160  0.00  0.00    +0.000 A 
ENDBRANCH  15  22
ENDBRANCH  13  15
ENDBRANCH   1  13
BRANCH   1  25
ATOM     25  C   UNK A   0       7.597   6.514  18.424  0.00  0.00    +0.000 C 
BRANCH  25  26
ATOM     26  C   UNK A   0       7.266   8.003  18.219  0.00  0.00    +0.000 C 
ATOM     27  C   UNK A   0       8.574   8.797  18.090  0.00  0.00    +0.000 C 
ATOM     28  C   UNK A   0       6.385   8.275  17.000  0.00  0.00    +0.000 C 
ENDBRANCH  25  26
ENDBRANCH   1  25
TORSDOF 10
ENDMDL
MODEL 7
REMARK VINA RESULT:      -7.0      1.966      2.943
REMARK  Name = 
REMARK  15 active torsions:
REMARK  status: ('A' for Active; 'I' for Inactive)
REMARK    1  A    between atoms: C_1  and  C_2
REMARK    2  A    between atoms: C_5  and  S_6
REMARK    3  A    between atoms: S_6  and  N_9
REMARK    4  A    between atoms: N_9  and  C_10
REMARK    5  A    between atoms: C_10  and  C_11
REMARK    6  A    between atoms: C_10  and  C_15
REMARK    7  A    between atoms: C_11  and  C_12
REMARK    8  A    between atoms: C_12  and  C_13
REMARK    9  A    between atoms: C_12  and  C_14
REMARK   10  A    between atoms: N_17  and  CA_18
REMARK   11  A    between atoms: CA_18  and  C_19
REMARK   12  A    between atoms: CA_18  and  CB_21
REMARK   13  A    between atoms: CB_21  and  CG_22
REMARK   14  A    between atoms: CG_22  and  CD1_23
REMARK   15  A    between atoms: CG_22  and  CD2_24
REMARK                            x       y       z     vdW  Elec       q    Type
REMARK                         _______ _______ _______ _____ _____    ______ ____
ROOT
ATOM      1  C   UNK A   0       3.262   5.323  19.398  0.00  0.00    +0.000 C 
ENDROOT
BRANCH   1   2
ATOM      2  C   UNK A   0       2.376   6.535  19.051  0.00  0.00    +0.000 C 
ATOM      3  O   UNK A   0       1.994   6.743  17.903  0.00  0.00    +0.000 OA
ATOM      4  N   LEU A   1       2.073   7.364  20.112  0.00  0.00    +0.000 N 
ATOM      5  H   LEU A   1       2.618   7.268  20.961  0.00  0.00    +0.000 HD
BRANCH   4   6
ATOM      6  CA  LEU A   1       1.256   8.577  19.966  0.00  0.00    +0.000 C 
BRANCH   6   7
ATOM      7  C   LEU A   1       1.811   9.526  18.908  0.00  0.00    +0.000 C 
ATOM      8  O   LEU A   1       1.178   9.936  17.940  0.00  0.00    +0.000 OA
ENDBRANCH   6   7
BRANCH   6   9
ATOM      9  CB  LEU A   1       1.192   9.356  21.291  0.00  0.00    +0.000 C 
BRANCH   9  10
ATOM     10  CG  LEU A   1      -0.225   9.786  21.738  0.00  0.00    +0.000 C 
ATOM     11  CD1 LEU A   1      -0.436   9.686  23.250  0.00  0.00    +0.000 C 
ATOM     12  CD2 LEU A   1      -0.485  11.222  21.276  0.00  0.00    +0.000 C 
ENDBRANCH   9  10
ENDBRANCH   6   9
ENDBRANCH   4   6
ENDBRANCH   1   2
BRANCH   1  13
ATOM     13  N   UNK A   0       4.660   5.712  19.721  0.00  0.00    +0.000 NA
ATOM     14  H   UNK A   0       4.896   6.617  19.310  0.00  0.00    +0.000 HD
BRANCH  13  15
ATOM     15  S   UNK A   0       5.861   4.575  19.324  0.00  0.00    +0.000 S 
ATOM     16  O   UNK A   0       5.390   3.275  19.722  0.00  0.00    +0.000 OA
ATOM     17  O   UNK A   0       7.136   5.099  19.793  0.00  0.00    +0.000 OA
BRANCH  15  22
ATOM     18  C   UNK A   0       6.360   3.991  13.348  0.00  0.00    +0.000 C 
ATOM     19  C   UNK A   0       6.177   4.353  14.795  0.00  0.00    +0.000 A 
ATOM     20  C   UNK A   0       7.190   4.991  15.522  0.00  0.00    +0.000 A 
ATOM     21  C   UNK A   0       7.072   5.135  16.903  0.00  0.00    +0.000 A 
ATOM     22  C   UNK A   0       5.927   4.652  17.558  0.00  0.00    +0.000 A 
ATOM     23  C   UNK A   0       4.868   4.114  16.824  0.00  0.00    +0.000 A 
ATOM     24  C   UNK A   0       4.999   3.965  15.443  0.00  0.00    +0.000 A 
ENDBRANCH  15  22
ENDBRANCH  13  15
ENDBRANCH   1  13
BRANCH   1  25
ATOM     25  C   UNK A   0       2.621   4.657  20.628  0.00  0.00    +0.000 C 
BRANCH  25  26
ATOM     26  C   UNK A   0       2.053   3.240  20.435  0.00  0.00    +0.000 C 
ATOM     27  C   UNK A   0       1.758   2.624  21.811  0.00  0.00    +0.000 C 
ATOM     28  C   UNK A   0       0.788   3.196  19.578  0.00  0.00    +0.000 C 
ENDBRANCH  25  26
ENDBRANCH   1  25
TORSDOF 10
ENDMDL
MODEL 8
REMARK VINA RESULT:      -7.0      3.718      7.582
REMARK  Name = 
REMARK  15 active torsions:
REMARK  status: ('A' for Active; 'I' for Inactive)
REMARK    1  A    between atoms: C_1  and  C_2
REMARK    2  A    between atoms: C_5  and  S_6
REMARK    3  A    between atoms: S_6  and  N_9
REMARK    4  A    between atoms: N_9  and  C_10
REMARK    5  A    between atoms: C_10  and  C_11
REMARK    6  A    between atoms: C_10  and  C_15
REMARK    7  A    between atoms: C_11  and  C_12
REMARK    8  A    between atoms: C_12  and  C_13
REMARK    9  A    between atoms: C_12  and  C_14
REMARK   10  A    between atoms: N_17  and  CA_18
REMARK   11  A    between atoms: CA_18  and  C_19
REMARK   12  A    between atoms: CA_18  and  CB_21
REMARK   13  A    between atoms: CB_21  and  CG_22
REMARK   14  A    between atoms: CG_22  and  CD1_23
REMARK   15  A    between atoms: CG_22  and  CD2_24
REMARK                            x       y       z     vdW  Elec       q    Type
REMARK                         _______ _______ _______ _____ _____    ______ ____
ROOT
ATOM      1  C   UNK A   0       4.977   6.216  17.106  0.00  0.00    +0.000 C 
ENDROOT
BRANCH   1   2
ATOM      2  C   UNK A   0       5.367   5.890  15.652  0.00  0.00    +0.000 C 
ATOM      3  O   UNK A   0       5.194   6.699  14.744  0.00  0.00    +0.000 OA
ATOM      4  N   LEU A   1       5.895   4.631  15.452  0.00  0.00    +0.000 N 
ATOM      5  H   LEU A   1       5.778   3.945  16.190  0.00  0.00    +0.000 HD
BRANCH   4   6
ATOM      6  CA  LEU A   1       6.307   4.140  14.130  0.00  0.00    +0.000 C 
BRANCH   6   7
ATOM      7  C   LEU A   1       6.940   5.236  13.277  0.00  0.00    +0.000 C 
ATOM      8  O   LEU A   1       8.134   5.519  13.282  0.00  0.00    +0.000 OA
ENDBRANCH   6   7
BRANCH   6   9
ATOM      9  CB  LEU A   1       5.100   3.592  13.350  0.00  0.00    +0.000 C 
BRANCH   9  10
ATOM     10  CG  LEU A   1       5.368   3.267  11.861  0.00  0.00    +0.000 C 
ATOM     11  CD1 LEU A   1       6.050   1.914  11.653  0.00  0.00    +0.000 C 
ATOM     12  CD2 LEU A   1       4.044   3.299  11.093  0.00  0.00    +0.000 C 
ENDBRANCH   9  10
ENDBRANCH   6   9
ENDBRANCH   4   6
ENDBRANCH   1   2
BRANCH   1  13
ATOM     13  N   UNK A   0       6.160   6.384  17.989  0.00  0.00    +0.000 NA
ATOM     14  H   UNK A   0       6.967   6.730  17.467  0.00  0.00    +0.000 HD
BRANCH  13  15
ATOM     15  S   UNK A   0       6.613   5.017  18.897  0.00  0.00    +0.000 S 
ATOM     16  O   UNK A   0       7.143   5.475  20.154  0.00  0.00    +0.000 OA
ATOM     17  O   UNK A   0       7.379   4.142  18.021  0.00  0.00    +0.000 OA
BRANCH  15  22
ATOM     18  C   UNK A   0       1.075   2.662  19.167  0.00  0.00    +0.000 C 
ATOM     19  C   UNK A   0       2.499   3.125  19.287  0.00  0.00    +0.000 A 
ATOM     20  C   UNK A   0       2.858   4.167  20.150  0.00  0.00    +0.000 A 
ATOM     21  C   UNK A   0       4.142   4.707  20.095  0.00  0.00    +0.000 A 
ATOM     22  C   UNK A   0       5.075   4.191  19.182  0.00  0.00    +0.000 A 
ATOM     23  C   UNK A   0       4.756   3.081  18.397  0.00  0.00    +0.000 A 
ATOM     24  C   UNK A   0       3.465   2.553  18.451  0.00  0.00    +0.000 A 
ENDBRANCH  15  22
ENDBRANCH  13  15
ENDBRANCH   1  13
BRANCH   1  25
ATOM     25  C   UNK A   0       4.186   7.534  17.056  0.00  0.00    +0.000 C 
BRANCH  25  26
ATOM     26  C   UNK A   0       2.979   7.659  18.004  0.00  0.00    +0.000 C 
ATOM     27  C   UNK A   0       2.295   9.014  17.772  0.00  0.00    +0.000 C 
ATOM     28  C   UNK A   0       1.953   6.538  17.844  0.00  0.00    +0.000 C 
ENDBRANCH  25  26
ENDBRANCH   1  25
TORSDOF 10
ENDMDL
MODEL 9
REMARK VINA RESULT:      -6.9      1.810      2.258
REMARK  Name = 
REMARK  15 active torsions:
REMARK  status: ('A' for Active; 'I' for Inactive)
REMARK    1  A    between atoms: C_1  and  C_2
REMARK    2  A    between atoms: C_5  and  S_6
REMARK    3  A    between atoms: S_6  and  N_9
REMARK    4  A    between atoms: N_9  and  C_10
REMARK    5  A    between atoms: C_10  and  C_11
REMARK    6  A    between atoms: C_10  and  C_15
REMARK    7  A    between atoms: C_11  and  C_12
REMARK    8  A    between atoms: C_12  and  C_13
REMARK    9  A    between atoms: C_12  and  C_14
REMARK   10  A    between atoms: N_17  and  CA_18
REMARK   11  A    between atoms: CA_18  and  C_19
REMARK   12  A    between atoms: CA_18  and  CB_21
REMARK   13  A    between atoms: CB_21  and  CG_22
REMARK   14  A    between atoms: CG_22  and  CD1_23
REMARK   15  A    between atoms: CG_22  and  CD2_24
REMARK                            x       y       z     vdW  Elec       q    Type
REMARK                         _______ _______ _______ _____ _____    ______ ____
ROOT
ATOM      1  C   UNK A   0       2.670   5.763  19.064  0.00  0.00    +0.000 C 
ENDROOT
BRANCH   1   2
ATOM      2  C   UNK A   0       2.322   7.244  19.310  0.00  0.00    +0.000 C 
ATOM      3  O   UNK A   0       2.577   8.110  18.478  0.00  0.00    +0.000 OA
ATOM      4  N   LEU A   1       1.734   7.515  20.528  0.00  0.00    +0.000 N 
ATOM      5  H   LEU A   1       1.782   6.803  21.248  0.00  0.00    +0.000 HD
BRANCH   4   6
ATOM      6  CA  LEU A   1       1.350   8.871  20.943  0.00  0.00    +0.000 C 
BRANCH   6   7
ATOM      7  C   LEU A   1       1.350   9.033  22.462  0.00  0.00    +0.000 C 
ATOM      8  O   LEU A   1       0.774   9.934  23.065  0.00  0.00    +0.000 OA
ENDBRANCH   6   7
BRANCH   6   9
ATOM      9  CB  LEU A   1      -0.064   9.216  20.447  0.00  0.00    +0.000 C 
BRANCH   9  10
ATOM     10  CG  LEU A   1      -0.164  10.479  19.559  0.00  0.00    +0.000 C 
ATOM     11  CD1 LEU A   1      -0.894  10.230  18.238  0.00  0.00    +0.000 C 
ATOM     12  CD2 LEU A   1      -0.877  11.587  20.338  0.00  0.00    +0.000 C 
ENDBRANCH   9  10
ENDBRANCH   6   9
ENDBRANCH   4   6
ENDBRANCH   1   2
BRANCH   1  13
ATOM     13  N   UNK A   0       3.998   5.590  18.419  0.00  0.00    +0.000 NA
ATOM     14  H   UNK A   0       4.078   6.160  17.575  0.00  0.00    +0.000 HD
BRANCH  13  15
ATOM     15  S   UNK A   0       4.453   3.988  18.070  0.00  0.00    +0.000 S 
ATOM     16  O   UNK A   0       3.271   3.265  17.681  0.00  0.00    +0.000 OA
ATOM     17  O   UNK A   0       5.305   3.526  19.157  0.00  0.00    +0.000 OA
BRANCH  15  22
ATOM     18  C   UNK A   0       7.788   5.432  13.265  0.00  0.00    +0.000 C 
ATOM     19  C   UNK A   0       7.040   4.860  14.436  0.00  0.00    +0.000 A 
ATOM     20  C   UNK A   0       5.828   4.180  14.266  0.00  0.00    +0.000 A 
ATOM     21  C   UNK A   0       5.060   3.837  15.378  0.00  0.00    +0.000 A 
ATOM     22  C   UNK A   0       5.514   4.163  16.665  0.00  0.00    +0.000 A 
ATOM     23  C   UNK A   0       6.772   4.744  16.845  0.00  0.00    +0.000 A 
ATOM     24  C   UNK A   0       7.530   5.093  15.726  0.00  0.00    +0.000 A 
ENDBRANCH  15  22
ENDBRANCH  13  15
ENDBRANCH   1  13
BRANCH   1  25
ATOM     25  C   UNK A   0       2.682   5.087  20.445  0.00  0.00    +0.000 C 
BRANCH  25  26
ATOM     26  C   UNK A   0       2.044   3.690  20.542  0.00  0.00    +0.000 C 
ATOM     27  C   UNK A   0       2.128   3.197  21.994  0.00  0.00    +0.000 C 
ATOM     28  C   UNK A   0       0.590   3.644  20.074  0.00  0.00    +0.000 C 
ENDBRANCH  25  26
ENDBRANCH   1  25
TORSDOF 10
ENDMDL
