MODEL 1
REMARK VINA RESULT:      -6.8      0.000      0.000
REMARK  Name = 
REMARK  8 active torsions:
REMARK  status: ('A' for Active; 'I' for Inactive)
REMARK    1  A    between atoms: C_1  and  C_2
REMARK    2  A    between atoms: C_2  and  C_3
REMARK    3  A    between atoms: C_2  and  C_4
REMARK    4  A    between atoms: C_2  and  O_5
REMARK    5  A    between atoms: O_5  and  C_6
REMARK    6  A    between atoms: N_8  and  C_9
REMARK    7  A    between atoms: N_13  and  C_14
REMARK    8  A    between atoms: C_14  and  C_15
REMARK                            x       y       z     vdW  Elec       q    Type
REMARK                         _______ _______ _______ _____ _____    ______ ____
ROOT
ATOM      1  C   UNL     1       5.946   5.858  16.363  0.00  0.00    +0.000 C 
ATOM      2  C   UNL     1       6.929   5.953  17.531  0.00  0.00    +0.000 C 
ATOM      3  C   UNL     1       6.440   5.183  18.747  0.00  0.00    +0.000 C 
ATOM      4  C   UNL     1       5.003   5.554  19.115  0.00  0.00    +0.000 C 
ATOM      5  N   UNL     1       4.080   5.327  17.983  0.00  0.00    +0.000 NA
ATOM      6  C   UNL     1       4.499   6.168  16.833  0.00  0.00    +0.000 C 
ENDROOT
BRANCH   1   9
ATOM      7  C   UNL     1       6.767   4.449  14.571  0.00  0.00    +0.000 C 
ATOM      8  O   UNL     1       7.635   5.277  14.276  0.00  0.00    +0.000 OA
ATOM      9  N   UNL     1       6.016   4.562  15.692  0.00  0.00    +0.000 N 
ATOM     10  H   UNL     1       5.267   3.891  15.806  0.00  0.00    +0.000 HD
BRANCH   7  11
ATOM     11  O   UNL     1       6.431   3.346  13.832  0.00  0.00    +0.000 OA
BRANCH  11  13
ATOM     12  C   UNL     1       6.698   2.224  11.686  0.00  0.00    +0.000 C 
ATOM     13  C   UNL     1       6.310   3.521  12.384  0.00  0.00    +0.000 C 
ATOM     14  C   UNL     1       7.194   4.674  11.893  0.00  0.00    +0.000 C 
ATOM     15  C   UNL     1       4.824   3.807  12.047  0.00  0.00    +0.000 C 
ENDBRANCH  11  13
ENDBRANCH   7  11
ENDBRANCH   1   9
BRANCH   5  16
ATOM     16  C   UNL     1       2.686   5.678  18.361  0.00  0.00    +0.000 C 
BRANCH  16  17
ATOM     17  C   UNL     1       1.890   4.504  18.859  0.00  0.00    +0.000 A 
ATOM     18  N   UNL     1       1.487   4.292  20.095  0.00  0.00    +0.000 NA
ATOM     19  C   UNL     1       0.936   3.035  20.099  0.00  0.00    +0.000 A 
ATOM     20  C   UNL     1       0.953   2.495  18.838  0.00  0.00    +0.000 A 
ATOM     21  N   UNL     1       1.542   3.446  18.049  0.00  0.00    +0.000 N 
ATOM     22  H   UNL     1       1.750   3.373  17.065  0.00  0.00    +0.000 HD
ENDBRANCH  16  17
ENDBRANCH   5  16
TORSDOF 5
ENDMDL
MODEL 2
REMARK VINA RESULT:      -6.8      0.375      1.259
REMARK  Name = 
REMARK  8 active torsions:
REMARK  status: ('A' for Active; 'I' for Inactive)
REMARK    1  A    between atoms: C_1  and  C_2
REMARK    2  A    between atoms: C_2  and  C_3
REMARK    3  A    between atoms: C_2  and  C_4
REMARK    4  A    between atoms: C_2  and  O_5
REMARK    5  A    between atoms: O_5  and  C_6
REMARK    6  A    between atoms: N_8  and  C_9
REMARK    7  A    between atoms: N_13  and  C_14
REMARK    8  A    between atoms: C_14  and  C_15
REMARK                            x       y       z     vdW  Elec       q    Type
REMARK                         _______ _______ _______ _____ _____    ______ ____
ROOT
ATOM      1  C   UNL     1       6.028   5.788  16.201  0.00  0.00    +0.000 C 
ATOM      2  C   UNL     1       7.043   5.982  17.329  0.00  0.00    +0.000 C 
ATOM      3  C   UNL     1       6.655   5.209  18.580  0.00  0.00    +0.000 C 
ATOM      4  C   UNL     1       5.208   5.484  18.992  0.00  0.00    +0.000 C 
ATOM      5  N   UNL     1       4.265   5.164  17.901  0.00  0.00    +0.000 NA
ATOM      6  C   UNL     1       4.580   6.005  16.718  0.00  0.00    +0.000 C 
ENDROOT
BRANCH   1   9
ATOM      7  C   UNL     1       6.713   4.424  14.318  0.00  0.00    +0.000 C 
ATOM      8  O   UNL     1       7.380   5.352  13.850  0.00  0.00    +0.000 OA
ATOM      9  N   UNL     1       6.167   4.484  15.557  0.00  0.00    +0.000 N 
ATOM     10  H   UNL     1       5.560   3.719  15.822  0.00  0.00    +0.000 HD
BRANCH   7  11
ATOM     11  O   UNL     1       6.417   3.251  13.678  0.00  0.00    +0.000 OA
BRANCH  11  13
ATOM     12  C   UNL     1       7.124   4.268  11.581  0.00  0.00    +0.000 C 
ATOM     13  C   UNL     1       6.131   3.322  12.245  0.00  0.00    +0.000 C 
ATOM     14  C   UNL     1       4.694   3.795  11.992  0.00  0.00    +0.000 C 
ATOM     15  C   UNL     1       6.346   1.915  11.631  0.00  0.00    +0.000 C 
ENDBRANCH  11  13
ENDBRANCH   7  11
ENDBRANCH   1   9
BRANCH   5  16
ATOM     16  C   UNL     1       2.863   5.424  18.323  0.00  0.00    +0.000 C 
BRANCH  16  17
ATOM     17  C   UNL     1       2.123   4.180  18.731  0.00  0.00    +0.000 A 
ATOM     18  N   UNL     1       1.318   3.460  17.978  0.00  0.00    +0.000 NA
ATOM     19  C   UNL     1       0.762   2.523  18.813  0.00  0.00    +0.000 A 
ATOM     20  C   UNL     1       1.276   2.639  20.081  0.00  0.00    +0.000 A 
ATOM     21  N   UNL     1       2.160   3.682  20.014  0.00  0.00    +0.000 N 
ATOM     22  H   UNL     1       2.697   4.070  20.775  0.00  0.00    +0.000 HD
ENDBRANCH  16  17
ENDBRANCH   5  16
TORSDOF 5
ENDMDL
MODEL 3
REMARK VINA RESULT:      -6.8      3.458      5.582
REMARK  Name = 
REMARK  8 active torsions:
REMARK  status: ('A' for Active; 'I' for Inactive)
REMARK    1  A    between atoms: C_1  and  C_2
REMARK    2  A    between atoms: C_2  and  C_3
REMARK    3  A    between atoms: C_2  and  C_4
REMARK    4  A    between atoms: C_2  and  O_5
REMARK    5  A    between atoms: O_5  and  C_6
REMARK    6  A    between atoms: N_8  and  C_9
REMARK    7  A    between atoms: N_13  and  C_14
REMARK    8  A    between atoms: C_14  and  C_15
REMARK                            x       y       z     vdW  Elec       q    Type
REMARK                         _______ _______ _______ _____ _____    ______ ____
ROOT
ATOM      1  C   UNL     1       5.901   4.168  17.493  0.00  0.00    +0.000 C 
ATOM      2  C   UNL     1       7.316   4.734  17.633  0.00  0.00    +0.000 C 
ATOM      3  C   UNL     1       7.311   6.124  18.251  0.00  0.00    +0.000 C 
ATOM      4  C   UNL     1       6.337   7.060  17.535  0.00  0.00    +0.000 C 
ATOM      5  N   UNL     1       4.964   6.515  17.537  0.00  0.00    +0.000 NA
ATOM      6  C   UNL     1       4.955   5.207  16.833  0.00  0.00    +0.000 C 
ENDROOT
BRANCH   1   9
ATOM      7  C   UNL     1       4.272   2.908  18.768  0.00  0.00    +0.000 C 
ATOM      8  O   UNL     1       3.905   2.300  17.757  0.00  0.00    +0.000 OA
ATOM      9  N   UNL     1       5.366   3.705  18.771  0.00  0.00    +0.000 N 
ATOM     10  H   UNL     1       5.539   4.236  19.615  0.00  0.00    +0.000 HD
BRANCH   7  11
ATOM     11  O   UNL     1       3.645   2.885  19.986  0.00  0.00    +0.000 OA
BRANCH  11  13
ATOM     12  C   UNL     1       1.470   1.897  19.509  0.00  0.00    +0.000 C 
ATOM     13  C   UNL     1       2.204   3.137  20.002  0.00  0.00    +0.000 C 
ATOM     14  C   UNL     1       1.847   4.348  19.132  0.00  0.00    +0.000 C 
ATOM     15  C   UNL     1       1.766   3.386  21.469  0.00  0.00    +0.000 C 
ENDBRANCH  11  13
ENDBRANCH   7  11
ENDBRANCH   1   9
BRANCH   5  16
ATOM     16  C   UNL     1       4.027   7.443  16.851  0.00  0.00    +0.000 C 
BRANCH  16  17
ATOM     17  C   UNL     1       2.952   7.981  17.754  0.00  0.00    +0.000 A 
ATOM     18  N   UNL     1       2.163   9.007  17.514  0.00  0.00    +0.000 NA
ATOM     19  C   UNL     1       1.457   9.216  18.673  0.00  0.00    +0.000 A 
ATOM     20  C   UNL     1       1.781   8.271  19.614  0.00  0.00    +0.000 A 
ATOM     21  N   UNL     1       2.717   7.474  19.012  0.00  0.00    +0.000 N 
ATOM     22  H   UNL     1       3.204   6.693  19.426  0.00  0.00    +0.000 HD
ENDBRANCH  16  17
ENDBRANCH   5  16
TORSDOF 5
ENDMDL
MODEL 4
REMARK VINA RESULT:      -6.8      3.632      5.956
REMARK  Name = 
REMARK  8 active torsions:
REMARK  status: ('A' for Active; 'I' for Inactive)
REMARK    1  A    between atoms: C_1  and  C_2
REMARK    2  A    between atoms: C_2  and  C_3
REMARK    3  A    between atoms: C_2  and  C_4
REMARK    4  A    between atoms: C_2  and  O_5
REMARK    5  A    between atoms: O_5  and  C_6
REMARK    6  A    between atoms: N_8  and  C_9
REMARK    7  A    between atoms: N_13  and  C_14
REMARK    8  A    between atoms: C_14  and  C_15
REMARK                            x       y       z     vdW  Elec       q    Type
REMARK                         _______ _______ _______ _____ _____    ______ ____
ROOT
ATOM      1  C   UNL     1       5.094   4.096  17.673  0.00  0.00    +0.000 C 
ATOM      2  C   UNL     1       6.545   4.561  17.535  0.00  0.00    +0.000 C 
ATOM      3  C   UNL     1       6.736   5.978  18.052  0.00  0.00    +0.000 C 
ATOM      4  C   UNL     1       5.714   6.945  17.452  0.00  0.00    +0.000 C 
ATOM      5  N   UNL     1       4.330   6.504  17.721  0.00  0.00    +0.000 NA
ATOM      6  C   UNL     1       4.116   5.165  17.116  0.00  0.00    +0.000 C 
ENDROOT
BRANCH   1   9
ATOM      7  C   UNL     1       3.988   2.652  19.274  0.00  0.00    +0.000 C 
ATOM      8  O   UNL     1       3.825   1.776  18.419  0.00  0.00    +0.000 OA
ATOM      9  N   UNL     1       4.760   3.742  19.051  0.00  0.00    +0.000 N 
ATOM     10  H   UNL     1       4.762   4.452  19.771  0.00  0.00    +0.000 HD
BRANCH   7  11
ATOM     11  O   UNL     1       3.422   2.666  20.521  0.00  0.00    +0.000 OA
BRANCH  11  13
ATOM     12  C   UNL     1       1.347   2.540  21.792  0.00  0.00    +0.000 C 
ATOM     13  C   UNL     1       2.072   3.220  20.638  0.00  0.00    +0.000 C 
ATOM     14  C   UNL     1       1.287   3.037  19.334  0.00  0.00    +0.000 C 
ATOM     15  C   UNL     1       2.189   4.727  20.983  0.00  0.00    +0.000 C 
ENDBRANCH  11  13
ENDBRANCH   7  11
ENDBRANCH   1   9
BRANCH   5  16
ATOM     16  C   UNL     1       3.350   7.461  17.145  0.00  0.00    +0.000 C 
BRANCH  16  17
ATOM     17  C   UNL     1       2.524   8.168  18.183  0.00  0.00    +0.000 A 
ATOM     18  N   UNL     1       2.261   7.743  19.403  0.00  0.00    +0.000 NA
ATOM     19  C   UNL     1       1.356   8.635  19.922  0.00  0.00    +0.000 A 
ATOM     20  C   UNL     1       1.105   9.646  19.028  0.00  0.00    +0.000 A 
ATOM     21  N   UNL     1       1.871   9.353  17.933  0.00  0.00    +0.000 N 
ATOM     22  H   UNL     1       1.909   9.867  17.065  0.00  0.00    +0.000 HD
ENDBRANCH  16  17
ENDBRANCH   5  16
TORSDOF 5
ENDMDL
MODEL 5
REMARK VINA RESULT:      -6.8      0.866      1.009
REMARK  Name = 
REMARK  8 active torsions:
REMARK  status: ('A' for Active; 'I' for Inactive)
REMARK    1  A    between atoms: C_1  and  C_2
REMARK    2  A    between atoms: C_2  and  C_3
REMARK    3  A    between atoms: C_2  and  C_4
REMARK    4  A    between atoms: C_2  and  O_5
REMARK    5  A    between atoms: O_5  and  C_6
REMARK    6  A    between atoms: N_8  and  C_9
REMARK    7  A    between atoms: N_13  and  C_14
REMARK    8  A    between atoms: C_14  and  C_15
REMARK                            x       y       z     vdW  Elec       q    Type
REMARK                         _______ _______ _______ _____ _____    ______ ____
ROOT
ATOM      1  C   UNL     1       5.905   5.714  16.301  0.00  0.00    +0.000 C 
ATOM      2  C   UNL     1       7.198   6.171  16.980  0.00  0.00    +0.000 C 
ATOM      3  C   UNL     1       7.454   5.418  18.276  0.00  0.00    +0.000 C 
ATOM      4  C   UNL     1       6.231   5.435  19.194  0.00  0.00    +0.000 C 
ATOM      5  N   UNL     1       5.043   4.870  18.521  0.00  0.00    +0.000 NA
ATOM      6  C   UNL     1       4.731   5.679  17.315  0.00  0.00    +0.000 C 
ENDROOT
BRANCH   1   9
ATOM      7  C   UNL     1       6.599   4.395  14.390  0.00  0.00    +0.000 C 
ATOM      8  O   UNL     1       7.244   5.343  13.931  0.00  0.00    +0.000 OA
ATOM      9  N   UNL     1       6.064   4.423  15.633  0.00  0.00    +0.000 N 
ATOM     10  H   UNL     1       5.474   3.643  15.892  0.00  0.00    +0.000 HD
BRANCH   7  11
ATOM     11  O   UNL     1       6.319   3.226  13.733  0.00  0.00    +0.000 OA
BRANCH  11  13
ATOM     12  C   UNL     1       6.248   1.910  11.684  0.00  0.00    +0.000 C 
ATOM     13  C   UNL     1       6.114   3.303  12.286  0.00  0.00    +0.000 C 
ATOM     14  C   UNL     1       7.119   4.263  11.637  0.00  0.00    +0.000 C 
ATOM     15  C   UNL     1       4.665   3.789  12.022  0.00  0.00    +0.000 C 
ENDBRANCH  11  13
ENDBRANCH   7  11
ENDBRANCH   1   9
BRANCH   5  16
ATOM     16  C   UNL     1       3.868   4.879  19.431  0.00  0.00    +0.000 C 
BRANCH  16  17
ATOM     17  C   UNL     1       2.835   3.843  19.084  0.00  0.00    +0.000 A 
ATOM     18  N   UNL     1       1.564   4.058  18.814  0.00  0.00    +0.000 NA
ATOM     19  C   UNL     1       0.989   2.816  18.709  0.00  0.00    +0.000 A 
ATOM     20  C   UNL     1       1.932   1.831  18.862  0.00  0.00    +0.000 A 
ATOM     21  N   UNL     1       3.110   2.495  19.078  0.00  0.00    +0.000 N 
ATOM     22  H   UNL     1       4.012   2.082  19.266  0.00  0.00    +0.000 HD
ENDBRANCH  16  17
ENDBRANCH   5  16
TORSDOF 5
ENDMDL
MODEL 6
REMARK VINA RESULT:      -6.7      3.546      5.757
REMARK  Name = 
REMARK  8 active torsions:
REMARK  status: ('A' for Active; 'I' for Inactive)
REMARK    1  A    between atoms: C_1  and  C_2
REMARK    2  A    between atoms: C_2  and  C_3
REMARK    3  A    between atoms: C_2  and  C_4
REMARK    4  A    between atoms: C_2  and  O_5
REMARK    5  A    between atoms: O_5  and  C_6
REMARK    6  A    between atoms: N_8  and  C_9
REMARK    7  A    between atoms: N_13  and  C_14
REMARK    8  A    between atoms: C_14  and  C_15
REMARK                            x       y       z     vdW  Elec       q    Type
REMARK                         _______ _______ _______ _____ _____    ______ ____
ROOT
ATOM      1  C   UNL     1       5.550   4.076  17.550  0.00  0.00    +0.000 C 
ATOM      2  C   UNL     1       7.004   4.552  17.562  0.00  0.00    +0.000 C 
ATOM      3  C   UNL     1       7.132   5.963  18.115  0.00  0.00    +0.000 C 
ATOM      4  C   UNL     1       6.167   6.932  17.431  0.00  0.00    +0.000 C 
ATOM      5  N   UNL     1       4.767   6.478  17.556  0.00  0.00    +0.000 NA
ATOM      6  C   UNL     1       4.624   5.147  16.914  0.00  0.00    +0.000 C 
ENDROOT
BRANCH   1   9
ATOM      7  C   UNL     1       4.144   2.733  18.996  0.00  0.00    +0.000 C 
ATOM      8  O   UNL     1       3.901   1.943  18.077  0.00  0.00    +0.000 OA
ATOM      9  N   UNL     1       5.085   3.700  18.883  0.00  0.00    +0.000 N 
ATOM     10  H   UNL     1       5.152   4.359  19.648  0.00  0.00    +0.000 HD
BRANCH   7  11
ATOM     11  O   UNL     1       3.513   2.763  20.211  0.00  0.00    +0.000 OA
BRANCH  11  13
ATOM     12  C   UNL     1       1.792   4.423  19.743  0.00  0.00    +0.000 C 
ATOM     13  C   UNL     1       2.069   3.000  20.211  0.00  0.00    +0.000 C 
ATOM     14  C   UNL     1       1.474   2.773  21.606  0.00  0.00    +0.000 C 
ATOM     15  C   UNL     1       1.414   2.036  19.188  0.00  0.00    +0.000 C 
ENDBRANCH  11  13
ENDBRANCH   7  11
ENDBRANCH   1   9
BRANCH   5  16
ATOM     16  C   UNL     1       3.841   7.438  16.900  0.00  0.00    +0.000 C 
BRANCH  16  17
ATOM     17  C   UNL     1       2.813   8.011  17.835  0.00  0.00    +0.000 A 
ATOM     18  N   UNL     1       2.038   9.052  17.611  0.00  0.00    +0.000 NA
ATOM     19  C   UNL     1       1.382   9.291  18.793  0.00  0.00    +0.000 A 
ATOM     20  C   UNL     1       1.720   8.350  19.733  0.00  0.00    +0.000 A 
ATOM     21  N   UNL     1       2.615   7.525  19.107  0.00  0.00    +0.000 N 
ATOM     22  H   UNL     1       3.100   6.738  19.513  0.00  0.00    +0.000 HD
ENDBRANCH  16  17
ENDBRANCH   5  16
TORSDOF 5
ENDMDL
MODEL 7
REMARK VINA RESULT:      -6.7      0.903      1.480
REMARK  Name = 
REMARK  8 active torsions:
REMARK  status: ('A' for Active; 'I' for Inactive)
REMARK    1  A    between atoms: C_1  and  C_2
REMARK    2  A    between atoms: C_2  and  C_3
REMARK    3  A    between atoms: C_2  and  C_4
REMARK    4  A    between atoms: C_2  and  O_5
REMARK    5  A    between atoms: O_5  and  C_6
REMARK    6  A    between atoms: N_8  and  C_9
REMARK    7  A    between atoms: N_13  and  C_14
REMARK    8  A    between atoms: C_14  and  C_15
REMARK                            x       y       z     vdW  Elec       q    Type
REMARK                         _______ _______ _______ _____ _____    ______ ____
ROOT
ATOM      1  C   UNL     1       5.875   5.731  16.265  0.00  0.00    +0.000 C 
ATOM      2  C   UNL     1       7.191   6.200  16.889  0.00  0.00    +0.000 C 
ATOM      3  C   UNL     1       7.490   5.474  18.191  0.00  0.00    +0.000 C 
ATOM      4  C   UNL     1       6.300   5.512  19.150  0.00  0.00    +0.000 C 
ATOM      5  N   UNL     1       5.088   4.935  18.531  0.00  0.00    +0.000 NA
ATOM      6  C   UNL     1       4.737   5.720  17.320  0.00  0.00    +0.000 C 
ENDROOT
BRANCH   1   9
ATOM      7  C   UNL     1       6.577   4.363  14.392  0.00  0.00    +0.000 C 
ATOM      8  O   UNL     1       7.266   5.282  13.939  0.00  0.00    +0.000 OA
ATOM      9  N   UNL     1       6.009   4.427  15.620  0.00  0.00    +0.000 N 
ATOM     10  H   UNL     1       5.385   3.670  15.871  0.00  0.00    +0.000 HD
BRANCH   7  11
ATOM     11  O   UNL     1       6.277   3.194  13.743  0.00  0.00    +0.000 OA
BRANCH  11  13
ATOM     12  C   UNL     1       4.674   3.877  12.041  0.00  0.00    +0.000 C 
ATOM     13  C   UNL     1       6.047   3.269  12.300  0.00  0.00    +0.000 C 
ATOM     14  C   UNL     1       6.146   1.882  11.654  0.00  0.00    +0.000 C 
ATOM     15  C   UNL     1       7.103   4.222  11.684  0.00  0.00    +0.000 C 
ENDBRANCH  11  13
ENDBRANCH   7  11
ENDBRANCH   1   9
BRANCH   5  16
ATOM     16  C   UNL     1       3.945   4.966  19.480  0.00  0.00    +0.000 C 
BRANCH  16  17
ATOM     17  C   UNL     1       2.954   3.858  19.257  0.00  0.00    +0.000 A 
ATOM     18  N   UNL     1       3.162   2.569  19.428  0.00  0.00    +0.000 NA
ATOM     19  C   UNL     1       2.034   1.942  18.959  0.00  0.00    +0.000 A 
ATOM     20  C   UNL     1       1.104   2.864  18.548  0.00  0.00    +0.000 A 
ATOM     21  N   UNL     1       1.689   4.083  18.763  0.00  0.00    +0.000 N 
ATOM     22  H   UNL     1       1.302   4.988  18.542  0.00  0.00    +0.000 HD
ENDBRANCH  16  17
ENDBRANCH   5  16
TORSDOF 5
ENDMDL
MODEL 8
REMARK VINA RESULT:      -6.6      0.708      1.111
REMARK  Name = 
REMARK  8 active torsions:
REMARK  status: ('A' for Active; 'I' for Inactive)
REMARK    1  A    between atoms: C_1  and  C_2
REMARK    2  A    between atoms: C_2  and  C_3
REMARK    3  A    between atoms: C_2  and  C_4
REMARK    4  A    between atoms: C_2  and  O_5
REMARK    5  A    between atoms: O_5  and  C_6
REMARK    6  A    between atoms: N_8  and  C_9
REMARK    7  A    between atoms: N_13  and  C_14
REMARK    8  A    between atoms: C_14  and  C_15
REMARK                            x       y       z     vdW  Elec       q    Type
REMARK                         _______ _______ _______ _____ _____    ______ ____
ROOT
ATOM      1  C   UNL     1       5.849   5.743  16.356  0.00  0.00    +0.000 C 
ATOM      2  C   UNL     1       6.907   5.979  17.435  0.00  0.00    +0.000 C 
ATOM      3  C   UNL     1       6.620   5.178  18.694  0.00  0.00    +0.000 C 
ATOM      4  C   UNL     1       5.184   5.376  19.180  0.00  0.00    +0.000 C 
ATOM      5  N   UNL     1       4.205   5.017  18.133  0.00  0.00    +0.000 NA
ATOM      6  C   UNL     1       4.420   5.882  16.944  0.00  0.00    +0.000 C 
ENDROOT
BRANCH   1   9
ATOM      7  C   UNL     1       6.757   4.399  14.555  0.00  0.00    +0.000 C 
ATOM      8  O   UNL     1       7.540   5.300  14.237  0.00  0.00    +0.000 OA
ATOM      9  N   UNL     1       6.022   4.453  15.691  0.00  0.00    +0.000 N 
ATOM     10  H   UNL     1       5.340   3.718  15.825  0.00  0.00    +0.000 HD
BRANCH   7  11
ATOM     11  O   UNL     1       6.508   3.264  13.830  0.00  0.00    +0.000 OA
BRANCH  11  13
ATOM     12  C   UNL     1       6.324   2.079  11.710  0.00  0.00    +0.000 C 
ATOM     13  C   UNL     1       6.215   3.429  12.406  0.00  0.00    +0.000 C 
ATOM     14  C   UNL     1       7.172   4.440  11.761  0.00  0.00    +0.000 C 
ATOM     15  C   UNL     1       4.750   3.914  12.259  0.00  0.00    +0.000 C 
ENDBRANCH  11  13
ENDBRANCH   7  11
ENDBRANCH   1   9
BRANCH   5  16
ATOM     16  C   UNL     1       2.815   5.202  18.625  0.00  0.00    +0.000 C 
BRANCH  16  17
ATOM     17  C   UNL     1       2.394   4.163  19.627  0.00  0.00    +0.000 A 
ATOM     18  N   UNL     1       1.906   2.968  19.364  0.00  0.00    +0.000 NA
ATOM     19  C   UNL     1       1.529   2.443  20.575  0.00  0.00    +0.000 A 
ATOM     20  C   UNL     1       1.840   3.307  21.595  0.00  0.00    +0.000 A 
ATOM     21  N   UNL     1       2.412   4.390  20.984  0.00  0.00    +0.000 N 
ATOM     22  H   UNL     1       2.733   5.237  21.429  0.00  0.00    +0.000 HD
ENDBRANCH  16  17
ENDBRANCH   5  16
TORSDOF 5
ENDMDL
MODEL 9
REMARK VINA RESULT:      -6.6      2.449      6.392
REMARK  Name = 
REMARK  8 active torsions:
REMARK  status: ('A' for Active; 'I' for Inactive)
REMARK    1  A    between atoms: C_1  and  C_2
REMARK    2  A    between atoms: C_2  and  C_3
REMARK    3  A    between atoms: C_2  and  C_4
REMARK    4  A    between atoms: C_2  and  O_5
REMARK    5  A    between atoms: O_5  and  C_6
REMARK    6  A    between atoms: N_8  and  C_9
REMARK    7  A    between atoms: N_13  and  C_14
REMARK    8  A    between atoms: C_14  and  C_15
REMARK                            x       y       z     vdW  Elec       q    Type
REMARK                         _______ _______ _______ _____ _____    ______ ____
ROOT
ATOM      1  C   UNL     1       5.471   5.157  17.937  0.00  0.00    +0.000 C 
ATOM      2  C   UNL     1       5.269   6.643  17.632  0.00  0.00    +0.000 C 
ATOM      3  C   UNL     1       4.841   6.871  16.191  0.00  0.00    +0.000 C 
ATOM      4  C   UNL     1       5.763   6.154  15.204  0.00  0.00    +0.000 C 
ATOM      5  N   UNL     1       5.823   4.703  15.476  0.00  0.00    +0.000 NA
ATOM      6  C   UNL     1       6.348   4.484  16.848  0.00  0.00    +0.000 C 
ENDROOT
BRANCH   1   9
ATOM      7  C   UNL     1       4.161   3.356  18.893  0.00  0.00    +0.000 C 
ATOM      8  O   UNL     1       5.044   3.113  19.722  0.00  0.00    +0.000 OA
ATOM      9  N   UNL     1       4.201   4.454  18.101  0.00  0.00    +0.000 N 
ATOM     10  H   UNL     1       3.487   4.524  17.387  0.00  0.00    +0.000 HD
BRANCH   7  11
ATOM     11  O   UNL     1       3.064   2.576  18.643  0.00  0.00    +0.000 OA
BRANCH  11  13
ATOM     12  C   UNL     1       0.679   2.112  18.814  0.00  0.00    +0.000 C 
ATOM     13  C   UNL     1       1.749   3.196  18.812  0.00  0.00    +0.000 C 
ATOM     14  C   UNL     1       1.474   4.215  17.699  0.00  0.00    +0.000 C 
ATOM     15  C   UNL     1       1.710   3.893  20.196  0.00  0.00    +0.000 C 
ENDBRANCH  11  13
ENDBRANCH   7  11
ENDBRANCH   1   9
BRANCH   5  16
ATOM     16  C   UNL     1       6.710   4.020  14.500  0.00  0.00    +0.000 C 
BRANCH  16  17
ATOM     17  C   UNL     1       5.997   3.579  13.252  0.00  0.00    +0.000 A 
ATOM     18  N   UNL     1       4.772   3.901  12.890  0.00  0.00    +0.000 NA
ATOM     19  C   UNL     1       4.502   3.150  11.773  0.00  0.00    +0.000 A 
ATOM     20  C   UNL     1       5.596   2.400  11.418  0.00  0.00    +0.000 A 
ATOM     21  N   UNL     1       6.551   2.697  12.353  0.00  0.00    +0.000 N 
ATOM     22  H   UNL     1       7.476   2.299  12.421  0.00  0.00    +0.000 HD
ENDBRANCH  16  17
ENDBRANCH   5  16
TORSDOF 5
ENDMDL
