MODEL 1
REMARK VINA RESULT:      -7.0      0.000      0.000
REMARK  Name = 
REMARK  6 active torsions:
REMARK  status: ('A' for Active; 'I' for Inactive)
REMARK    1  A    between atoms: O_1  and  C_2
REMARK    2  A    between atoms: C_2  and  C_3
REMARK    3  A    between atoms: C_2  and  C_19
REMARK    4  A    between atoms: C_3  and  N_4
REMARK    5  A    between atoms: N_7  and  C_8
REMARK    6  A    between atoms: C_8  and  C_9
REMARK                            x       y       z     vdW  Elec       q    Type
REMARK                         _______ _______ _______ _____ _____    ______ ____
ROOT
ATOM      1  N   UNL     1       5.678   4.999  15.408  0.00  0.00    +0.000 NA
ATOM      2  C   UNL     1       5.072   4.082  16.404  0.00  0.00    +0.000 C 
ATOM      3  C   UNL     1       5.254   4.582  17.859  0.00  0.00    +0.000 C 
ATOM      4  N   UNL     1       4.739   5.956  18.038  0.00  0.00    +0.000 NA
ATOM      5  C   UNL     1       5.431   6.853  17.085  0.00  0.00    +0.000 C 
ATOM      6  C   UNL     1       5.237   6.398  15.630  0.00  0.00    +0.000 C 
ENDROOT
BRANCH   1   7
ATOM      7  C   UNL     1       7.141   4.780  15.294  0.00  0.00    +0.000 C 
BRANCH   7   8
ATOM      8  C   UNL     1       7.659   4.632  13.838  0.00  0.00    +0.000 C 
BRANCH   8   9
ATOM      9  C   UNL     1       6.440   4.347  12.941  0.00  0.00    +0.000 C 
ATOM     10  C   UNL     1       6.785   3.912  11.526  0.00  0.00    +0.000 C 
ATOM     11  C   UNL     1       6.192   2.911  12.523  0.00  0.00    +0.000 C 
ENDBRANCH   8   9
BRANCH   8  12
ATOM     12  O   UNL     1       8.262   5.818  13.373  0.00  0.00    +0.000 OA
ATOM     13  H   UNL     1       7.556   6.428  13.042  0.00  0.00    +0.000 HD
ENDBRANCH   8  12
ENDBRANCH   7   8
ENDBRANCH   1   7
BRANCH   4  14
ATOM     14  C   UNL     1       3.252   5.979  17.953  0.00  0.00    +0.000 C 
BRANCH  14  15
ATOM     15  C   UNL     1       2.574   5.030  18.912  0.00  0.00    +0.000 A 
ATOM     16  C   UNL     1       2.770   5.184  20.296  0.00  0.00    +0.000 A 
ATOM     17  C   UNL     1       2.117   4.346  21.199  0.00  0.00    +0.000 A 
ATOM     18  C   UNL     1       1.254   3.349  20.735  0.00  0.00    +0.000 A 
ATOM     19  F   UNL     1       0.613   2.549  21.616  0.00  0.00    +0.000 F 
ATOM     20  C   UNL     1       1.057   3.187  19.357  0.00  0.00    +0.000 A 
ATOM     21  F   UNL     1       0.215   2.222  18.906  0.00  0.00    +0.000 F 
ATOM     22  C   UNL     1       1.714   4.019  18.447  0.00  0.00    +0.000 A 
ENDBRANCH  14  15
ENDBRANCH   4  14
TORSDOF 6
ENDMDL
MODEL 2
REMARK VINA RESULT:      -6.9      1.376      1.925
REMARK  Name = 
REMARK  6 active torsions:
REMARK  status: ('A' for Active; 'I' for Inactive)
REMARK    1  A    between atoms: O_1  and  C_2
REMARK    2  A    between atoms: C_2  and  C_3
REMARK    3  A    between atoms: C_2  and  C_19
REMARK    4  A    between atoms: C_3  and  N_4
REMARK    5  A    between atoms: N_7  and  C_8
REMARK    6  A    between atoms: C_8  and  C_9
REMARK                            x       y       z     vdW  Elec       q    Type
REMARK                         _______ _______ _______ _____ _____    ______ ____
ROOT
ATOM      1  N   UNL     1       6.114   4.220  15.542  0.00  0.00    +0.000 NA
ATOM      2  C   UNL     1       7.159   4.711  16.474  0.00  0.00    +0.000 C 
ATOM      3  C   UNL     1       6.741   6.011  17.203  0.00  0.00    +0.000 C 
ATOM      4  N   UNL     1       5.450   5.857  17.907  0.00  0.00    +0.000 NA
ATOM      5  C   UNL     1       4.418   5.451  16.927  0.00  0.00    +0.000 C 
ATOM      6  C   UNL     1       4.793   4.143  16.213  0.00  0.00    +0.000 C 
ENDROOT
BRANCH   1   7
ATOM      7  C   UNL     1       6.156   4.950  14.252  0.00  0.00    +0.000 C 
BRANCH   7   8
ATOM      8  C   UNL     1       7.323   4.538  13.315  0.00  0.00    +0.000 C 
BRANCH   8   9
ATOM      9  C   UNL     1       6.702   4.047  11.994  0.00  0.00    +0.000 C 
ATOM     10  C   UNL     1       6.705   2.537  11.817  0.00  0.00    +0.000 C 
ATOM     11  C   UNL     1       5.393   3.287  12.069  0.00  0.00    +0.000 C 
ENDBRANCH   8   9
BRANCH   8  12
ATOM     12  O   UNL     1       8.163   5.628  13.012  0.00  0.00    +0.000 OA
ATOM     13  H   UNL     1       8.541   5.987  13.854  0.00  0.00    +0.000 HD
ENDBRANCH   8  12
ENDBRANCH   7   8
ENDBRANCH   1   7
BRANCH   4  14
ATOM     14  C   UNL     1       5.592   4.950  19.080  0.00  0.00    +0.000 C 
BRANCH  14  15
ATOM     15  C   UNL     1       4.276   4.441  19.618  0.00  0.00    +0.000 A 
ATOM     16  C   UNL     1       4.085   3.058  19.788  0.00  0.00    +0.000 A 
ATOM     17  C   UNL     1       2.893   2.572  20.326  0.00  0.00    +0.000 A 
ATOM     18  C   UNL     1       1.882   3.456  20.707  0.00  0.00    +0.000 A 
ATOM     19  F   UNL     1       0.734   2.980  21.241  0.00  0.00    +0.000 F 
ATOM     20  C   UNL     1       2.064   4.835  20.537  0.00  0.00    +0.000 A 
ATOM     21  F   UNL     1       1.083   5.697  20.912  0.00  0.00    +0.000 F 
ATOM     22  C   UNL     1       3.252   5.329  19.992  0.00  0.00    +0.000 A 
ENDBRANCH  14  15
ENDBRANCH   4  14
TORSDOF 6
ENDMDL
MODEL 3
REMARK VINA RESULT:      -6.8      1.433      1.797
REMARK  Name = 
REMARK  6 active torsions:
REMARK  status: ('A' for Active; 'I' for Inactive)
REMARK    1  A    between atoms: O_1  and  C_2
REMARK    2  A    between atoms: C_2  and  C_3
REMARK    3  A    between atoms: C_2  and  C_19
REMARK    4  A    between atoms: C_3  and  N_4
REMARK    5  A    between atoms: N_7  and  C_8
REMARK    6  A    between atoms: C_8  and  C_9
REMARK                            x       y       z     vdW  Elec       q    Type
REMARK                         _______ _______ _______ _____ _____    ______ ____
ROOT
ATOM      1  N   UNL     1       6.461   4.143  15.524  0.00  0.00    +0.000 NA
ATOM      2  C   UNL     1       7.429   4.616  16.544  0.00  0.00    +0.000 C 
ATOM      3  C   UNL     1       7.020   5.975  17.165  0.00  0.00    +0.000 C 
ATOM      4  N   UNL     1       5.654   5.935  17.727  0.00  0.00    +0.000 NA
ATOM      5  C   UNL     1       4.709   5.543  16.657  0.00  0.00    +0.000 C 
ATOM      6  C   UNL     1       5.073   4.180  16.047  0.00  0.00    +0.000 C 
ENDROOT
BRANCH   1   7
ATOM      7  C   UNL     1       6.690   4.802  14.216  0.00  0.00    +0.000 C 
BRANCH   7   8
ATOM      8  C   UNL     1       6.882   3.825  13.026  0.00  0.00    +0.000 C 
BRANCH   8   9
ATOM      9  C   UNL     1       5.528   3.138  12.771  0.00  0.00    +0.000 C 
ATOM     10  C   UNL     1       4.770   3.665  11.563  0.00  0.00    +0.000 C 
ATOM     11  C   UNL     1       5.399   2.268  11.536  0.00  0.00    +0.000 C 
ENDBRANCH   8   9
BRANCH   8  12
ATOM     12  O   UNL     1       7.245   4.502  11.845  0.00  0.00    +0.000 OA
ATOM     13  H   UNL     1       6.749   4.108  11.083  0.00  0.00    +0.000 HD
ENDBRANCH   8  12
ENDBRANCH   7   8
ENDBRANCH   1   7
BRANCH   4  14
ATOM     14  C   UNL     1       5.608   5.082  18.947  0.00  0.00    +0.000 C 
BRANCH  14  15
ATOM     15  C   UNL     1       4.209   4.753  19.407  0.00  0.00    +0.000 A 
ATOM     16  C   UNL     1       3.336   5.793  19.774  0.00  0.00    +0.000 A 
ATOM     17  C   UNL     1       2.025   5.512  20.158  0.00  0.00    +0.000 A 
ATOM     18  C   UNL     1       1.565   4.193  20.174  0.00  0.00    +0.000 A 
ATOM     19  F   UNL     1       0.289   3.928  20.533  0.00  0.00    +0.000 F 
ATOM     20  C   UNL     1       2.430   3.151  19.814  0.00  0.00    +0.000 A 
ATOM     21  F   UNL     1       1.982   1.868  19.824  0.00  0.00    +0.000 F 
ATOM     22  C   UNL     1       3.747   3.425  19.435  0.00  0.00    +0.000 A 
ENDBRANCH  14  15
ENDBRANCH   4  14
TORSDOF 6
ENDMDL
MODEL 4
REMARK VINA RESULT:      -6.7      4.434      7.799
REMARK  Name = 
REMARK  6 active torsions:
REMARK  status: ('A' for Active; 'I' for Inactive)
REMARK    1  A    between atoms: O_1  and  C_2
REMARK    2  A    between atoms: C_2  and  C_3
REMARK    3  A    between atoms: C_2  and  C_19
REMARK    4  A    between atoms: C_3  and  N_4
REMARK    5  A    between atoms: N_7  and  C_8
REMARK    6  A    between atoms: C_8  and  C_9
REMARK                            x       y       z     vdW  Elec       q    Type
REMARK                         _______ _______ _______ _____ _____    ______ ____
ROOT
ATOM      1  N   UNL     1       4.320   3.939  19.506  0.00  0.00    +0.000 NA
ATOM      2  C   UNL     1       4.102   3.034  18.351  0.00  0.00    +0.000 C 
ATOM      3  C   UNL     1       3.831   3.805  17.036  0.00  0.00    +0.000 C 
ATOM      4  N   UNL     1       4.903   4.778  16.737  0.00  0.00    +0.000 NA
ATOM      5  C   UNL     1       5.029   5.714  17.876  0.00  0.00    +0.000 C 
ATOM      6  C   UNL     1       5.333   4.975  19.189  0.00  0.00    +0.000 C 
ENDROOT
BRANCH   1   7
ATOM      7  C   UNL     1       3.034   4.423  20.063  0.00  0.00    +0.000 C 
BRANCH   7   8
ATOM      8  C   UNL     1       2.483   3.580  21.244  0.00  0.00    +0.000 C 
BRANCH   8   9
ATOM      9  C   UNL     1       1.122   3.006  20.805  0.00  0.00    +0.000 C 
ATOM     10  C   UNL     1       0.623   3.522  19.465  0.00  0.00    +0.000 C 
ATOM     11  C   UNL     1       1.102   2.074  19.610  0.00  0.00    +0.000 C 
ENDBRANCH   8   9
BRANCH   8  12
ATOM     12  O   UNL     1       3.325   2.493  21.549  0.00  0.00    +0.000 OA
ATOM     13  H   UNL     1       2.857   1.650  21.321  0.00  0.00    +0.000 HD
ENDBRANCH   8  12
ENDBRANCH   7   8
ENDBRANCH   1   7
BRANCH   4  14
ATOM     14  C   UNL     1       6.162   4.077  16.358  0.00  0.00    +0.000 C 
BRANCH  14  15
ATOM     15  C   UNL     1       6.534   4.241  14.904  0.00  0.00    +0.000 A 
ATOM     16  C   UNL     1       5.803   3.554  13.918  0.00  0.00    +0.000 A 
ATOM     17  C   UNL     1       6.102   3.728  12.567  0.00  0.00    +0.000 A 
ATOM     18  C   UNL     1       7.130   4.592  12.181  0.00  0.00    +0.000 A 
ATOM     19  F   UNL     1       7.407   4.767  10.870  0.00  0.00    +0.000 F 
ATOM     20  C   UNL     1       7.866   5.276  13.158  0.00  0.00    +0.000 A 
ATOM     21  F   UNL     1       8.862   6.121  12.783  0.00  0.00    +0.000 F 
ATOM     22  C   UNL     1       7.576   5.102  14.513  0.00  0.00    +0.000 A 
ENDBRANCH  14  15
ENDBRANCH   4  14
TORSDOF 6
ENDMDL
MODEL 5
REMARK VINA RESULT:      -6.7      3.955      7.658
REMARK  Name = 
REMARK  6 active torsions:
REMARK  status: ('A' for Active; 'I' for Inactive)
REMARK    1  A    between atoms: O_1  and  C_2
REMARK    2  A    between atoms: C_2  and  C_3
REMARK    3  A    between atoms: C_2  and  C_19
REMARK    4  A    between atoms: C_3  and  N_4
REMARK    5  A    between atoms: N_7  and  C_8
REMARK    6  A    between atoms: C_8  and  C_9
REMARK                            x       y       z     vdW  Elec       q    Type
REMARK                         _______ _______ _______ _____ _____    ______ ____
ROOT
ATOM      1  N   UNL     1       4.275   4.827  18.730  0.00  0.00    +0.000 NA
ATOM      2  C   UNL     1       4.116   4.848  17.255  0.00  0.00    +0.000 C 
ATOM      3  C   UNL     1       5.009   5.916  16.577  0.00  0.00    +0.000 C 
ATOM      4  N   UNL     1       6.432   5.757  16.943  0.00  0.00    +0.000 NA
ATOM      5  C   UNL     1       6.557   5.828  18.415  0.00  0.00    +0.000 C 
ATOM      6  C   UNL     1       5.706   4.754  19.112  0.00  0.00    +0.000 C 
ENDROOT
BRANCH   1   7
ATOM      7  C   UNL     1       3.474   5.896  19.373  0.00  0.00    +0.000 C 
BRANCH   7   8
ATOM      8  C   UNL     1       2.123   5.419  19.971  0.00  0.00    +0.000 C 
BRANCH   8   9
ATOM      9  C   UNL     1       2.242   3.905  20.228  0.00  0.00    +0.000 C 
ATOM     10  C   UNL     1       2.081   3.498  21.684  0.00  0.00    +0.000 C 
ATOM     11  C   UNL     1       0.993   3.162  20.659  0.00  0.00    +0.000 C 
ENDBRANCH   8   9
BRANCH   8  12
ATOM     12  O   UNL     1       1.847   6.041  21.205  0.00  0.00    +0.000 OA
ATOM     13  H   UNL     1       0.948   6.455  21.162  0.00  0.00    +0.000 HD
ENDBRANCH   8  12
ENDBRANCH   7   8
ENDBRANCH   1   7
BRANCH   4  14
ATOM     14  C   UNL     1       7.004   4.528  16.323  0.00  0.00    +0.000 C 
BRANCH  14  15
ATOM     15  C   UNL     1       7.026   4.562  14.814  0.00  0.00    +0.000 A 
ATOM     16  C   UNL     1       7.902   5.441  14.153  0.00  0.00    +0.000 A 
ATOM     17  C   UNL     1       7.971   5.455  12.760  0.00  0.00    +0.000 A 
ATOM     18  C   UNL     1       7.173   4.588  12.009  0.00  0.00    +0.000 A 
ATOM     19  F   UNL     1       7.253   4.596  10.660  0.00  0.00    +0.000 F 
ATOM     20  C   UNL     1       6.294   3.712  12.661  0.00  0.00    +0.000 A 
ATOM     21  F   UNL     1       5.522   2.865  11.932  0.00  0.00    +0.000 F 
ATOM     22  C   UNL     1       6.216   3.698  14.056  0.00  0.00    +0.000 A 
ENDBRANCH  14  15
ENDBRANCH   4  14
TORSDOF 6
ENDMDL
MODEL 6
REMARK VINA RESULT:      -6.6      1.317      1.959
REMARK  Name = 
REMARK  6 active torsions:
REMARK  status: ('A' for Active; 'I' for Inactive)
REMARK    1  A    between atoms: O_1  and  C_2
REMARK    2  A    between atoms: C_2  and  C_3
REMARK    3  A    between atoms: C_2  and  C_19
REMARK    4  A    between atoms: C_3  and  N_4
REMARK    5  A    between atoms: N_7  and  C_8
REMARK    6  A    between atoms: C_8  and  C_9
REMARK                            x       y       z     vdW  Elec       q    Type
REMARK                         _______ _______ _______ _____ _____    ______ ____
ROOT
ATOM      1  N   UNL     1       5.895   4.422  15.822  0.00  0.00    +0.000 NA
ATOM      2  C   UNL     1       6.056   5.774  16.412  0.00  0.00    +0.000 C 
ATOM      3  C   UNL     1       4.701   6.486  16.644  0.00  0.00    +0.000 C 
ATOM      4  N   UNL     1       3.782   5.669  17.464  0.00  0.00    +0.000 NA
ATOM      5  C   UNL     1       3.580   4.364  16.797  0.00  0.00    +0.000 C 
ATOM      6  C   UNL     1       4.909   3.620  16.586  0.00  0.00    +0.000 C 
ENDROOT
BRANCH   1   7
ATOM      7  C   UNL     1       5.690   4.495  14.355  0.00  0.00    +0.000 C 
BRANCH   7   8
ATOM      8  C   UNL     1       6.967   4.241  13.511  0.00  0.00    +0.000 C 
BRANCH   8   9
ATOM      9  C   UNL     1       6.512   3.843  12.095  0.00  0.00    +0.000 C 
ATOM     10  C   UNL     1       6.240   2.359  11.913  0.00  0.00    +0.000 C 
ATOM     11  C   UNL     1       5.084   3.365  11.920  0.00  0.00    +0.000 C 
ENDBRANCH   8   9
BRANCH   8  12
ATOM     12  O   UNL     1       7.759   5.401  13.395  0.00  0.00    +0.000 OA
ATOM     13  H   UNL     1       7.361   6.118  13.950  0.00  0.00    +0.000 HD
ENDBRANCH   8  12
ENDBRANCH   7   8
ENDBRANCH   1   7
BRANCH   4  14
ATOM     14  C   UNL     1       4.262   5.587  18.872  0.00  0.00    +0.000 C 
BRANCH  14  15
ATOM     15  C   UNL     1       3.372   4.762  19.770  0.00  0.00    +0.000 A 
ATOM     16  C   UNL     1       2.024   5.127  19.938  0.00  0.00    +0.000 A 
ATOM     17  C   UNL     1       1.175   4.351  20.727  0.00  0.00    +0.000 A 
ATOM     18  C   UNL     1       1.656   3.199  21.352  0.00  0.00    +0.000 A 
ATOM     19  F   UNL     1       0.825   2.443  22.105  0.00  0.00    +0.000 F 
ATOM     20  C   UNL     1       2.999   2.831  21.194  0.00  0.00    +0.000 A 
ATOM     21  F   UNL     1       3.466   1.707  21.798  0.00  0.00    +0.000 F 
ATOM     22  C   UNL     1       3.857   3.607  20.410  0.00  0.00    +0.000 A 
ENDBRANCH  14  15
ENDBRANCH   4  14
TORSDOF 6
ENDMDL
MODEL 7
REMARK VINA RESULT:      -6.6      2.846      4.560
REMARK  Name = 
REMARK  6 active torsions:
REMARK  status: ('A' for Active; 'I' for Inactive)
REMARK    1  A    between atoms: O_1  and  C_2
REMARK    2  A    between atoms: C_2  and  C_3
REMARK    3  A    between atoms: C_2  and  C_19
REMARK    4  A    between atoms: C_3  and  N_4
REMARK    5  A    between atoms: N_7  and  C_8
REMARK    6  A    between atoms: C_8  and  C_9
REMARK                            x       y       z     vdW  Elec       q    Type
REMARK                         _______ _______ _______ _____ _____    ______ ____
ROOT
ATOM      1  N   UNL     1       6.859   6.340  17.594  0.00  0.00    +0.000 NA
ATOM      2  C   UNL     1       5.714   6.052  18.493  0.00  0.00    +0.000 C 
ATOM      3  C   UNL     1       4.351   6.140  17.764  0.00  0.00    +0.000 C 
ATOM      4  N   UNL     1       4.306   5.267  16.573  0.00  0.00    +0.000 NA
ATOM      5  C   UNL     1       5.410   5.644  15.663  0.00  0.00    +0.000 C 
ATOM      6  C   UNL     1       6.780   5.532  16.353  0.00  0.00    +0.000 C 
ENDROOT
BRANCH   1   7
ATOM      7  C   UNL     1       7.054   7.799  17.419  0.00  0.00    +0.000 C 
BRANCH   7   8
ATOM      8  C   UNL     1       8.419   8.334  17.928  0.00  0.00    +0.000 C 
BRANCH   8   9
ATOM      9  C   UNL     1       8.247   9.838  18.214  0.00  0.00    +0.000 C 
ATOM     10  C   UNL     1       9.098  10.364  19.359  0.00  0.00    +0.000 C 
ATOM     11  C   UNL     1       9.418  10.752  17.912  0.00  0.00    +0.000 C 
ENDBRANCH   8   9
BRANCH   8  12
ATOM     12  O   UNL     1       8.810   7.714  19.131  0.00  0.00    +0.000 OA
ATOM     13  H   UNL     1       9.497   7.029  18.931  0.00  0.00    +0.000 HD
ENDBRANCH   8  12
ENDBRANCH   7   8
ENDBRANCH   1   7
BRANCH   4  14
ATOM     14  C   UNL     1       4.281   3.831  16.969  0.00  0.00    +0.000 C 
BRANCH  14  15
ATOM     15  C   UNL     1       3.356   3.535  18.124  0.00  0.00    +0.000 A 
ATOM     16  C   UNL     1       1.968   3.702  17.962  0.00  0.00    +0.000 A 
ATOM     17  C   UNL     1       1.094   3.390  19.003  0.00  0.00    +0.000 A 
ATOM     18  C   UNL     1       1.589   2.902  20.215  0.00  0.00    +0.000 A 
ATOM     19  F   UNL     1       0.735   2.588  21.215  0.00  0.00    +0.000 F 
ATOM     20  C   UNL     1       2.970   2.738  20.385  0.00  0.00    +0.000 A 
ATOM     21  F   UNL     1       3.452   2.259  21.561  0.00  0.00    +0.000 F 
ATOM     22  C   UNL     1       3.853   3.055  19.349  0.00  0.00    +0.000 A 
ENDBRANCH  14  15
ENDBRANCH   4  14
TORSDOF 6
ENDMDL
MODEL 8
REMARK VINA RESULT:      -6.6      3.906      7.655
REMARK  Name = 
REMARK  6 active torsions:
REMARK  status: ('A' for Active; 'I' for Inactive)
REMARK    1  A    between atoms: O_1  and  C_2
REMARK    2  A    between atoms: C_2  and  C_3
REMARK    3  A    between atoms: C_2  and  C_19
REMARK    4  A    between atoms: C_3  and  N_4
REMARK    5  A    between atoms: N_7  and  C_8
REMARK    6  A    between atoms: C_8  and  C_9
REMARK                            x       y       z     vdW  Elec       q    Type
REMARK                         _______ _______ _______ _____ _____    ______ ____
ROOT
ATOM      1  N   UNL     1       4.020   5.586  19.017  0.00  0.00    +0.000 NA
ATOM      2  C   UNL     1       5.492   5.409  19.081  0.00  0.00    +0.000 C 
ATOM      3  C   UNL     1       5.974   4.164  18.296  0.00  0.00    +0.000 C 
ATOM      4  N   UNL     1       5.515   4.186  16.892  0.00  0.00    +0.000 NA
ATOM      5  C   UNL     1       4.038   4.277  16.874  0.00  0.00    +0.000 C 
ATOM      6  C   UNL     1       3.535   5.524  17.617  0.00  0.00    +0.000 C 
ENDROOT
BRANCH   1   7
ATOM      7  C   UNL     1       3.329   4.710  19.994  0.00  0.00    +0.000 C 
BRANCH   7   8
ATOM      8  C   UNL     1       1.841   5.072  20.246  0.00  0.00    +0.000 C 
BRANCH   8   9
ATOM      9  C   UNL     1       1.158   3.827  20.843  0.00  0.00    +0.000 C 
ATOM     10  C   UNL     1       1.598   2.509  20.226  0.00  0.00    +0.000 C 
ATOM     11  C   UNL     1       2.014   2.874  21.655  0.00  0.00    +0.000 C 
ENDBRANCH   8   9
BRANCH   8  12
ATOM     12  O   UNL     1       1.706   6.120  21.178  0.00  0.00    +0.000 OA
ATOM     13  H   UNL     1       1.626   6.977  20.688  0.00  0.00    +0.000 HD
ENDBRANCH   8  12
ENDBRANCH   7   8
ENDBRANCH   1   7
BRANCH   4  14
ATOM     14  C   UNL     1       6.218   5.251  16.122  0.00  0.00    +0.000 C 
BRANCH  14  15
ATOM     15  C   UNL     1       6.526   4.867  14.695  0.00  0.00    +0.000 A 
ATOM     16  C   UNL     1       7.573   5.513  14.013  0.00  0.00    +0.000 A 
ATOM     17  C   UNL     1       7.902   5.141  12.710  0.00  0.00    +0.000 A 
ATOM     18  C   UNL     1       7.198   4.117  12.073  0.00  0.00    +0.000 A 
ATOM     19  F   UNL     1       7.530   3.751  10.814  0.00  0.00    +0.000 F 
ATOM     20  C   UNL     1       6.150   3.472  12.744  0.00  0.00    +0.000 A 
ATOM     21  F   UNL     1       5.467   2.473  12.127  0.00  0.00    +0.000 F 
ATOM     22  C   UNL     1       5.811   3.844  14.048  0.00  0.00    +0.000 A 
ENDBRANCH  14  15
ENDBRANCH   4  14
TORSDOF 6
ENDMDL
MODEL 9
REMARK VINA RESULT:      -6.4      4.338      5.997
REMARK  Name = 
REMARK  6 active torsions:
REMARK  status: ('A' for Active; 'I' for Inactive)
REMARK    1  A    between atoms: O_1  and  C_2
REMARK    2  A    between atoms: C_2  and  C_3
REMARK    3  A    between atoms: C_2  and  C_19
REMARK    4  A    between atoms: C_3  and  N_4
REMARK    5  A    between atoms: N_7  and  C_8
REMARK    6  A    between atoms: C_8  and  C_9
REMARK                            x       y       z     vdW  Elec       q    Type
REMARK                         _______ _______ _______ _____ _____    ______ ____
ROOT
ATOM      1  N   UNL     1       4.668   4.938  19.240  0.00  0.00    +0.000 NA
ATOM      2  C   UNL     1       5.089   5.939  18.229  0.00  0.00    +0.000 C 
ATOM      3  C   UNL     1       3.950   6.302  17.244  0.00  0.00    +0.000 C 
ATOM      4  N   UNL     1       2.735   6.759  17.950  0.00  0.00    +0.000 NA
ATOM      5  C   UNL     1       2.300   5.698  18.885  0.00  0.00    +0.000 C 
ATOM      6  C   UNL     1       3.401   5.343  19.897  0.00  0.00    +0.000 C 
ENDROOT
BRANCH   1   7
ATOM      7  C   UNL     1       4.715   3.562  18.688  0.00  0.00    +0.000 C 
BRANCH   7   8
ATOM      8  C   UNL     1       4.148   2.469  19.633  0.00  0.00    +0.000 C 
BRANCH   8   9
ATOM      9  C   UNL     1       3.152   1.625  18.815  0.00  0.00    +0.000 C 
ATOM     10  C   UNL     1       1.700   2.052  18.955  0.00  0.00    +0.000 C 
ATOM     11  C   UNL     1       2.457   2.290  17.644  0.00  0.00    +0.000 C 
ENDBRANCH   8   9
BRANCH   8  12
ATOM     12  O   UNL     1       5.158   1.604  20.098  0.00  0.00    +0.000 OA
ATOM     13  H   UNL     1       5.619   1.199  19.320  0.00  0.00    +0.000 HD
ENDBRANCH   8  12
ENDBRANCH   7   8
ENDBRANCH   1   7
BRANCH   4  14
ATOM     14  C   UNL     1       2.957   8.093  18.575  0.00  0.00    +0.000 C 
BRANCH  14  15
ATOM     15  C   UNL     1       1.683   8.858  18.843  0.00  0.00    +0.000 A 
ATOM     16  C   UNL     1       0.972   9.421  17.768  0.00  0.00    +0.000 A 
ATOM     17  C   UNL     1      -0.230  10.092  17.991  0.00  0.00    +0.000 A 
ATOM     18  C   UNL     1      -0.743  10.204  19.286  0.00  0.00    +0.000 A 
ATOM     19  F   UNL     1      -1.915  10.843  19.495  0.00  0.00    +0.000 F 
ATOM     20  C   UNL     1      -0.037   9.649  20.363  0.00  0.00    +0.000 A 
ATOM     21  F   UNL     1      -0.537   9.754  21.622  0.00  0.00    +0.000 F 
ATOM     22  C   UNL     1       1.171   8.982  20.147  0.00  0.00    +0.000 A 
ENDBRANCH  14  15
ENDBRANCH   4  14
TORSDOF 6
ENDMDL
