MODEL 1
REMARK VINA RESULT:      -7.7      0.000      0.000
REMARK  Name = 
REMARK  4 active torsions:
REMARK  status: ('A' for Active; 'I' for Inactive)
REMARK    1  A    between atoms: C_1  and  C_2
REMARK    2  A    between atoms: C_5  and  S_6
REMARK    3  A    between atoms: S_6  and  C_9
REMARK    4  A    between atoms: C_19  and  C_20
REMARK                            x       y       z     vdW  Elec       q    Type
REMARK                         _______ _______ _______ _____ _____    ______ ____
ROOT
ATOM      1  C   UNL     1      -1.314  11.213  19.504  0.00  0.00    +0.000 A 
ATOM      2  C   UNL     1      -1.448  10.540  18.299  0.00  0.00    +0.000 A 
ATOM      3  N   UNL     1      -2.542  10.584  17.521  0.00  0.00    +0.000 NA
ATOM      4  C   UNL     1      -3.563  11.365  17.888  0.00  0.00    +0.000 A 
ATOM      5  C   UNL     1      -4.693  11.391  17.068  0.00  0.00    +0.000 A 
ATOM      6  F   UNL     1      -4.729  10.635  15.958  0.00  0.00    +0.000 F 
ATOM      7  C   UNL     1      -5.810  12.173  17.345  0.00  0.00    +0.000 A 
ATOM      8  C   UNL     1      -5.786  12.991  18.454  0.00  0.00    +0.000 A 
ATOM      9  C   UNL     1      -4.658  13.001  19.277  0.00  0.00    +0.000 A 
ATOM     10  C   UNL     1      -3.534  12.148  19.073  0.00  0.00    +0.000 A 
ATOM     11  C   UNL     1      -2.385  12.025  19.963  0.00  0.00    +0.000 A 
ENDROOT
BRANCH  11  12
ATOM     12  C   UNL     1      -2.419  12.695  21.320  0.00  0.00    +0.000 A 
ATOM     13  C   UNL     1      -1.630  13.837  21.593  0.00  0.00    +0.000 A 
ATOM     14  C   UNL     1      -1.547  14.411  22.871  0.00  0.00    +0.000 A 
ATOM     15  C   UNL     1      -2.365  13.949  23.892  0.00  0.00    +0.000 A 
ATOM     16  C   UNL     1      -3.218  12.887  23.636  0.00  0.00    +0.000 A 
ATOM     17 CL   UNL     1      -4.319  12.368  24.854  0.00  0.00    +0.000 Cl
ATOM     18  C   UNL     1      -3.192  12.233  22.397  0.00  0.00    +0.000 A 
ENDBRANCH  11  12
BRANCH   1  19
ATOM     19  S   UNL     1       0.216  10.947  20.371  0.00  0.00    +0.000 S 
ATOM     20  O   UNL     1      -0.120  10.570  21.728  0.00  0.00    +0.000 OA
ATOM     21  O   UNL     1       1.063  12.093  20.083  0.00  0.00    +0.000 OA
BRANCH  19  26
ATOM     22  C   UNL     1       3.244   6.267  17.952  0.00  0.00    +0.000 C 
ATOM     23  C   UNL     1       2.508   7.431  18.543  0.00  0.00    +0.000 A 
ATOM     24  C   UNL     1       2.332   8.611  17.814  0.00  0.00    +0.000 A 
ATOM     25  C   UNL     1       1.634   9.680  18.378  0.00  0.00    +0.000 A 
ATOM     26  C   UNL     1       1.106   9.565  19.672  0.00  0.00    +0.000 A 
ATOM     27  C   UNL     1       1.303   8.408  20.423  0.00  0.00    +0.000 A 
ATOM     28  C   UNL     1       1.997   7.351  19.844  0.00  0.00    +0.000 A 
ATOM     29  F   UNL     1       2.174   6.230  20.557  0.00  0.00    +0.000 F 
ENDBRANCH  19  26
ENDBRANCH   1  19
TORSDOF 3
ENDMDL
MODEL 2
REMARK VINA RESULT:      -7.7      6.263      9.084
REMARK  Name = 
REMARK  4 active torsions:
REMARK  status: ('A' for Active; 'I' for Inactive)
REMARK    1  A    between atoms: C_1  and  C_2
REMARK    2  A    between atoms: C_5  and  S_6
REMARK    3  A    between atoms: S_6  and  C_9
REMARK    4  A    between atoms: C_19  and  C_20
REMARK                            x       y       z     vdW  Elec       q    Type
REMARK                         _______ _______ _______ _____ _____    ______ ____
ROOT
ATOM      1  C   UNL     1       4.029   5.578  17.889  0.00  0.00    +0.000 A 
ATOM      2  C   UNL     1       4.203   6.690  17.079  0.00  0.00    +0.000 A 
ATOM      3  N   UNL     1       3.552   7.854  17.235  0.00  0.00    +0.000 NA
ATOM      4  C   UNL     1       2.712   7.989  18.267  0.00  0.00    +0.000 A 
ATOM      5  C   UNL     1       2.040   9.205  18.407  0.00  0.00    +0.000 A 
ATOM      6  F   UNL     1       2.242  10.186  17.511  0.00  0.00    +0.000 F 
ATOM      7  C   UNL     1       1.151   9.463  19.446  0.00  0.00    +0.000 A 
ATOM      8  C   UNL     1       0.955   8.491  20.404  0.00  0.00    +0.000 A 
ATOM      9  C   UNL     1       1.633   7.275  20.299  0.00  0.00    +0.000 A 
ATOM     10  C   UNL     1       2.481   6.946  19.201  0.00  0.00    +0.000 A 
ATOM     11  C   UNL     1       3.117   5.652  18.975  0.00  0.00    +0.000 A 
ENDROOT
BRANCH  11  12
ATOM     12  C   UNL     1       2.734   4.472  19.843  0.00  0.00    +0.000 A 
ATOM     13  C   UNL     1       1.381   4.198  20.151  0.00  0.00    +0.000 A 
ATOM     14  C   UNL     1       0.998   3.186  21.046  0.00  0.00    +0.000 A 
ATOM     15  C   UNL     1       1.952   2.317  21.556  0.00  0.00    +0.000 A 
ATOM     16  C   UNL     1       3.280   2.501  21.205  0.00  0.00    +0.000 A 
ATOM     17 CL   UNL     1       4.465   1.371  21.737  0.00  0.00    +0.000 Cl
ATOM     18  C   UNL     1       3.666   3.598  20.422  0.00  0.00    +0.000 A 
ENDBRANCH  11  12
BRANCH   1  19
ATOM     19  S   UNL     1       4.972   4.140  17.439  0.00  0.00    +0.000 S 
ATOM     20  O   UNL     1       4.044   3.034  17.333  0.00  0.00    +0.000 OA
ATOM     21  O   UNL     1       6.117   4.095  18.334  0.00  0.00    +0.000 OA
BRANCH  19  26
ATOM     22  C   UNL     1       7.475   4.855  11.947  0.00  0.00    +0.000 C 
ATOM     23  C   UNL     1       6.871   4.675  13.308  0.00  0.00    +0.000 A 
ATOM     24  C   UNL     1       7.530   5.140  14.450  0.00  0.00    +0.000 A 
ATOM     25  C   UNL     1       6.946   4.972  15.706  0.00  0.00    +0.000 A 
ATOM     26  C   UNL     1       5.699   4.342  15.819  0.00  0.00    +0.000 A 
ATOM     27  C   UNL     1       5.046   3.843  14.693  0.00  0.00    +0.000 A 
ATOM     28  C   UNL     1       5.641   4.023  13.448  0.00  0.00    +0.000 A 
ATOM     29  F   UNL     1       5.009   3.560  12.361  0.00  0.00    +0.000 F 
ENDBRANCH  19  26
ENDBRANCH   1  19
TORSDOF 3
ENDMDL
MODEL 3
REMARK VINA RESULT:      -7.6      0.869      1.249
REMARK  Name = 
REMARK  4 active torsions:
REMARK  status: ('A' for Active; 'I' for Inactive)
REMARK    1  A    between atoms: C_1  and  C_2
REMARK    2  A    between atoms: C_5  and  S_6
REMARK    3  A    between atoms: S_6  and  C_9
REMARK    4  A    between atoms: C_19  and  C_20
REMARK                            x       y       z     vdW  Elec       q    Type
REMARK                         _______ _______ _______ _____ _____    ______ ____
ROOT
ATOM      1  C   UNL     1      -1.442  11.436  19.690  0.00  0.00    +0.000 A 
ATOM      2  C   UNL     1      -1.533  10.758  18.483  0.00  0.00    +0.000 A 
ATOM      3  N   UNL     1      -2.620  10.754  17.695  0.00  0.00    +0.000 NA
ATOM      4  C   UNL     1      -3.679  11.489  18.052  0.00  0.00    +0.000 A 
ATOM      5  C   UNL     1      -4.800  11.466  17.221  0.00  0.00    +0.000 A 
ATOM      6  F   UNL     1      -4.792  10.710  16.110  0.00  0.00    +0.000 F 
ATOM      7  C   UNL     1      -5.954  12.198  17.486  0.00  0.00    +0.000 A 
ATOM      8  C   UNL     1      -5.977  13.015  18.596  0.00  0.00    +0.000 A 
ATOM      9  C   UNL     1      -4.859  13.074  19.431  0.00  0.00    +0.000 A 
ATOM     10  C   UNL     1      -3.696  12.271  19.237  0.00  0.00    +0.000 A 
ATOM     11  C   UNL     1      -2.552  12.199  20.139  0.00  0.00    +0.000 A 
ENDROOT
BRANCH  11  12
ATOM     12  C   UNL     1      -2.630  12.866  21.495  0.00  0.00    +0.000 A 
ATOM     13  C   UNL     1      -1.939  14.072  21.760  0.00  0.00    +0.000 A 
ATOM     14  C   UNL     1      -1.892  14.653  23.036  0.00  0.00    +0.000 A 
ATOM     15  C   UNL     1      -2.656  14.124  24.066  0.00  0.00    +0.000 A 
ATOM     16  C   UNL     1      -3.417  12.991  23.820  0.00  0.00    +0.000 A 
ATOM     17 CL   UNL     1      -4.456  12.381  25.050  0.00  0.00    +0.000 Cl
ATOM     18  C   UNL     1      -3.347  12.340  22.581  0.00  0.00    +0.000 A 
ENDBRANCH  11  12
BRANCH   1  19
ATOM     19  S   UNL     1       0.090  11.237  20.572  0.00  0.00    +0.000 S 
ATOM     20  O   UNL     1      -0.242  11.025  21.965  0.00  0.00    +0.000 OA
ATOM     21  O   UNL     1       0.958  12.324  20.150  0.00  0.00    +0.000 OA
BRANCH  19  26
ATOM     22  C   UNL     1       3.001   6.214  18.775  0.00  0.00    +0.000 C 
ATOM     23  C   UNL     1       2.272   7.445  19.225  0.00  0.00    +0.000 A 
ATOM     24  C   UNL     1       1.731   7.526  20.512  0.00  0.00    +0.000 A 
ATOM     25  C   UNL     1       1.066   8.684  20.915  0.00  0.00    +0.000 A 
ATOM     26  C   UNL     1       0.945   9.765  20.030  0.00  0.00    +0.000 A 
ATOM     27  C   UNL     1       1.449   9.686  18.734  0.00  0.00    +0.000 A 
ATOM     28  C   UNL     1       2.114   8.525  18.350  0.00  0.00    +0.000 A 
ATOM     29  F   UNL     1       2.614   8.452  17.109  0.00  0.00    +0.000 F 
ENDBRANCH  19  26
ENDBRANCH   1  19
TORSDOF 3
ENDMDL
MODEL 4
REMARK VINA RESULT:      -7.5      6.003      8.733
REMARK  Name = 
REMARK  4 active torsions:
REMARK  status: ('A' for Active; 'I' for Inactive)
REMARK    1  A    between atoms: C_1  and  C_2
REMARK    2  A    between atoms: C_5  and  S_6
REMARK    3  A    between atoms: S_6  and  C_9
REMARK    4  A    between atoms: C_19  and  C_20
REMARK                            x       y       z     vdW  Elec       q    Type
REMARK                         _______ _______ _______ _____ _____    ______ ____
ROOT
ATOM      1  C   UNL     1       4.052   5.975  17.928  0.00  0.00    +0.000 A 
ATOM      2  C   UNL     1       4.393   7.089  17.176  0.00  0.00    +0.000 A 
ATOM      3  N   UNL     1       3.763   8.273  17.244  0.00  0.00    +0.000 NA
ATOM      4  C   UNL     1       2.770   8.426  18.127  0.00  0.00    +0.000 A 
ATOM      5  C   UNL     1       2.125   9.663  18.176  0.00  0.00    +0.000 A 
ATOM      6  F   UNL     1       2.502  10.646  17.341  0.00  0.00    +0.000 F 
ATOM      7  C   UNL     1       1.087   9.940  19.060  0.00  0.00    +0.000 A 
ATOM      8  C   UNL     1       0.705   8.965  19.957  0.00  0.00    +0.000 A 
ATOM      9  C   UNL     1       1.352   7.727  19.944  0.00  0.00    +0.000 A 
ATOM     10  C   UNL     1       2.357   7.381  18.994  0.00  0.00    +0.000 A 
ATOM     11  C   UNL     1       2.978   6.068  18.853  0.00  0.00    +0.000 A 
ENDROOT
BRANCH  11  12
ATOM     12  C   UNL     1       2.421   4.893  19.627  0.00  0.00    +0.000 A 
ATOM     13  C   UNL     1       2.620   4.774  21.022  0.00  0.00    +0.000 A 
ATOM     14  C   UNL     1       2.221   3.642  21.749  0.00  0.00    +0.000 A 
ATOM     15  C   UNL     1       1.478   2.647  21.130  0.00  0.00    +0.000 A 
ATOM     16  C   UNL     1       1.187   2.773  19.780  0.00  0.00    +0.000 A 
ATOM     17 CL   UNL     1       0.175   1.608  19.015  0.00  0.00    +0.000 Cl
ATOM     18  C   UNL     1       1.708   3.839  19.034  0.00  0.00    +0.000 A 
ENDBRANCH  11  12
BRANCH   1  19
ATOM     19  S   UNL     1       5.010   4.510  17.614  0.00  0.00    +0.000 S 
ATOM     20  O   UNL     1       4.095   3.388  17.630  0.00  0.00    +0.000 OA
ATOM     21  O   UNL     1       6.163   4.568  18.497  0.00  0.00    +0.000 OA
BRANCH  19  26
ATOM     22  C   UNL     1       7.452   4.696  12.053  0.00  0.00    +0.000 C 
ATOM     23  C   UNL     1       6.863   4.645  13.431  0.00  0.00    +0.000 A 
ATOM     24  C   UNL     1       7.578   5.125  14.532  0.00  0.00    +0.000 A 
ATOM     25  C   UNL     1       7.008   5.079  15.805  0.00  0.00    +0.000 A 
ATOM     26  C   UNL     1       5.717   4.556  15.974  0.00  0.00    +0.000 A 
ATOM     27  C   UNL     1       5.007   4.044  14.891  0.00  0.00    +0.000 A 
ATOM     28  C   UNL     1       5.589   4.102  13.629  0.00  0.00    +0.000 A 
ATOM     29  F   UNL     1       4.902   3.625  12.581  0.00  0.00    +0.000 F 
ENDBRANCH  19  26
ENDBRANCH   1  19
TORSDOF 3
ENDMDL
MODEL 5
REMARK VINA RESULT:      -7.5      3.587      4.980
REMARK  Name = 
REMARK  4 active torsions:
REMARK  status: ('A' for Active; 'I' for Inactive)
REMARK    1  A    between atoms: C_1  and  C_2
REMARK    2  A    between atoms: C_5  and  S_6
REMARK    3  A    between atoms: S_6  and  C_9
REMARK    4  A    between atoms: C_19  and  C_20
REMARK                            x       y       z     vdW  Elec       q    Type
REMARK                         _______ _______ _______ _____ _____    ______ ____
ROOT
ATOM      1  C   UNL     1       0.677  12.116  20.432  0.00  0.00    +0.000 A 
ATOM      2  C   UNL     1       1.908  12.613  20.836  0.00  0.00    +0.000 A 
ATOM      3  N   UNL     1       2.376  13.831  20.519  0.00  0.00    +0.000 NA
ATOM      4  C   UNL     1       1.598  14.657  19.811  0.00  0.00    +0.000 A 
ATOM      5  C   UNL     1       2.107  15.916  19.487  0.00  0.00    +0.000 A 
ATOM      6  F   UNL     1       3.347  16.255  19.877  0.00  0.00    +0.000 F 
ATOM      7  C   UNL     1       1.385  16.861  18.764  0.00  0.00    +0.000 A 
ATOM      8  C   UNL     1       0.094  16.559  18.387  0.00  0.00    +0.000 A 
ATOM      9  C   UNL     1      -0.447  15.315  18.719  0.00  0.00    +0.000 A 
ATOM     10  C   UNL     1       0.295  14.292  19.380  0.00  0.00    +0.000 A 
ATOM     11  C   UNL     1      -0.173  12.936  19.644  0.00  0.00    +0.000 A 
ENDROOT
BRANCH  11  12
ATOM     12  C   UNL     1      -1.472  12.463  19.026  0.00  0.00    +0.000 A 
ATOM     13  C   UNL     1      -2.704  12.619  19.703  0.00  0.00    +0.000 A 
ATOM     14  C   UNL     1      -3.908  12.088  19.215  0.00  0.00    +0.000 A 
ATOM     15  C   UNL     1      -3.947  11.503  17.957  0.00  0.00    +0.000 A 
ATOM     16  C   UNL     1      -2.773  11.413  17.226  0.00  0.00    +0.000 A 
ATOM     17 CL   UNL     1      -2.817  10.791  15.620  0.00  0.00    +0.000 Cl
ATOM     18  C   UNL     1      -1.553  11.821  17.781  0.00  0.00    +0.000 A 
ENDBRANCH  11  12
BRANCH   1  19
ATOM     19  S   UNL     1       0.313  10.452  20.941  0.00  0.00    +0.000 S 
ATOM     20  O   UNL     1      -1.092  10.221  20.680  0.00  0.00    +0.000 OA
ATOM     21  O   UNL     1       0.881  10.288  22.269  0.00  0.00    +0.000 OA
BRANCH  19  26
ATOM     22  C   UNL     1       3.351   6.473  17.497  0.00  0.00    +0.000 C 
ATOM     23  C   UNL     1       2.610   7.466  18.340  0.00  0.00    +0.000 A 
ATOM     24  C   UNL     1       2.223   8.703  17.816  0.00  0.00    +0.000 A 
ATOM     25  C   UNL     1       1.525   9.609  18.615  0.00  0.00    +0.000 A 
ATOM     26  C   UNL     1       1.209   9.274  19.940  0.00  0.00    +0.000 A 
ATOM     27  C   UNL     1       1.618   8.060  20.486  0.00  0.00    +0.000 A 
ATOM     28  C   UNL     1       2.310   7.166  19.674  0.00  0.00    +0.000 A 
ATOM     29  F   UNL     1       2.690   5.990  20.191  0.00  0.00    +0.000 F 
ENDBRANCH  19  26
ENDBRANCH   1  19
TORSDOF 3
ENDMDL
MODEL 6
REMARK VINA RESULT:      -7.5      1.208      1.496
REMARK  Name = 
REMARK  4 active torsions:
REMARK  status: ('A' for Active; 'I' for Inactive)
REMARK    1  A    between atoms: C_1  and  C_2
REMARK    2  A    between atoms: C_5  and  S_6
REMARK    3  A    between atoms: S_6  and  C_9
REMARK    4  A    between atoms: C_19  and  C_20
REMARK                            x       y       z     vdW  Elec       q    Type
REMARK                         _______ _______ _______ _____ _____    ______ ____
ROOT
ATOM      1  C   UNL     1      -0.987  11.193  19.530  0.00  0.00    +0.000 A 
ATOM      2  C   UNL     1      -1.280  10.472  18.382  0.00  0.00    +0.000 A 
ATOM      3  N   UNL     1      -2.470  10.484  17.760  0.00  0.00    +0.000 NA
ATOM      4  C   UNL     1      -3.436  11.278  18.232  0.00  0.00    +0.000 A 
ATOM      5  C   UNL     1      -4.667  11.271  17.574  0.00  0.00    +0.000 A 
ATOM      6  F   UNL     1      -4.851  10.471  16.510  0.00  0.00    +0.000 F 
ATOM      7  C   UNL     1      -5.741  12.063  17.970  0.00  0.00    +0.000 A 
ATOM      8  C   UNL     1      -5.571  12.924  19.033  0.00  0.00    +0.000 A 
ATOM      9  C   UNL     1      -4.341  12.968  19.693  0.00  0.00    +0.000 A 
ATOM     10  C   UNL     1      -3.251  12.107  19.370  0.00  0.00    +0.000 A 
ATOM     11  C   UNL     1      -1.990  12.021  20.099  0.00  0.00    +0.000 A 
ENDROOT
BRANCH  11  12
ATOM     12  C   UNL     1      -1.843  12.745  21.421  0.00  0.00    +0.000 A 
ATOM     13  C   UNL     1      -2.507  12.289  22.584  0.00  0.00    +0.000 A 
ATOM     14  C   UNL     1      -2.488  13.000  23.794  0.00  0.00    +0.000 A 
ATOM     15  C   UNL     1      -1.684  14.123  23.924  0.00  0.00    +0.000 A 
ATOM     16  C   UNL     1      -0.948  14.549  22.829  0.00  0.00    +0.000 A 
ATOM     17 CL   UNL     1       0.139  15.874  22.998  0.00  0.00    +0.000 Cl
ATOM     18  C   UNL     1      -1.082  13.912  21.588  0.00  0.00    +0.000 A 
ENDBRANCH  11  12
BRANCH   1  19
ATOM     19  S   UNL     1       0.649  10.963  20.189  0.00  0.00    +0.000 S 
ATOM     20  O   UNL     1       0.512  10.766  21.617  0.00  0.00    +0.000 OA
ATOM     21  O   UNL     1       1.473  12.026  19.639  0.00  0.00    +0.000 OA
BRANCH  19  26
ATOM     22  C   UNL     1       3.155   5.898  17.954  0.00  0.00    +0.000 C 
ATOM     23  C   UNL     1       2.548   7.156  18.498  0.00  0.00    +0.000 A 
ATOM     24  C   UNL     1       2.445   8.303  17.705  0.00  0.00    +0.000 A 
ATOM     25  C   UNL     1       1.867   9.460  18.227  0.00  0.00    +0.000 A 
ATOM     26  C   UNL     1       1.386   9.468  19.545  0.00  0.00    +0.000 A 
ATOM     27  C   UNL     1       1.512   8.344  20.357  0.00  0.00    +0.000 A 
ATOM     28  C   UNL     1       2.087   7.197  19.819  0.00  0.00    +0.000 A 
ATOM     29  F   UNL     1       2.195   6.108  20.593  0.00  0.00    +0.000 F 
ENDBRANCH  19  26
ENDBRANCH   1  19
TORSDOF 3
ENDMDL
MODEL 7
REMARK VINA RESULT:      -7.5      2.912      6.355
REMARK  Name = 
REMARK  4 active torsions:
REMARK  status: ('A' for Active; 'I' for Inactive)
REMARK    1  A    between atoms: C_1  and  C_2
REMARK    2  A    between atoms: C_5  and  S_6
REMARK    3  A    between atoms: S_6  and  C_9
REMARK    4  A    between atoms: C_19  and  C_20
REMARK                            x       y       z     vdW  Elec       q    Type
REMARK                         _______ _______ _______ _____ _____    ______ ____
ROOT
ATOM      1  C   UNL     1      -1.385  11.426  20.075  0.00  0.00    +0.000 A 
ATOM      2  C   UNL     1      -2.514  12.228  19.994  0.00  0.00    +0.000 A 
ATOM      3  N   UNL     1      -3.343  12.268  18.939  0.00  0.00    +0.000 NA
ATOM      4  C   UNL     1      -3.113  11.449  17.907  0.00  0.00    +0.000 A 
ATOM      5  C   UNL     1      -3.985  11.511  16.818  0.00  0.00    +0.000 A 
ATOM      6  F   UNL     1      -5.005  12.384  16.828  0.00  0.00    +0.000 F 
ATOM      7  C   UNL     1      -3.850  10.700  15.694  0.00  0.00    +0.000 A 
ATOM      8  C   UNL     1      -2.837   9.765  15.672  0.00  0.00    +0.000 A 
ATOM      9  C   UNL     1      -1.967   9.667  16.759  0.00  0.00    +0.000 A 
ATOM     10  C   UNL     1      -2.022  10.541  17.885  0.00  0.00    +0.000 A 
ATOM     11  C   UNL     1      -1.069  10.567  18.989  0.00  0.00    +0.000 A 
ENDROOT
BRANCH  11  12
ATOM     12  C   UNL     1       0.202   9.751  18.895  0.00  0.00    +0.000 A 
ATOM     13  C   UNL     1       1.218  10.081  17.967  0.00  0.00    +0.000 A 
ATOM     14  C   UNL     1       2.353   9.280  17.771  0.00  0.00    +0.000 A 
ATOM     15  C   UNL     1       2.585   8.193  18.601  0.00  0.00    +0.000 A 
ATOM     16  C   UNL     1       1.654   7.891  19.582  0.00  0.00    +0.000 A 
ATOM     17 CL   UNL     1       1.972   6.614  20.693  0.00  0.00    +0.000 Cl
ATOM     18  C   UNL     1       0.457   8.614  19.678  0.00  0.00    +0.000 A 
ENDBRANCH  11  12
BRANCH   1  19
ATOM     19  S   UNL     1      -0.422  11.598  21.560  0.00  0.00    +0.000 S 
ATOM     20  O   UNL     1       0.862  12.149  21.177  0.00  0.00    +0.000 OA
ATOM     21  O   UNL     1      -0.530  10.338  22.276  0.00  0.00    +0.000 OA
BRANCH  19  26
ATOM     22  C   UNL     1      -2.923  15.672  25.312  0.00  0.00    +0.000 C 
ATOM     23  C   UNL     1      -2.304  14.678  24.375  0.00  0.00    +0.000 A 
ATOM     24  C   UNL     1      -1.166  15.007  23.632  0.00  0.00    +0.000 A 
ATOM     25  C   UNL     1      -0.599  14.064  22.774  0.00  0.00    +0.000 A 
ATOM     26  C   UNL     1      -1.168  12.788  22.664  0.00  0.00    +0.000 A 
ATOM     27  C   UNL     1      -2.321  12.456  23.373  0.00  0.00    +0.000 A 
ATOM     28  C   UNL     1      -2.871  13.408  24.227  0.00  0.00    +0.000 A 
ATOM     29  F   UNL     1      -3.971  13.087  24.923  0.00  0.00    +0.000 F 
ENDBRANCH  19  26
ENDBRANCH   1  19
TORSDOF 3
ENDMDL
MODEL 8
REMARK VINA RESULT:      -7.4      2.754      5.398
REMARK  Name = 
REMARK  4 active torsions:
REMARK  status: ('A' for Active; 'I' for Inactive)
REMARK    1  A    between atoms: C_1  and  C_2
REMARK    2  A    between atoms: C_5  and  S_6
REMARK    3  A    between atoms: S_6  and  C_9
REMARK    4  A    between atoms: C_19  and  C_20
REMARK                            x       y       z     vdW  Elec       q    Type
REMARK                         _______ _______ _______ _____ _____    ______ ____
ROOT
ATOM      1  C   UNL     1      -1.056  12.097  20.383  0.00  0.00    +0.000 A 
ATOM      2  C   UNL     1      -0.407  11.347  19.414  0.00  0.00    +0.000 A 
ATOM      3  N   UNL     1      -1.004  10.829  18.329  0.00  0.00    +0.000 NA
ATOM      4  C   UNL     1      -2.300  11.084  18.121  0.00  0.00    +0.000 A 
ATOM      5  C   UNL     1      -2.902  10.530  16.990  0.00  0.00    +0.000 A 
ATOM      6  F   UNL     1      -2.181   9.758  16.160  0.00  0.00    +0.000 F 
ATOM      7  C   UNL     1      -4.241  10.737  16.668  0.00  0.00    +0.000 A 
ATOM      8  C   UNL     1      -4.996  11.558  17.477  0.00  0.00    +0.000 A 
ATOM      9  C   UNL     1      -4.411  12.143  18.602  0.00  0.00    +0.000 A 
ATOM     10  C   UNL     1      -3.069  11.882  19.009  0.00  0.00    +0.000 A 
ATOM     11  C   UNL     1      -2.443  12.365  20.235  0.00  0.00    +0.000 A 
ENDROOT
BRANCH  11  12
ATOM     12  C   UNL     1      -3.292  13.047  21.286  0.00  0.00    +0.000 A 
ATOM     13  C   UNL     1      -3.769  14.366  21.099  0.00  0.00    +0.000 A 
ATOM     14  C   UNL     1      -4.456  15.071  22.100  0.00  0.00    +0.000 A 
ATOM     15  C   UNL     1      -4.817  14.428  23.276  0.00  0.00    +0.000 A 
ATOM     16  C   UNL     1      -4.442  13.106  23.457  0.00  0.00    +0.000 A 
ATOM     17 CL   UNL     1      -4.972  12.256  24.858  0.00  0.00    +0.000 Cl
ATOM     18  C   UNL     1      -3.638  12.456  22.511  0.00  0.00    +0.000 A 
ENDBRANCH  11  12
BRANCH   1  19
ATOM     19  S   UNL     1      -0.051  12.625  21.752  0.00  0.00    +0.000 S 
ATOM     20  O   UNL     1       1.319  12.673  21.284  0.00  0.00    +0.000 OA
ATOM     21  O   UNL     1      -0.441  11.814  22.893  0.00  0.00    +0.000 OA
BRANCH  19  26
ATOM     22  C   UNL     1      -1.464  18.308  23.376  0.00  0.00    +0.000 C 
ATOM     23  C   UNL     1      -1.122  16.908  22.962  0.00  0.00    +0.000 A 
ATOM     24  C   UNL     1      -0.670  16.635  21.667  0.00  0.00    +0.000 A 
ATOM     25  C   UNL     1      -0.347  15.327  21.305  0.00  0.00    +0.000 A 
ATOM     26  C   UNL     1      -0.472  14.291  22.241  0.00  0.00    +0.000 A 
ATOM     27  C   UNL     1      -0.953  14.542  23.524  0.00  0.00    +0.000 A 
ATOM     28  C   UNL     1      -1.267  15.853  23.870  0.00  0.00    +0.000 A 
ATOM     29  F   UNL     1      -1.714  16.101  25.109  0.00  0.00    +0.000 F 
ENDBRANCH  19  26
ENDBRANCH   1  19
TORSDOF 3
ENDMDL
MODEL 9
REMARK VINA RESULT:      -7.4      1.272      1.575
REMARK  Name = 
REMARK  4 active torsions:
REMARK  status: ('A' for Active; 'I' for Inactive)
REMARK    1  A    between atoms: C_1  and  C_2
REMARK    2  A    between atoms: C_5  and  S_6
REMARK    3  A    between atoms: S_6  and  C_9
REMARK    4  A    between atoms: C_19  and  C_20
REMARK                            x       y       z     vdW  Elec       q    Type
REMARK                         _______ _______ _______ _____ _____    ______ ____
ROOT
ATOM      1  C   UNL     1      -1.763  11.739  20.018  0.00  0.00    +0.000 A 
ATOM      2  C   UNL     1      -1.948  11.081  18.811  0.00  0.00    +0.000 A 
ATOM      3  N   UNL     1      -3.091  11.093  18.106  0.00  0.00    +0.000 NA
ATOM      4  C   UNL     1      -4.116  11.826  18.553  0.00  0.00    +0.000 A 
ATOM      5  C   UNL     1      -5.297  11.819  17.808  0.00  0.00    +0.000 A 
ATOM      6  F   UNL     1      -5.375  11.081  16.688  0.00  0.00    +0.000 F 
ATOM      7  C   UNL     1      -6.424  12.551  18.170  0.00  0.00    +0.000 A 
ATOM      8  C   UNL     1      -6.360  13.351  19.291  0.00  0.00    +0.000 A 
ATOM      9  C   UNL     1      -5.182  13.393  20.040  0.00  0.00    +0.000 A 
ATOM     10  C   UNL     1      -4.042  12.589  19.748  0.00  0.00    +0.000 A 
ATOM     11  C   UNL     1      -2.833  12.498  20.560  0.00  0.00    +0.000 A 
ENDROOT
BRANCH  11  12
ATOM     12  C   UNL     1      -2.806  13.144  21.929  0.00  0.00    +0.000 A 
ATOM     13  C   UNL     1      -3.427  12.530  23.042  0.00  0.00    +0.000 A 
ATOM     14  C   UNL     1      -3.523  13.154  24.295  0.00  0.00    +0.000 A 
ATOM     15  C   UNL     1      -2.875  14.360  24.520  0.00  0.00    +0.000 A 
ATOM     16  C   UNL     1      -2.181  14.950  23.475  0.00  0.00    +0.000 A 
ATOM     17 CL   UNL     1      -1.278  16.389  23.758  0.00  0.00    +0.000 Cl
ATOM     18  C   UNL     1      -2.207  14.387  22.192  0.00  0.00    +0.000 A 
ENDBRANCH  11  12
BRANCH   1  19
ATOM     19  S   UNL     1      -0.171  11.521  20.779  0.00  0.00    +0.000 S 
ATOM     20  O   UNL     1      -0.402  11.057  22.132  0.00  0.00    +0.000 OA
ATOM     21  O   UNL     1       0.591  12.728  20.505  0.00  0.00    +0.000 OA
BRANCH  19  26
ATOM     22  C   UNL     1       2.968   7.159  17.942  0.00  0.00    +0.000 C 
ATOM     23  C   UNL     1       2.204   8.246  18.637  0.00  0.00    +0.000 A 
ATOM     24  C   UNL     1       1.998   9.483  18.020  0.00  0.00    +0.000 A 
ATOM     25  C   UNL     1       1.275  10.478  18.679  0.00  0.00    +0.000 A 
ATOM     26  C   UNL     1       0.753  10.231  19.957  0.00  0.00    +0.000 A 
ATOM     27  C   UNL     1       0.979   9.016  20.599  0.00  0.00    +0.000 A 
ATOM     28  C   UNL     1       1.698   8.034  19.925  0.00  0.00    +0.000 A 
ATOM     29  F   UNL     1       1.904   6.857  20.532  0.00  0.00    +0.000 F 
ENDBRANCH  19  26
ENDBRANCH   1  19
TORSDOF 3
ENDMDL
