MODEL 1
REMARK VINA RESULT:      -7.1      0.000      0.000
REMARK  Name = 
REMARK  3 active torsions:
REMARK  status: ('A' for Active; 'I' for Inactive)
REMARK    1  A    between atoms: O_1  and  C_2
REMARK    2  A    between atoms: C_7  and  C_8
REMARK    3  A    between atoms: N_9  and  C_10
REMARK                            x       y       z     vdW  Elec       q    Type
REMARK                         _______ _______ _______ _____ _____    ______ ____
ROOT
ATOM      1  C   UNL     1       3.700   3.768  17.908  0.00  0.00    +0.000 C 
ATOM      2  N   UNL     1       4.966   4.054  17.907  0.00  0.00    +0.000 NA
ENDROOT
BRANCH   2   3
ATOM      3  C   UNL     1       5.635   4.356  16.712  0.00  0.00    +0.000 A 
ATOM      4  C   UNL     1       6.969   4.782  16.643  0.00  0.00    +0.000 A 
ATOM      5  C   UNL     1       7.586   5.003  15.410  0.00  0.00    +0.000 A 
ATOM      6  C   UNL     1       6.877   4.780  14.237  0.00  0.00    +0.000 A 
ATOM      7  F   UNL     1       7.477   4.974  13.055  0.00  0.00    +0.000 F 
ATOM      8  C   UNL     1       5.560   4.342  14.275  0.00  0.00    +0.000 A 
ATOM      9  C   UNL     1       4.944   4.133  15.511  0.00  0.00    +0.000 A 
ENDBRANCH   2   3
BRANCH   1  15
ATOM     10  C   UNL     1       3.578   2.699  20.171  0.00  0.00    +0.000 A 
ATOM     11  C   UNL     1       2.889   2.436  21.357  0.00  0.00    +0.000 A 
ATOM     12  C   UNL     1       1.599   2.942  21.539  0.00  0.00    +0.000 A 
ATOM     13  C   UNL     1       0.999   3.706  20.540  0.00  0.00    +0.000 A 
ATOM     14  C   UNL     1       1.687   3.970  19.357  0.00  0.00    +0.000 A 
ATOM     15  C   UNL     1       2.982   3.472  19.168  0.00  0.00    +0.000 A 
BRANCH  10  16
ATOM     16  O   UNL     1       4.837   2.195  19.996  0.00  0.00    +0.000 OA
ATOM     17  H   UNL     1       5.475   2.930  20.008  0.00  0.00    +0.000 HD
ENDBRANCH  10  16
ENDBRANCH   1  15
TORSDOF 3
ENDMDL
MODEL 2
REMARK VINA RESULT:      -7.0      0.214      1.214
REMARK  Name = 
REMARK  3 active torsions:
REMARK  status: ('A' for Active; 'I' for Inactive)
REMARK    1  A    between atoms: O_1  and  C_2
REMARK    2  A    between atoms: C_7  and  C_8
REMARK    3  A    between atoms: N_9  and  C_10
REMARK                            x       y       z     vdW  Elec       q    Type
REMARK                         _______ _______ _______ _____ _____    ______ ____
ROOT
ATOM      1  C   UNL     1       3.664   3.703  17.746  0.00  0.00    +0.000 C 
ATOM      2  N   UNL     1       4.929   3.992  17.724  0.00  0.00    +0.000 NA
ENDROOT
BRANCH   2   3
ATOM      3  C   UNL     1       5.597   4.212  16.510  0.00  0.00    +0.000 A 
ATOM      4  C   UNL     1       5.066   3.894  15.252  0.00  0.00    +0.000 A 
ATOM      5  C   UNL     1       5.765   4.201  14.083  0.00  0.00    +0.000 A 
ATOM      6  C   UNL     1       6.992   4.847  14.166  0.00  0.00    +0.000 A 
ATOM      7  F   UNL     1       7.651   5.158  13.042  0.00  0.00    +0.000 F 
ATOM      8  C   UNL     1       7.534   5.188  15.397  0.00  0.00    +0.000 A 
ATOM      9  C   UNL     1       6.836   4.869  16.564  0.00  0.00    +0.000 A 
ENDBRANCH   2   3
BRANCH   1  15
ATOM     10  C   UNL     1       3.537   2.776  20.070  0.00  0.00    +0.000 A 
ATOM     11  C   UNL     1       2.850   2.595  21.272  0.00  0.00    +0.000 A 
ATOM     12  C   UNL     1       1.567   3.128  21.426  0.00  0.00    +0.000 A 
ATOM     13  C   UNL     1       0.973   3.837  20.385  0.00  0.00    +0.000 A 
ATOM     14  C   UNL     1       1.660   4.019  19.185  0.00  0.00    +0.000 A 
ATOM     15  C   UNL     1       2.947   3.494  19.023  0.00  0.00    +0.000 A 
BRANCH  10  16
ATOM     16  O   UNL     1       4.789   2.247  19.922  0.00  0.00    +0.000 OA
ATOM     17  H   UNL     1       4.958   1.629  20.654  0.00  0.00    +0.000 HD
ENDBRANCH  10  16
ENDBRANCH   1  15
TORSDOF 3
ENDMDL
MODEL 3
REMARK VINA RESULT:      -6.7      1.220      1.710
REMARK  Name = 
REMARK  3 active torsions:
REMARK  status: ('A' for Active; 'I' for Inactive)
REMARK    1  A    between atoms: O_1  and  C_2
REMARK    2  A    between atoms: C_7  and  C_8
REMARK    3  A    between atoms: N_9  and  C_10
REMARK                            x       y       z     vdW  Elec       q    Type
REMARK                         _______ _______ _______ _____ _____    ______ ____
ROOT
ATOM      1  C   UNL     1       3.503   4.245  17.425  0.00  0.00    +0.000 C 
ATOM      2  N   UNL     1       4.676   3.707  17.288  0.00  0.00    +0.000 NA
ENDROOT
BRANCH   2   3
ATOM      3  C   UNL     1       5.498   4.040  16.201  0.00  0.00    +0.000 A 
ATOM      4  C   UNL     1       5.166   3.797  14.861  0.00  0.00    +0.000 A 
ATOM      5  C   UNL     1       6.009   4.215  13.829  0.00  0.00    +0.000 A 
ATOM      6  C   UNL     1       7.180   4.896  14.131  0.00  0.00    +0.000 A 
ATOM      7  F   UNL     1       7.977   5.313  13.138  0.00  0.00    +0.000 F 
ATOM      8  C   UNL     1       7.526   5.165  15.448  0.00  0.00    +0.000 A 
ATOM      9  C   UNL     1       6.685   4.735  16.478  0.00  0.00    +0.000 A 
ENDBRANCH   2   3
BRANCH   1  15
ATOM     10  C   UNL     1       2.216   2.604  18.814  0.00  0.00    +0.000 A 
ATOM     11  C   UNL     1       1.408   2.311  19.915  0.00  0.00    +0.000 A 
ATOM     12  C   UNL     1       1.019   3.335  20.784  0.00  0.00    +0.000 A 
ATOM     13  C   UNL     1       1.433   4.645  20.553  0.00  0.00    +0.000 A 
ATOM     14  C   UNL     1       2.241   4.937  19.454  0.00  0.00    +0.000 A 
ATOM     15  C   UNL     1       2.641   3.918  18.582  0.00  0.00    +0.000 A 
BRANCH  10  16
ATOM     16  O   UNL     1       2.588   1.600  17.964  0.00  0.00    +0.000 OA
ATOM     17  H   UNL     1       1.940   0.876  18.029  0.00  0.00    +0.000 HD
ENDBRANCH  10  16
ENDBRANCH   1  15
TORSDOF 3
ENDMDL
MODEL 4
REMARK VINA RESULT:      -6.7      1.288      1.329
REMARK  Name = 
REMARK  3 active torsions:
REMARK  status: ('A' for Active; 'I' for Inactive)
REMARK    1  A    between atoms: O_1  and  C_2
REMARK    2  A    between atoms: C_7  and  C_8
REMARK    3  A    between atoms: N_9  and  C_10
REMARK                            x       y       z     vdW  Elec       q    Type
REMARK                         _______ _______ _______ _____ _____    ______ ____
ROOT
ATOM      1  C   UNL     1       3.489   4.283  17.449  0.00  0.00    +0.000 C 
ATOM      2  N   UNL     1       4.773   4.090  17.446  0.00  0.00    +0.000 NA
ENDROOT
BRANCH   2   3
ATOM      3  C   UNL     1       5.544   4.390  16.313  0.00  0.00    +0.000 A 
ATOM      4  C   UNL     1       6.818   4.972  16.360  0.00  0.00    +0.000 A 
ATOM      5  C   UNL     1       7.552   5.182  15.190  0.00  0.00    +0.000 A 
ATOM      6  C   UNL     1       7.022   4.792  13.968  0.00  0.00    +0.000 A 
ATOM      7  F   UNL     1       7.735   4.978  12.849  0.00  0.00    +0.000 F 
ATOM      8  C   UNL     1       5.769   4.199  13.893  0.00  0.00    +0.000 A 
ATOM      9  C   UNL     1       5.035   4.000  15.065  0.00  0.00    +0.000 A 
ENDBRANCH   2   3
BRANCH   1  15
ATOM     10  C   UNL     1       2.892   4.677  19.850  0.00  0.00    +0.000 A 
ATOM     11  C   UNL     1       2.109   4.395  20.971  0.00  0.00    +0.000 A 
ATOM     12  C   UNL     1       1.107   3.424  20.893  0.00  0.00    +0.000 A 
ATOM     13  C   UNL     1       0.891   2.735  19.702  0.00  0.00    +0.000 A 
ATOM     14  C   UNL     1       1.672   3.017  18.582  0.00  0.00    +0.000 A 
ATOM     15  C   UNL     1       2.674   3.992  18.649  0.00  0.00    +0.000 A 
BRANCH  10  16
ATOM     16  O   UNL     1       3.875   5.623  19.935  0.00  0.00    +0.000 OA
ATOM     17  H   UNL     1       3.924   5.946  20.851  0.00  0.00    +0.000 HD
ENDBRANCH  10  16
ENDBRANCH   1  15
TORSDOF 3
ENDMDL
MODEL 5
REMARK VINA RESULT:      -6.7      3.312      6.828
REMARK  Name = 
REMARK  3 active torsions:
REMARK  status: ('A' for Active; 'I' for Inactive)
REMARK    1  A    between atoms: O_1  and  C_2
REMARK    2  A    between atoms: C_7  and  C_8
REMARK    3  A    between atoms: N_9  and  C_10
REMARK                            x       y       z     vdW  Elec       q    Type
REMARK                         _______ _______ _______ _____ _____    ______ ____
ROOT
ATOM      1  C   UNL     1       5.102   4.098  15.734  0.00  0.00    +0.000 C 
ATOM      2  N   UNL     1       4.598   5.143  16.318  0.00  0.00    +0.000 NA
ENDROOT
BRANCH   2   3
ATOM      3  C   UNL     1       3.851   5.017  17.499  0.00  0.00    +0.000 A 
ATOM      4  C   UNL     1       4.026   5.826  18.630  0.00  0.00    +0.000 A 
ATOM      5  C   UNL     1       3.200   5.682  19.747  0.00  0.00    +0.000 A 
ATOM      6  C   UNL     1       2.179   4.741  19.729  0.00  0.00    +0.000 A 
ATOM      7  F   UNL     1       1.376   4.618  20.794  0.00  0.00    +0.000 F 
ATOM      8  C   UNL     1       1.972   3.937  18.617  0.00  0.00    +0.000 A 
ATOM      9  C   UNL     1       2.809   4.077  17.506  0.00  0.00    +0.000 A 
ENDBRANCH   2   3
BRANCH   1  15
ATOM     10  C   UNL     1       7.052   5.038  14.472  0.00  0.00    +0.000 A 
ATOM     11  C   UNL     1       7.809   5.141  13.303  0.00  0.00    +0.000 A 
ATOM     12  C   UNL     1       7.424   4.434  12.161  0.00  0.00    +0.000 A 
ATOM     13  C   UNL     1       6.287   3.630  12.184  0.00  0.00    +0.000 A 
ATOM     14  C   UNL     1       5.531   3.526  13.352  0.00  0.00    +0.000 A 
ATOM     15  C   UNL     1       5.912   4.225  14.503  0.00  0.00    +0.000 A 
BRANCH  10  16
ATOM     16  O   UNL     1       7.429   5.737  15.585  0.00  0.00    +0.000 OA
ATOM     17  H   UNL     1       8.291   5.404  15.889  0.00  0.00    +0.000 HD
ENDBRANCH  10  16
ENDBRANCH   1  15
TORSDOF 3
ENDMDL
MODEL 6
REMARK VINA RESULT:      -6.7      1.290      1.322
REMARK  Name = 
REMARK  3 active torsions:
REMARK  status: ('A' for Active; 'I' for Inactive)
REMARK    1  A    between atoms: O_1  and  C_2
REMARK    2  A    between atoms: C_7  and  C_8
REMARK    3  A    between atoms: N_9  and  C_10
REMARK                            x       y       z     vdW  Elec       q    Type
REMARK                         _______ _______ _______ _____ _____    ______ ____
ROOT
ATOM      1  C   UNL     1       3.555   4.415  17.568  0.00  0.00    +0.000 C 
ATOM      2  N   UNL     1       4.609   3.733  17.236  0.00  0.00    +0.000 NA
ENDROOT
BRANCH   2   3
ATOM      3  C   UNL     1       5.459   4.175  16.211  0.00  0.00    +0.000 A 
ATOM      4  C   UNL     1       6.667   4.852  16.430  0.00  0.00    +0.000 A 
ATOM      5  C   UNL     1       7.492   5.206  15.360  0.00  0.00    +0.000 A 
ATOM      6  C   UNL     1       7.123   4.864  14.065  0.00  0.00    +0.000 A 
ATOM      7  F   UNL     1       7.925   5.187  13.043  0.00  0.00    +0.000 F 
ATOM      8  C   UNL     1       5.941   4.179  13.821  0.00  0.00    +0.000 A 
ATOM      9  C   UNL     1       5.113   3.838  14.894  0.00  0.00    +0.000 A 
ENDBRANCH   2   3
BRANCH   1  15
ATOM     10  C   UNL     1       2.128   2.676  18.671  0.00  0.00    +0.000 A 
ATOM     11  C   UNL     1       1.297   2.269  19.716  0.00  0.00    +0.000 A 
ATOM     12  C   UNL     1       1.001   3.155  20.755  0.00  0.00    +0.000 A 
ATOM     13  C   UNL     1       1.530   4.444  20.749  0.00  0.00    +0.000 A 
ATOM     14  C   UNL     1       2.360   4.851  19.705  0.00  0.00    +0.000 A 
ATOM     15  C   UNL     1       2.667   3.968  18.664  0.00  0.00    +0.000 A 
BRANCH  10  16
ATOM     16  O   UNL     1       2.408   1.807  17.653  0.00  0.00    +0.000 OA
ATOM     17  H   UNL     1       2.937   2.270  16.980  0.00  0.00    +0.000 HD
ENDBRANCH  10  16
ENDBRANCH   1  15
TORSDOF 3
ENDMDL
MODEL 7
REMARK VINA RESULT:      -6.6      3.194      6.681
REMARK  Name = 
REMARK  3 active torsions:
REMARK  status: ('A' for Active; 'I' for Inactive)
REMARK    1  A    between atoms: O_1  and  C_2
REMARK    2  A    between atoms: C_7  and  C_8
REMARK    3  A    between atoms: N_9  and  C_10
REMARK                            x       y       z     vdW  Elec       q    Type
REMARK                         _______ _______ _______ _____ _____    ______ ____
ROOT
ATOM      1  C   UNL     1       4.856   3.689  17.917  0.00  0.00    +0.000 C 
ATOM      2  N   UNL     1       3.566   3.803  18.002  0.00  0.00    +0.000 NA
ENDROOT
BRANCH   2   3
ATOM      3  C   UNL     1       2.882   3.399  19.158  0.00  0.00    +0.000 A 
ATOM      4  C   UNL     1       3.498   2.801  20.267  0.00  0.00    +0.000 A 
ATOM      5  C   UNL     1       2.759   2.484  21.409  0.00  0.00    +0.000 A 
ATOM      6  C   UNL     1       1.404   2.782  21.456  0.00  0.00    +0.000 A 
ATOM      7  F   UNL     1       0.702   2.494  22.561  0.00  0.00    +0.000 F 
ATOM      8  C   UNL     1       0.772   3.388  20.380  0.00  0.00    +0.000 A 
ATOM      9  C   UNL     1       1.512   3.694  19.235  0.00  0.00    +0.000 A 
ENDBRANCH   2   3
BRANCH   1  15
ATOM     10  C   UNL     1       6.951   4.446  16.769  0.00  0.00    +0.000 A 
ATOM     11  C   UNL     1       7.627   4.860  15.619  0.00  0.00    +0.000 A 
ATOM     12  C   UNL     1       6.937   4.968  14.408  0.00  0.00    +0.000 A 
ATOM     13  C   UNL     1       5.578   4.667  14.347  0.00  0.00    +0.000 A 
ATOM     14  C   UNL     1       4.903   4.253  15.495  0.00  0.00    +0.000 A 
ATOM     15  C   UNL     1       5.587   4.135  16.710  0.00  0.00    +0.000 A 
BRANCH  10  16
ATOM     16  O   UNL     1       7.629   4.349  17.952  0.00  0.00    +0.000 OA
ATOM     17  H   UNL     1       7.453   5.145  18.482  0.00  0.00    +0.000 HD
ENDBRANCH  10  16
ENDBRANCH   1  15
TORSDOF 3
ENDMDL
MODEL 8
REMARK VINA RESULT:      -6.6      1.380      2.110
REMARK  Name = 
REMARK  3 active torsions:
REMARK  status: ('A' for Active; 'I' for Inactive)
REMARK    1  A    between atoms: O_1  and  C_2
REMARK    2  A    between atoms: C_7  and  C_8
REMARK    3  A    between atoms: N_9  and  C_10
REMARK                            x       y       z     vdW  Elec       q    Type
REMARK                         _______ _______ _______ _____ _____    ______ ____
ROOT
ATOM      1  C   UNL     1       4.057   4.124  18.177  0.00  0.00    +0.000 C 
ATOM      2  N   UNL     1       4.188   3.532  17.028  0.00  0.00    +0.000 NA
ENDROOT
BRANCH   2   3
ATOM      3  C   UNL     1       5.180   3.932  16.121  0.00  0.00    +0.000 A 
ATOM      4  C   UNL     1       5.136   3.675  14.744  0.00  0.00    +0.000 A 
ATOM      5  C   UNL     1       6.133   4.161  13.894  0.00  0.00    +0.000 A 
ATOM      6  C   UNL     1       7.168   4.925  14.415  0.00  0.00    +0.000 A 
ATOM      7  F   UNL     1       8.112   5.406  13.595  0.00  0.00    +0.000 F 
ATOM      8  C   UNL     1       7.228   5.209  15.772  0.00  0.00    +0.000 A 
ATOM      9  C   UNL     1       6.235   4.711  16.620  0.00  0.00    +0.000 A 
ENDBRANCH   2   3
BRANCH   1  15
ATOM     10  C   UNL     1       1.675   3.658  18.796  0.00  0.00    +0.000 A 
ATOM     11  C   UNL     1       0.718   3.241  19.724  0.00  0.00    +0.000 A 
ATOM     12  C   UNL     1       1.115   2.861  21.009  0.00  0.00    +0.000 A 
ATOM     13  C   UNL     1       2.461   2.900  21.367  0.00  0.00    +0.000 A 
ATOM     14  C   UNL     1       3.416   3.316  20.440  0.00  0.00    +0.000 A 
ATOM     15  C   UNL     1       3.029   3.692  19.149  0.00  0.00    +0.000 A 
BRANCH  10  16
ATOM     16  O   UNL     1       1.280   4.035  17.542  0.00  0.00    +0.000 OA
ATOM     17  H   UNL     1       0.997   4.966  17.568  0.00  0.00    +0.000 HD
ENDBRANCH  10  16
ENDBRANCH   1  15
TORSDOF 3
ENDMDL
MODEL 9
REMARK VINA RESULT:      -6.6      3.313      6.859
REMARK  Name = 
REMARK  3 active torsions:
REMARK  status: ('A' for Active; 'I' for Inactive)
REMARK    1  A    between atoms: O_1  and  C_2
REMARK    2  A    between atoms: C_7  and  C_8
REMARK    3  A    between atoms: N_9  and  C_10
REMARK                            x       y       z     vdW  Elec       q    Type
REMARK                         _______ _______ _______ _____ _____    ______ ____
ROOT
ATOM      1  C   UNL     1       5.206   4.196  15.723  0.00  0.00    +0.000 C 
ATOM      2  N   UNL     1       4.904   5.267  16.392  0.00  0.00    +0.000 NA
ENDROOT
BRANCH   2   3
ATOM      3  C   UNL     1       4.205   5.185  17.606  0.00  0.00    +0.000 A 
ATOM      4  C   UNL     1       4.322   4.120  18.510  0.00  0.00    +0.000 A 
ATOM      5  C   UNL     1       3.640   4.139  19.729  0.00  0.00    +0.000 A 
ATOM      6  C   UNL     1       2.853   5.234  20.059  0.00  0.00    +0.000 A 
ATOM      7  F   UNL     1       2.216   5.258  21.237  0.00  0.00    +0.000 F 
ATOM      8  C   UNL     1       2.732   6.310  19.190  0.00  0.00    +0.000 A 
ATOM      9  C   UNL     1       3.407   6.281  17.967  0.00  0.00    +0.000 A 
ENDBRANCH   2   3
BRANCH   1  15
ATOM     10  C   UNL     1       7.118   5.061  14.355  0.00  0.00    +0.000 A 
ATOM     11  C   UNL     1       7.826   5.117  13.152  0.00  0.00    +0.000 A 
ATOM     12  C   UNL     1       7.378   4.388  12.047  0.00  0.00    +0.000 A 
ATOM     13  C   UNL     1       6.227   3.609  12.141  0.00  0.00    +0.000 A 
ATOM     14  C   UNL     1       5.521   3.552  13.341  0.00  0.00    +0.000 A 
ATOM     15  C   UNL     1       5.965   4.273  14.456  0.00  0.00    +0.000 A 
BRANCH  10  16
ATOM     16  O   UNL     1       7.557   5.781  15.431  0.00  0.00    +0.000 OA
ATOM     17  H   UNL     1       8.528   5.739  15.462  0.00  0.00    +0.000 HD
ENDBRANCH  10  16
ENDBRANCH   1  15
TORSDOF 3
ENDMDL
