MODEL 1
REMARK VINA RESULT:      -8.4      0.000      0.000
REMARK  Name = 
REMARK  7 active torsions:
REMARK  status: ('A' for Active; 'I' for Inactive)
REMARK    1  A    between atoms: C_1  and  C_2
REMARK    2  A    between atoms: C_2  and  C_3
REMARK    3  A    between atoms: C_3  and  N_4
REMARK    4  A    between atoms: C_7  and  O_8
REMARK    5  A    between atoms: C_7  and  C_9
REMARK    6  A    between atoms: C_12  and  C_13
REMARK    7  A    between atoms: C_12  and  C_14
REMARK                            x       y       z     vdW  Elec       q    Type
REMARK                         _______ _______ _______ _____ _____    ______ ____
ROOT
ATOM      1  N   UNL     1       6.885   5.756  17.825  0.00  0.00    +0.000 N 
ATOM      2  C   UNL     1       6.036   5.152  18.758  0.00  0.00    +0.000 C 
ATOM      3  O   UNL     1       6.099   5.252  19.973  0.00  0.00    +0.000 OA
ATOM      4  C   UNL     1       5.020   4.260  17.971  0.00  0.00    +0.000 C 
ATOM      5  C   UNL     1       5.617   4.309  16.583  0.00  0.00    +0.000 A 
ATOM      6  C   UNL     1       5.229   3.624  15.439  0.00  0.00    +0.000 A 
ATOM      7  C   UNL     1       5.902   3.893  14.245  0.00  0.00    +0.000 A 
ATOM      8  C   UNL     1       6.944   4.832  14.208  0.00  0.00    +0.000 A 
ATOM      9  C   UNL     1       7.337   5.511  15.364  0.00  0.00    +0.000 A 
ATOM     10  C   UNL     1       6.666   5.234  16.542  0.00  0.00    +0.000 A 
ENDROOT
BRANCH   4  11
ATOM     11  C   UNL     1       3.555   4.744  17.984  0.00  0.00    +0.000 C 
ATOM     12  C   UNL     1       2.499   3.653  17.892  0.00  0.00    +0.000 C 
ATOM     13  O   UNL     1       2.405   2.896  19.091  0.00  0.00    +0.000 OA
ATOM     14  C   UNL     1       2.063   3.616  20.282  0.00  0.00    +0.000 C 
ATOM     15  C   UNL     1       2.300   2.626  21.432  0.00  0.00    +0.000 C 
ATOM     16  C   UNL     1       0.581   4.009  20.267  0.00  0.00    +0.000 C 
ATOM     17  C   UNL     1       2.953   4.844  20.494  0.00  0.00    +0.000 C 
ATOM     18  C   UNL     1       3.183   5.569  19.194  0.00  0.00    +0.000 C 
ATOM     19  O   UNL     1       3.097   6.796  19.132  0.00  0.00    +0.000 OA
ENDBRANCH   4  11
BRANCH   4  20
ATOM     20  O   UNL     1       5.078   2.913  18.441  0.00  0.00    +0.000 OA
ATOM     21  H   UNL     1       4.485   2.869  19.216  0.00  0.00    +0.000 HD
ENDBRANCH   4  20
BRANCH   1  22
ATOM     22  C   UNL     1       7.859   6.778  18.157  0.00  0.00    +0.000 C 
BRANCH  22  24
ATOM     23  C   UNL     1       8.420   9.257  18.173  0.00  0.00    +0.000 C 
ATOM     24  C   UNL     1       7.557   8.158  17.576  0.00  0.00    +0.000 C 
ENDBRANCH  22  24
ENDBRANCH   1  22
TORSDOF 4
ENDMDL
MODEL 2
REMARK VINA RESULT:      -7.8      0.896      1.022
REMARK  Name = 
REMARK  7 active torsions:
REMARK  status: ('A' for Active; 'I' for Inactive)
REMARK    1  A    between atoms: C_1  and  C_2
REMARK    2  A    between atoms: C_2  and  C_3
REMARK    3  A    between atoms: C_3  and  N_4
REMARK    4  A    between atoms: C_7  and  O_8
REMARK    5  A    between atoms: C_7  and  C_9
REMARK    6  A    between atoms: C_12  and  C_13
REMARK    7  A    between atoms: C_12  and  C_14
REMARK                            x       y       z     vdW  Elec       q    Type
REMARK                         _______ _______ _______ _____ _____    ______ ____
ROOT
ATOM      1  N   UNL     1       6.765   4.652  17.658  0.00  0.00    +0.000 N 
ATOM      2  C   UNL     1       5.719   4.063  18.377  0.00  0.00    +0.000 C 
ATOM      3  O   UNL     1       5.705   3.817  19.573  0.00  0.00    +0.000 OA
ATOM      4  C   UNL     1       4.584   3.707  17.362  0.00  0.00    +0.000 C 
ATOM      5  C   UNL     1       5.287   3.967  16.049  0.00  0.00    +0.000 A 
ATOM      6  C   UNL     1       4.838   3.735  14.755  0.00  0.00    +0.000 A 
ATOM      7  C   UNL     1       5.652   4.129  13.691  0.00  0.00    +0.000 A 
ATOM      8  C   UNL     1       6.892   4.741  13.928  0.00  0.00    +0.000 A 
ATOM      9  C   UNL     1       7.344   4.961  15.231  0.00  0.00    +0.000 A 
ATOM     10  C   UNL     1       6.531   4.564  16.278  0.00  0.00    +0.000 A 
ENDROOT
BRANCH   4  11
ATOM     11  C   UNL     1       3.287   4.533  17.493  0.00  0.00    +0.000 C 
ATOM     12  C   UNL     1       2.024   3.736  17.785  0.00  0.00    +0.000 C 
ATOM     13  O   UNL     1       2.004   3.233  19.114  0.00  0.00    +0.000 OA
ATOM     14  C   UNL     1       2.060   4.202  20.169  0.00  0.00    +0.000 C 
ATOM     15  C   UNL     1       2.297   3.388  21.449  0.00  0.00    +0.000 C 
ATOM     16  C   UNL     1       0.721   4.940  20.295  0.00  0.00    +0.000 C 
ATOM     17  C   UNL     1       3.215   5.190  19.990  0.00  0.00    +0.000 C 
ATOM     18  C   UNL     1       3.340   5.612  18.549  0.00  0.00    +0.000 C 
ATOM     19  O   UNL     1       3.508   6.794  18.249  0.00  0.00    +0.000 OA
ENDBRANCH   4  11
BRANCH   4  20
ATOM     20  O   UNL     1       4.270   2.316  17.439  0.00  0.00    +0.000 OA
ATOM     21  H   UNL     1       3.297   2.253  17.388  0.00  0.00    +0.000 HD
ENDBRANCH   4  20
BRANCH   1  22
ATOM     22  C   UNL     1       7.929   5.261  18.272  0.00  0.00    +0.000 C 
BRANCH  22  24
ATOM     23  C   UNL     1       7.753   7.709  17.613  0.00  0.00    +0.000 C 
ATOM     24  C   UNL     1       7.721   6.697  18.747  0.00  0.00    +0.000 C 
ENDBRANCH  22  24
ENDBRANCH   1  22
TORSDOF 4
ENDMDL
MODEL 3
REMARK VINA RESULT:      -7.7      1.976      2.683
REMARK  Name = 
REMARK  7 active torsions:
REMARK  status: ('A' for Active; 'I' for Inactive)
REMARK    1  A    between atoms: C_1  and  C_2
REMARK    2  A    between atoms: C_2  and  C_3
REMARK    3  A    between atoms: C_3  and  N_4
REMARK    4  A    between atoms: C_7  and  O_8
REMARK    5  A    between atoms: C_7  and  C_9
REMARK    6  A    between atoms: C_12  and  C_13
REMARK    7  A    between atoms: C_12  and  C_14
REMARK                            x       y       z     vdW  Elec       q    Type
REMARK                         _______ _______ _______ _____ _____    ______ ____
ROOT
ATOM      1  N   UNL     1       4.504   6.316  17.447  0.00  0.00    +0.000 N 
ATOM      2  C   UNL     1       4.554   5.509  18.588  0.00  0.00    +0.000 C 
ATOM      3  O   UNL     1       4.330   5.856  19.737  0.00  0.00    +0.000 OA
ATOM      4  C   UNL     1       5.018   4.082  18.144  0.00  0.00    +0.000 C 
ATOM      5  C   UNL     1       5.416   4.348  16.710  0.00  0.00    +0.000 A 
ATOM      6  C   UNL     1       6.012   3.492  15.794  0.00  0.00    +0.000 A 
ATOM      7  C   UNL     1       6.220   3.954  14.493  0.00  0.00    +0.000 A 
ATOM      8  C   UNL     1       5.835   5.252  14.125  0.00  0.00    +0.000 A 
ATOM      9  C   UNL     1       5.245   6.113  15.054  0.00  0.00    +0.000 A 
ATOM     10  C   UNL     1       5.047   5.647  16.341  0.00  0.00    +0.000 A 
ENDROOT
BRANCH   4  11
ATOM     11  C   UNL     1       3.953   2.971  18.248  0.00  0.00    +0.000 C 
ATOM     12  C   UNL     1       3.645   2.482  19.656  0.00  0.00    +0.000 C 
ATOM     13  O   UNL     1       2.917   3.443  20.409  0.00  0.00    +0.000 OA
ATOM     14  C   UNL     1       1.642   3.837  19.887  0.00  0.00    +0.000 C 
ATOM     15  C   UNL     1       1.221   5.051  20.730  0.00  0.00    +0.000 C 
ATOM     16  C   UNL     1       0.610   2.720  20.083  0.00  0.00    +0.000 C 
ATOM     17  C   UNL     1       1.720   4.259  18.418  0.00  0.00    +0.000 C 
ATOM     18  C   UNL     1       2.616   3.330  17.642  0.00  0.00    +0.000 C 
ATOM     19  O   UNL     1       2.278   2.903  16.537  0.00  0.00    +0.000 OA
ENDBRANCH   4  11
BRANCH   4  20
ATOM     20  O   UNL     1       6.183   3.693  18.872  0.00  0.00    +0.000 OA
ATOM     21  H   UNL     1       5.878   3.460  19.770  0.00  0.00    +0.000 HD
ENDBRANCH   4  20
BRANCH   1  22
ATOM     22  C   UNL     1       3.967   7.663  17.429  0.00  0.00    +0.000 C 
BRANCH  22  24
ATOM     23  C   UNL     1       1.984   9.198  17.842  0.00  0.00    +0.000 C 
ATOM     24  C   UNL     1       2.496   7.767  17.827  0.00  0.00    +0.000 C 
ENDBRANCH  22  24
ENDBRANCH   1  22
TORSDOF 4
ENDMDL
MODEL 4
REMARK VINA RESULT:      -6.5      1.138      1.370
REMARK  Name = 
REMARK  7 active torsions:
REMARK  status: ('A' for Active; 'I' for Inactive)
REMARK    1  A    between atoms: C_1  and  C_2
REMARK    2  A    between atoms: C_2  and  C_3
REMARK    3  A    between atoms: C_3  and  N_4
REMARK    4  A    between atoms: C_7  and  O_8
REMARK    5  A    between atoms: C_7  and  C_9
REMARK    6  A    between atoms: C_12  and  C_13
REMARK    7  A    between atoms: C_12  and  C_14
REMARK                            x       y       z     vdW  Elec       q    Type
REMARK                         _______ _______ _______ _____ _____    ______ ____
ROOT
ATOM      1  N   UNL     1       6.018   4.725  18.414  0.00  0.00    +0.000 N 
ATOM      2  C   UNL     1       5.146   3.724  18.855  0.00  0.00    +0.000 C 
ATOM      3  O   UNL     1       5.030   3.310  19.998  0.00  0.00    +0.000 OA
ATOM      4  C   UNL     1       4.383   3.171  17.606  0.00  0.00    +0.000 C 
ATOM      5  C   UNL     1       5.148   3.842  16.488  0.00  0.00    +0.000 A 
ATOM      6  C   UNL     1       5.019   3.673  15.116  0.00  0.00    +0.000 A 
ATOM      7  C   UNL     1       5.801   4.467  14.274  0.00  0.00    +0.000 A 
ATOM      8  C   UNL     1       6.694   5.410  14.807  0.00  0.00    +0.000 A 
ATOM      9  C   UNL     1       6.827   5.568  16.188  0.00  0.00    +0.000 A 
ATOM     10  C   UNL     1       6.051   4.774  17.013  0.00  0.00    +0.000 A 
ENDROOT
BRANCH   4  11
ATOM     11  C   UNL     1       2.876   3.496  17.546  0.00  0.00    +0.000 C 
ATOM     12  C   UNL     1       1.941   2.363  17.945  0.00  0.00    +0.000 C 
ATOM     13  O   UNL     1       1.973   2.110  19.343  0.00  0.00    +0.000 OA
ATOM     14  C   UNL     1       1.598   3.194  20.202  0.00  0.00    +0.000 C 
ATOM     15  C   UNL     1       1.982   2.735  21.617  0.00  0.00    +0.000 C 
ATOM     16  C   UNL     1       0.082   3.422  20.152  0.00  0.00    +0.000 C 
ATOM     17  C   UNL     1       2.357   4.483  19.876  0.00  0.00    +0.000 C 
ATOM     18  C   UNL     1       2.460   4.681  18.387  0.00  0.00    +0.000 C 
ATOM     19  O   UNL     1       2.239   5.781  17.879  0.00  0.00    +0.000 OA
ENDBRANCH   4  11
BRANCH   4  20
ATOM     20  O   UNL     1       4.569   1.759  17.498  0.00  0.00    +0.000 OA
ATOM     21  H   UNL     1       4.957   1.603  16.615  0.00  0.00    +0.000 HD
ENDBRANCH   4  20
BRANCH   1  22
ATOM     22  C   UNL     1       6.783   5.582  19.299  0.00  0.00    +0.000 C 
BRANCH  22  24
ATOM     23  C   UNL     1       8.202   7.532  18.496  0.00  0.00    +0.000 C 
ATOM     24  C   UNL     1       8.130   6.034  18.739  0.00  0.00    +0.000 C 
ENDBRANCH  22  24
ENDBRANCH   1  22
TORSDOF 4
ENDMDL
MODEL 5
REMARK VINA RESULT:      -6.4      2.241      5.756
REMARK  Name = 
REMARK  7 active torsions:
REMARK  status: ('A' for Active; 'I' for Inactive)
REMARK    1  A    between atoms: C_1  and  C_2
REMARK    2  A    between atoms: C_2  and  C_3
REMARK    3  A    between atoms: C_3  and  N_4
REMARK    4  A    between atoms: C_7  and  O_8
REMARK    5  A    between atoms: C_7  and  C_9
REMARK    6  A    between atoms: C_12  and  C_13
REMARK    7  A    between atoms: C_12  and  C_14
REMARK                            x       y       z     vdW  Elec       q    Type
REMARK                         _______ _______ _______ _____ _____    ______ ____
ROOT
ATOM      1  N   UNL     1       2.029   5.965  19.934  0.00  0.00    +0.000 N 
ATOM      2  C   UNL     1       2.509   6.221  18.646  0.00  0.00    +0.000 C 
ATOM      3  O   UNL     1       2.221   7.172  17.936  0.00  0.00    +0.000 OA
ATOM      4  C   UNL     1       3.439   5.031  18.238  0.00  0.00    +0.000 C 
ATOM      5  C   UNL     1       3.168   4.061  19.366  0.00  0.00    +0.000 A 
ATOM      6  C   UNL     1       3.620   2.758  19.527  0.00  0.00    +0.000 A 
ATOM      7  C   UNL     1       3.286   2.081  20.702  0.00  0.00    +0.000 A 
ATOM      8  C   UNL     1       2.512   2.706  21.691  0.00  0.00    +0.000 A 
ATOM      9  C   UNL     1       2.051   4.013  21.519  0.00  0.00    +0.000 A 
ATOM     10  C   UNL     1       2.384   4.673  20.350  0.00  0.00    +0.000 A 
ENDROOT
BRANCH   4  11
ATOM     11  C   UNL     1       4.940   5.367  18.118  0.00  0.00    +0.000 C 
ATOM     12  C   UNL     1       5.852   4.198  17.778  0.00  0.00    +0.000 C 
ATOM     13  O   UNL     1       5.697   3.772  16.431  0.00  0.00    +0.000 OA
ATOM     14  C   UNL     1       5.975   4.742  15.413  0.00  0.00    +0.000 C 
ATOM     15  C   UNL     1       5.470   4.110  14.107  0.00  0.00    +0.000 C 
ATOM     16  C   UNL     1       7.485   4.981  15.294  0.00  0.00    +0.000 C 
ATOM     17  C   UNL     1       5.229   6.059  15.646  0.00  0.00    +0.000 C 
ATOM     18  C   UNL     1       5.259   6.440  17.102  0.00  0.00    +0.000 C 
ATOM     19  O   UNL     1       5.508   7.596  17.448  0.00  0.00    +0.000 OA
ENDBRANCH   4  11
BRANCH   4  20
ATOM     20  O   UNL     1       2.985   4.445  17.018  0.00  0.00    +0.000 OA
ATOM     21  H   UNL     1       2.055   4.187  17.170  0.00  0.00    +0.000 HD
ENDBRANCH   4  20
BRANCH   1  22
ATOM     22  C   UNL     1       1.261   6.914  20.718  0.00  0.00    +0.000 C 
BRANCH  22  24
ATOM     23  C   UNL     1       0.691   9.367  20.378  0.00  0.00    +0.000 C 
ATOM     24  C   UNL     1       1.782   8.349  20.668  0.00  0.00    +0.000 C 
ENDBRANCH  22  24
ENDBRANCH   1  22
TORSDOF 4
ENDMDL
MODEL 6
REMARK VINA RESULT:      -6.2      1.520      3.701
REMARK  Name = 
REMARK  7 active torsions:
REMARK  status: ('A' for Active; 'I' for Inactive)
REMARK    1  A    between atoms: C_1  and  C_2
REMARK    2  A    between atoms: C_2  and  C_3
REMARK    3  A    between atoms: C_3  and  N_4
REMARK    4  A    between atoms: C_7  and  O_8
REMARK    5  A    between atoms: C_7  and  C_9
REMARK    6  A    between atoms: C_12  and  C_13
REMARK    7  A    between atoms: C_12  and  C_14
REMARK                            x       y       z     vdW  Elec       q    Type
REMARK                         _______ _______ _______ _____ _____    ______ ____
ROOT
ATOM      1  N   UNL     1       5.410   4.335  16.189  0.00  0.00    +0.000 N 
ATOM      2  C   UNL     1       4.149   4.227  16.783  0.00  0.00    +0.000 C 
ATOM      3  O   UNL     1       3.266   3.438  16.483  0.00  0.00    +0.000 OA
ATOM      4  C   UNL     1       4.034   5.350  17.866  0.00  0.00    +0.000 C 
ATOM      5  C   UNL     1       5.276   6.158  17.568  0.00  0.00    +0.000 A 
ATOM      6  C   UNL     1       5.694   7.359  18.127  0.00  0.00    +0.000 A 
ATOM      7  C   UNL     1       6.928   7.880  17.732  0.00  0.00    +0.000 A 
ATOM      8  C   UNL     1       7.722   7.204  16.793  0.00  0.00    +0.000 A 
ATOM      9  C   UNL     1       7.292   6.001  16.227  0.00  0.00    +0.000 A 
ATOM     10  C   UNL     1       6.067   5.496  16.622  0.00  0.00    +0.000 A 
ENDROOT
BRANCH   4  11
ATOM     11  C   UNL     1       4.002   4.864  19.331  0.00  0.00    +0.000 C 
ATOM     12  C   UNL     1       2.748   5.218  20.115  0.00  0.00    +0.000 C 
ATOM     13  O   UNL     1       1.621   4.461  19.694  0.00  0.00    +0.000 OA
ATOM     14  C   UNL     1       1.722   3.036  19.815  0.00  0.00    +0.000 C 
ATOM     15  C   UNL     1       0.511   2.482  19.050  0.00  0.00    +0.000 C 
ATOM     16  C   UNL     1       1.614   2.611  21.285  0.00  0.00    +0.000 C 
ATOM     17  C   UNL     1       3.002   2.488  19.179  0.00  0.00    +0.000 C 
ATOM     18  C   UNL     1       4.178   3.373  19.496  0.00  0.00    +0.000 C 
ATOM     19  O   UNL     1       5.255   2.890  19.852  0.00  0.00    +0.000 OA
ENDBRANCH   4  11
BRANCH   4  20
ATOM     20  O   UNL     1       2.891   6.167  17.613  0.00  0.00    +0.000 OA
ATOM     21  H   UNL     1       3.154   7.080  17.837  0.00  0.00    +0.000 HD
ENDBRANCH   4  20
BRANCH   1  22
ATOM     22  C   UNL     1       5.949   3.372  15.248  0.00  0.00    +0.000 C 
BRANCH  22  24
ATOM     23  C   UNL     1       5.221   3.535  12.819  0.00  0.00    +0.000 C 
ATOM     24  C   UNL     1       6.251   3.937  13.861  0.00  0.00    +0.000 C 
ENDBRANCH  22  24
ENDBRANCH   1  22
TORSDOF 4
ENDMDL
MODEL 7
REMARK VINA RESULT:      -6.2      1.845      3.215
REMARK  Name = 
REMARK  7 active torsions:
REMARK  status: ('A' for Active; 'I' for Inactive)
REMARK    1  A    between atoms: C_1  and  C_2
REMARK    2  A    between atoms: C_2  and  C_3
REMARK    3  A    between atoms: C_3  and  N_4
REMARK    4  A    between atoms: C_7  and  O_8
REMARK    5  A    between atoms: C_7  and  C_9
REMARK    6  A    between atoms: C_12  and  C_13
REMARK    7  A    between atoms: C_12  and  C_14
REMARK                            x       y       z     vdW  Elec       q    Type
REMARK                         _______ _______ _______ _____ _____    ______ ____
ROOT
ATOM      1  N   UNL     1       5.854   6.288  17.293  0.00  0.00    +0.000 N 
ATOM      2  C   UNL     1       5.817   4.904  17.493  0.00  0.00    +0.000 C 
ATOM      3  O   UNL     1       6.706   4.106  17.239  0.00  0.00    +0.000 OA
ATOM      4  C   UNL     1       4.398   4.539  18.041  0.00  0.00    +0.000 C 
ATOM      5  C   UNL     1       3.677   5.856  17.859  0.00  0.00    +0.000 A 
ATOM      6  C   UNL     1       2.338   6.157  18.067  0.00  0.00    +0.000 A 
ATOM      7  C   UNL     1       1.921   7.479  17.895  0.00  0.00    +0.000 A 
ATOM      8  C   UNL     1       2.837   8.474  17.521  0.00  0.00    +0.000 A 
ATOM      9  C   UNL     1       4.181   8.164  17.303  0.00  0.00    +0.000 A 
ATOM     10  C   UNL     1       4.582   6.851  17.472  0.00  0.00    +0.000 A 
ENDROOT
BRANCH   4  11
ATOM     11  C   UNL     1       4.351   4.057  19.506  0.00  0.00    +0.000 C 
ATOM     12  C   UNL     1       3.284   4.700  20.378  0.00  0.00    +0.000 C 
ATOM     13  O   UNL     1       1.977   4.253  20.043  0.00  0.00    +0.000 OA
ATOM     14  C   UNL     1       1.728   2.847  20.163  0.00  0.00    +0.000 C 
ATOM     15  C   UNL     1       0.365   2.622  19.491  0.00  0.00    +0.000 C 
ATOM     16  C   UNL     1       1.623   2.441  21.638  0.00  0.00    +0.000 C 
ATOM     17  C   UNL     1       2.782   2.006  19.438  0.00  0.00    +0.000 C 
ATOM     18  C   UNL     1       4.161   2.566  19.665  0.00  0.00    +0.000 C 
ATOM     19  O   UNL     1       5.106   1.826  19.943  0.00  0.00    +0.000 OA
ENDBRANCH   4  11
BRANCH   4  20
ATOM     20  O   UNL     1       3.778   3.565  17.200  0.00  0.00    +0.000 OA
ATOM     21  H   UNL     1       4.382   2.797  17.183  0.00  0.00    +0.000 HD
ENDBRANCH   4  20
BRANCH   1  22
ATOM     22  C   UNL     1       7.053   7.025  16.941  0.00  0.00    +0.000 C 
BRANCH  22  24
ATOM     23  C   UNL     1       8.255   8.970  18.049  0.00  0.00    +0.000 C 
ATOM     24  C   UNL     1       7.881   7.500  18.133  0.00  0.00    +0.000 C 
ENDBRANCH  22  24
ENDBRANCH   1  22
TORSDOF 4
ENDMDL
MODEL 8
REMARK VINA RESULT:      -6.2      2.291      6.159
REMARK  Name = 
REMARK  7 active torsions:
REMARK  status: ('A' for Active; 'I' for Inactive)
REMARK    1  A    between atoms: C_1  and  C_2
REMARK    2  A    between atoms: C_2  and  C_3
REMARK    3  A    between atoms: C_3  and  N_4
REMARK    4  A    between atoms: C_7  and  O_8
REMARK    5  A    between atoms: C_7  and  C_9
REMARK    6  A    between atoms: C_12  and  C_13
REMARK    7  A    between atoms: C_12  and  C_14
REMARK                            x       y       z     vdW  Elec       q    Type
REMARK                         _______ _______ _______ _____ _____    ______ ____
ROOT
ATOM      1  N   UNL     1       2.593   4.676  20.652  0.00  0.00    +0.000 N 
ATOM      2  C   UNL     1       3.694   4.445  19.821  0.00  0.00    +0.000 C 
ATOM      3  O   UNL     1       4.447   3.485  19.858  0.00  0.00    +0.000 OA
ATOM      4  C   UNL     1       3.840   5.678  18.869  0.00  0.00    +0.000 C 
ATOM      5  C   UNL     1       2.841   6.631  19.486  0.00  0.00    +0.000 A 
ATOM      6  C   UNL     1       2.574   7.953  19.155  0.00  0.00    +0.000 A 
ATOM      7  C   UNL     1       1.545   8.611  19.832  0.00  0.00    +0.000 A 
ATOM      8  C   UNL     1       0.803   7.948  20.822  0.00  0.00    +0.000 A 
ATOM      9  C   UNL     1       1.084   6.621  21.159  0.00  0.00    +0.000 A 
ATOM     10  C   UNL     1       2.108   5.981  20.484  0.00  0.00    +0.000 A 
ENDROOT
BRANCH   4  11
ATOM     11  C   UNL     1       3.535   5.411  17.380  0.00  0.00    +0.000 C 
ATOM     12  C   UNL     1       4.289   6.282  16.386  0.00  0.00    +0.000 C 
ATOM     13  O   UNL     1       5.666   5.937  16.310  0.00  0.00    +0.000 OA
ATOM     14  C   UNL     1       5.972   4.596  15.906  0.00  0.00    +0.000 C 
ATOM     15  C   UNL     1       7.476   4.430  16.174  0.00  0.00    +0.000 C 
ATOM     16  C   UNL     1       5.716   4.414  14.405  0.00  0.00    +0.000 C 
ATOM     17  C   UNL     1       5.205   3.554  16.724  0.00  0.00    +0.000 C 
ATOM     18  C   UNL     1       3.779   3.987  16.940  0.00  0.00    +0.000 C 
ATOM     19  O   UNL     1       2.848   3.194  16.788  0.00  0.00    +0.000 OA
ENDBRANCH   4  11
BRANCH   4  20
ATOM     20  O   UNL     1       5.144   6.247  18.991  0.00  0.00    +0.000 OA
ATOM     21  H   UNL     1       5.745   5.658  18.497  0.00  0.00    +0.000 HD
ENDBRANCH   4  20
BRANCH   1  22
ATOM     22  C   UNL     1       2.044   3.691  21.564  0.00  0.00    +0.000 C 
BRANCH  22  24
ATOM     23  C   UNL     1       0.683   2.888  19.574  0.00  0.00    +0.000 C 
ATOM     24  C   UNL     1       1.353   2.510  20.884  0.00  0.00    +0.000 C 
ENDBRANCH  22  24
ENDBRANCH   1  22
TORSDOF 4
ENDMDL
MODEL 9
REMARK VINA RESULT:      -6.1      2.082      5.718
REMARK  Name = 
REMARK  7 active torsions:
REMARK  status: ('A' for Active; 'I' for Inactive)
REMARK    1  A    between atoms: C_1  and  C_2
REMARK    2  A    between atoms: C_2  and  C_3
REMARK    3  A    between atoms: C_3  and  N_4
REMARK    4  A    between atoms: C_7  and  O_8
REMARK    5  A    between atoms: C_7  and  C_9
REMARK    6  A    between atoms: C_12  and  C_13
REMARK    7  A    between atoms: C_12  and  C_14
REMARK                            x       y       z     vdW  Elec       q    Type
REMARK                         _______ _______ _______ _____ _____    ______ ____
ROOT
ATOM      1  N   UNL     1       2.410   5.944  19.550  0.00  0.00    +0.000 N 
ATOM      2  C   UNL     1       2.681   5.806  18.185  0.00  0.00    +0.000 C 
ATOM      3  O   UNL     1       2.825   6.708  17.375  0.00  0.00    +0.000 OA
ATOM      4  C   UNL     1       2.698   4.277  17.854  0.00  0.00    +0.000 C 
ATOM      5  C   UNL     1       2.173   3.702  19.151  0.00  0.00    +0.000 A 
ATOM      6  C   UNL     1       1.857   2.385  19.459  0.00  0.00    +0.000 A 
ATOM      7  C   UNL     1       1.452   2.089  20.762  0.00  0.00    +0.000 A 
ATOM      8  C   UNL     1       1.367   3.100  21.731  0.00  0.00    +0.000 A 
ATOM      9  C   UNL     1       1.676   4.424  21.413  0.00  0.00    +0.000 A 
ATOM     10  C   UNL     1       2.073   4.707  20.118  0.00  0.00    +0.000 A 
ENDROOT
BRANCH   4  11
ATOM     11  C   UNL     1       4.075   3.690  17.481  0.00  0.00    +0.000 C 
ATOM     12  C   UNL     1       4.662   4.171  16.163  0.00  0.00    +0.000 C 
ATOM     13  O   UNL     1       5.101   5.521  16.234  0.00  0.00    +0.000 OA
ATOM     14  C   UNL     1       6.118   5.817  17.200  0.00  0.00    +0.000 C 
ATOM     15  C   UNL     1       6.193   7.351  17.245  0.00  0.00    +0.000 C 
ATOM     16  C   UNL     1       7.474   5.270  16.740  0.00  0.00    +0.000 C 
ATOM     17  C   UNL     1       5.762   5.298  18.595  0.00  0.00    +0.000 C 
ATOM     18  C   UNL     1       5.152   3.923  18.515  0.00  0.00    +0.000 C 
ATOM     19  O   UNL     1       5.504   3.030  19.287  0.00  0.00    +0.000 OA
ENDBRANCH   4  11
BRANCH   4  20
ATOM     20  O   UNL     1       1.761   3.984  16.817  0.00  0.00    +0.000 OA
ATOM     21  H   UNL     1       1.064   4.666  16.880  0.00  0.00    +0.000 HD
ENDBRANCH   4  20
BRANCH   1  22
ATOM     22  C   UNL     1       2.468   7.205  20.264  0.00  0.00    +0.000 C 
BRANCH  22  24
ATOM     23  C   UNL     1       1.132   8.722  21.804  0.00  0.00    +0.000 C 
ATOM     24  C   UNL     1       1.106   7.819  20.583  0.00  0.00    +0.000 C 
ENDBRANCH  22  24
ENDBRANCH   1  22
TORSDOF 4
ENDMDL
