MODEL 1
REMARK VINA RESULT:      -8.3      0.000      0.000
REMARK  Name = 
REMARK  5 active torsions:
REMARK  status: ('A' for Active; 'I' for Inactive)
REMARK    1  A    between atoms: C_1  and  C_2
REMARK    2  A    between atoms: C_6  and  N_7
REMARK    3  A    between atoms: N_7  and  C_8
REMARK    4  A    between atoms: C_10  and  C_11
REMARK    5  A    between atoms: C_18  and  C_19
REMARK                            x       y       z     vdW  Elec       q    Type
REMARK                         _______ _______ _______ _____ _____    ______ ____
ROOT
ATOM      1  C   UNL     1       6.034   4.257  18.167  0.00  0.00    +0.000 A 
ATOM      2  S   UNL     1       5.675   3.513  16.654  0.00  0.00    +0.000 S 
ATOM      3  C   UNL     1       6.695   4.551  15.777  0.00  0.00    +0.000 A 
ATOM      4  C   UNL     1       7.407   5.358  16.639  0.00  0.00    +0.000 A 
ATOM      5  C   UNL     1       7.080   5.168  18.030  0.00  0.00    +0.000 A 
ENDROOT
BRANCH   3   6
ATOM      6  C   UNL     1       6.769   4.476  14.310  0.00  0.00    +0.000 A 
ATOM      7  C   UNL     1       5.949   3.613  13.565  0.00  0.00    +0.000 A 
ATOM      8  C   UNL     1       6.041   3.568  12.171  0.00  0.00    +0.000 A 
ATOM      9  C   UNL     1       6.938   4.392  11.504  0.00  0.00    +0.000 A 
ATOM     10  C   UNL     1       7.753   5.260  12.224  0.00  0.00    +0.000 A 
ATOM     11  C   UNL     1       7.671   5.300  13.617  0.00  0.00    +0.000 A 
ENDBRANCH   3   6
BRANCH   5  12
ATOM     12  C   UNL     1       7.712   5.851  19.160  0.00  0.00    +0.000 C 
ATOM     13  N   UNL     1       8.329   7.043  18.887  0.00  0.00    +0.000 N 
ATOM     14  O   UNL     1       7.726   5.400  20.304  0.00  0.00    +0.000 OA
ATOM     15  H   UNL     1       8.371   7.463  17.971  0.00  0.00    +0.000 HD
ATOM     16  H   UNL     1       8.791   7.517  19.650  0.00  0.00    +0.000 HD
ENDBRANCH   5  12
BRANCH   1  17
ATOM     17  N   UNL     1       5.398   3.864  19.313  0.00  0.00    +0.000 N 
ATOM     18  H   UNL     1       5.965   3.762  20.155  0.00  0.00    +0.000 HD
BRANCH  17  24
ATOM     19  C   UNL     1       1.141   2.813  21.358  0.00  0.00    +0.000 C 
ATOM     20  C   UNL     1       2.008   3.815  20.655  0.00  0.00    +0.000 A 
ATOM     21  C   UNL     1       1.580   5.117  20.456  0.00  0.00    +0.000 A 
ATOM     22  C   UNL     1       2.426   5.997  19.794  0.00  0.00    +0.000 A 
ATOM     23  C   UNL     1       3.679   5.557  19.369  0.00  0.00    +0.000 A 
ATOM     24  C   UNL     1       4.068   4.248  19.635  0.00  0.00    +0.000 A 
ATOM     25  N   UNL     1       3.227   3.383  20.252  0.00  0.00    +0.000 NA
ENDBRANCH  17  24
ENDBRANCH   1  17
TORSDOF 4
ENDMDL
MODEL 2
REMARK VINA RESULT:      -8.2      0.760      1.287
REMARK  Name = 
REMARK  5 active torsions:
REMARK  status: ('A' for Active; 'I' for Inactive)
REMARK    1  A    between atoms: C_1  and  C_2
REMARK    2  A    between atoms: C_6  and  N_7
REMARK    3  A    between atoms: N_7  and  C_8
REMARK    4  A    between atoms: C_10  and  C_11
REMARK    5  A    between atoms: C_18  and  C_19
REMARK                            x       y       z     vdW  Elec       q    Type
REMARK                         _______ _______ _______ _____ _____    ______ ____
ROOT
ATOM      1  C   UNL     1       5.876   4.373  18.222  0.00  0.00    +0.000 A 
ATOM      2  S   UNL     1       5.476   3.641  16.714  0.00  0.00    +0.000 S 
ATOM      3  C   UNL     1       6.608   4.562  15.843  0.00  0.00    +0.000 A 
ATOM      4  C   UNL     1       7.378   5.311  16.707  0.00  0.00    +0.000 A 
ATOM      5  C   UNL     1       7.007   5.177  18.094  0.00  0.00    +0.000 A 
ENDROOT
BRANCH   3   6
ATOM      6  C   UNL     1       6.704   4.456  14.379  0.00  0.00    +0.000 A 
ATOM      7  C   UNL     1       7.617   5.222  13.635  0.00  0.00    +0.000 A 
ATOM      8  C   UNL     1       7.687   5.096  12.244  0.00  0.00    +0.000 A 
ATOM      9  C   UNL     1       6.861   4.195  11.583  0.00  0.00    +0.000 A 
ATOM     10  C   UNL     1       5.957   3.422  12.303  0.00  0.00    +0.000 A 
ATOM     11  C   UNL     1       5.877   3.553  13.691  0.00  0.00    +0.000 A 
ENDBRANCH   3   6
BRANCH   5  12
ATOM     12  C   UNL     1       7.680   5.814  19.227  0.00  0.00    +0.000 C 
ATOM     13  N   UNL     1       8.342   6.986  18.965  0.00  0.00    +0.000 N 
ATOM     14  O   UNL     1       7.690   5.345  20.363  0.00  0.00    +0.000 OA
ATOM     15  H   UNL     1       8.389   7.419  18.055  0.00  0.00    +0.000 HD
ATOM     16  H   UNL     1       8.831   7.427  19.729  0.00  0.00    +0.000 HD
ENDBRANCH   5  12
BRANCH   1  17
ATOM     17  N   UNL     1       5.182   4.063  19.360  0.00  0.00    +0.000 N 
ATOM     18  H   UNL     1       5.644   4.232  20.254  0.00  0.00    +0.000 HD
BRANCH  17  24
ATOM     19  C   UNL     1       0.751   2.177  18.897  0.00  0.00    +0.000 C 
ATOM     20  C   UNL     1       1.611   3.328  19.324  0.00  0.00    +0.000 A 
ATOM     21  C   UNL     1       1.063   4.438  19.947  0.00  0.00    +0.000 A 
ATOM     22  C   UNL     1       1.910   5.476  20.314  0.00  0.00    +0.000 A 
ATOM     23  C   UNL     1       3.278   5.365  20.068  0.00  0.00    +0.000 A 
ATOM     24  C   UNL     1       3.774   4.207  19.477  0.00  0.00    +0.000 A 
ATOM     25  N   UNL     1       2.940   3.212  19.089  0.00  0.00    +0.000 NA
ENDBRANCH  17  24
ENDBRANCH   1  17
TORSDOF 4
ENDMDL
MODEL 3
REMARK VINA RESULT:      -8.1      0.980      1.477
REMARK  Name = 
REMARK  5 active torsions:
REMARK  status: ('A' for Active; 'I' for Inactive)
REMARK    1  A    between atoms: C_1  and  C_2
REMARK    2  A    between atoms: C_6  and  N_7
REMARK    3  A    between atoms: N_7  and  C_8
REMARK    4  A    between atoms: C_10  and  C_11
REMARK    5  A    between atoms: C_18  and  C_19
REMARK                            x       y       z     vdW  Elec       q    Type
REMARK                         _______ _______ _______ _____ _____    ______ ____
ROOT
ATOM      1  C   UNL     1       5.447   5.215  18.062  0.00  0.00    +0.000 A 
ATOM      2  S   UNL     1       4.926   4.566  16.553  0.00  0.00    +0.000 S 
ATOM      3  C   UNL     1       6.416   4.854  15.790  0.00  0.00    +0.000 A 
ATOM      4  C   UNL     1       7.342   5.305  16.709  0.00  0.00    +0.000 A 
ATOM      5  C   UNL     1       6.816   5.471  18.041  0.00  0.00    +0.000 A 
ENDROOT
BRANCH   3   6
ATOM      6  C   UNL     1       6.600   4.575  14.358  0.00  0.00    +0.000 A 
ATOM      7  C   UNL     1       7.589   5.217  13.595  0.00  0.00    +0.000 A 
ATOM      8  C   UNL     1       7.742   4.927  12.235  0.00  0.00    +0.000 A 
ATOM      9  C   UNL     1       6.922   3.985  11.627  0.00  0.00    +0.000 A 
ATOM     10  C   UNL     1       5.943   3.333  12.368  0.00  0.00    +0.000 A 
ATOM     11  C   UNL     1       5.781   3.628  13.724  0.00  0.00    +0.000 A 
ENDBRANCH   3   6
BRANCH   5  12
ATOM     12  C   UNL     1       7.581   5.886  19.218  0.00  0.00    +0.000 C 
ATOM     13  N   UNL     1       8.393   6.980  19.066  0.00  0.00    +0.000 N 
ATOM     14  O   UNL     1       7.539   5.299  20.298  0.00  0.00    +0.000 OA
ATOM     15  H   UNL     1       8.488   7.499  18.206  0.00  0.00    +0.000 HD
ATOM     16  H   UNL     1       8.945   7.267  19.860  0.00  0.00    +0.000 HD
ENDBRANCH   5  12
BRANCH   1  17
ATOM     17  N   UNL     1       4.580   5.329  19.116  0.00  0.00    +0.000 N 
ATOM     18  H   UNL     1       4.458   6.254  19.527  0.00  0.00    +0.000 HD
BRANCH  17  24
ATOM     19  C   UNL     1       1.690   2.527  21.800  0.00  0.00    +0.000 C 
ATOM     20  C   UNL     1       1.933   3.241  20.504  0.00  0.00    +0.000 A 
ATOM     21  C   UNL     1       0.969   3.266  19.509  0.00  0.00    +0.000 A 
ATOM     22  C   UNL     1       1.255   3.938  18.328  0.00  0.00    +0.000 A 
ATOM     23  C   UNL     1       2.484   4.581  18.184  0.00  0.00    +0.000 A 
ATOM     24  C   UNL     1       3.395   4.555  19.235  0.00  0.00    +0.000 A 
ATOM     25  N   UNL     1       3.126   3.869  20.373  0.00  0.00    +0.000 NA
ENDBRANCH  17  24
ENDBRANCH   1  17
TORSDOF 4
ENDMDL
MODEL 4
REMARK VINA RESULT:      -7.9      0.964      1.757
REMARK  Name = 
REMARK  5 active torsions:
REMARK  status: ('A' for Active; 'I' for Inactive)
REMARK    1  A    between atoms: C_1  and  C_2
REMARK    2  A    between atoms: C_6  and  N_7
REMARK    3  A    between atoms: N_7  and  C_8
REMARK    4  A    between atoms: C_10  and  C_11
REMARK    5  A    between atoms: C_18  and  C_19
REMARK                            x       y       z     vdW  Elec       q    Type
REMARK                         _______ _______ _______ _____ _____    ______ ____
ROOT
ATOM      1  C   UNL     1       5.710   4.482  18.170  0.00  0.00    +0.000 A 
ATOM      2  S   UNL     1       5.301   3.762  16.659  0.00  0.00    +0.000 S 
ATOM      3  C   UNL     1       6.538   4.565  15.816  0.00  0.00    +0.000 A 
ATOM      4  C   UNL     1       7.341   5.260  16.698  0.00  0.00    +0.000 A 
ATOM      5  C   UNL     1       6.911   5.183  18.072  0.00  0.00    +0.000 A 
ENDROOT
BRANCH   3   6
ATOM      6  C   UNL     1       6.676   4.425  14.359  0.00  0.00    +0.000 A 
ATOM      7  C   UNL     1       5.887   3.529  13.619  0.00  0.00    +0.000 A 
ATOM      8  C   UNL     1       6.038   3.421  12.233  0.00  0.00    +0.000 A 
ATOM      9  C   UNL     1       6.964   4.217  11.568  0.00  0.00    +0.000 A 
ATOM     10  C   UNL     1       7.747   5.116  12.283  0.00  0.00    +0.000 A 
ATOM     11  C   UNL     1       7.606   5.218  13.669  0.00  0.00    +0.000 A 
ENDBRANCH   3   6
BRANCH   5  12
ATOM     12  C   UNL     1       7.597   5.779  19.219  0.00  0.00    +0.000 C 
ATOM     13  N   UNL     1       8.320   6.917  18.975  0.00  0.00    +0.000 N 
ATOM     14  O   UNL     1       7.566   5.302  20.352  0.00  0.00    +0.000 OA
ATOM     15  H   UNL     1       8.402   7.353  18.069  0.00  0.00    +0.000 HD
ATOM     16  H   UNL     1       8.819   7.329  19.750  0.00  0.00    +0.000 HD
ENDBRANCH   5  12
BRANCH   1  17
ATOM     17  N   UNL     1       4.953   4.254  19.287  0.00  0.00    +0.000 N 
ATOM     18  H   UNL     1       5.433   3.912  20.119  0.00  0.00    +0.000 HD
BRANCH  17  24
ATOM     19  C   UNL     1       2.239   8.193  18.562  0.00  0.00    +0.000 C 
ATOM     20  C   UNL     1       2.443   6.899  19.291  0.00  0.00    +0.000 A 
ATOM     21  C   UNL     1       1.488   6.415  20.170  0.00  0.00    +0.000 A 
ATOM     22  C   UNL     1       1.737   5.213  20.821  0.00  0.00    +0.000 A 
ATOM     23  C   UNL     1       2.920   4.523  20.560  0.00  0.00    +0.000 A 
ATOM     24  C   UNL     1       3.822   5.040  19.635  0.00  0.00    +0.000 A 
ATOM     25  N   UNL     1       3.591   6.230  19.027  0.00  0.00    +0.000 NA
ENDBRANCH  17  24
ENDBRANCH   1  17
TORSDOF 4
ENDMDL
MODEL 5
REMARK VINA RESULT:      -7.9      1.030      2.090
REMARK  Name = 
REMARK  5 active torsions:
REMARK  status: ('A' for Active; 'I' for Inactive)
REMARK    1  A    between atoms: C_1  and  C_2
REMARK    2  A    between atoms: C_6  and  N_7
REMARK    3  A    between atoms: N_7  and  C_8
REMARK    4  A    between atoms: C_10  and  C_11
REMARK    5  A    between atoms: C_18  and  C_19
REMARK                            x       y       z     vdW  Elec       q    Type
REMARK                         _______ _______ _______ _____ _____    ______ ____
ROOT
ATOM      1  C   UNL     1       5.662   4.559  18.139  0.00  0.00    +0.000 A 
ATOM      2  S   UNL     1       5.235   3.865  16.621  0.00  0.00    +0.000 S 
ATOM      3  C   UNL     1       6.514   4.617  15.793  0.00  0.00    +0.000 A 
ATOM      4  C   UNL     1       7.339   5.271  16.685  0.00  0.00    +0.000 A 
ATOM      5  C   UNL     1       6.894   5.206  18.055  0.00  0.00    +0.000 A 
ENDROOT
BRANCH   3   6
ATOM      6  C   UNL     1       6.658   4.479  14.336  0.00  0.00    +0.000 A 
ATOM      7  C   UNL     1       7.574   5.250  13.602  0.00  0.00    +0.000 A 
ATOM      8  C   UNL     1       7.691   5.093  12.217  0.00  0.00    +0.000 A 
ATOM      9  C   UNL     1       6.909   4.156  11.553  0.00  0.00    +0.000 A 
ATOM     10  C   UNL     1       6.003   3.377  12.264  0.00  0.00    +0.000 A 
ATOM     11  C   UNL     1       5.876   3.539  13.646  0.00  0.00    +0.000 A 
ENDBRANCH   3   6
BRANCH   5  12
ATOM     12  C   UNL     1       7.595   5.765  19.211  0.00  0.00    +0.000 C 
ATOM     13  N   UNL     1       8.355   6.883  18.984  0.00  0.00    +0.000 N 
ATOM     14  O   UNL     1       7.546   5.276  20.338  0.00  0.00    +0.000 OA
ATOM     15  H   UNL     1       8.454   7.327  18.083  0.00  0.00    +0.000 HD
ATOM     16  H   UNL     1       8.865   7.269  19.765  0.00  0.00    +0.000 HD
ENDBRANCH   5  12
BRANCH   1  17
ATOM     17  N   UNL     1       4.885   4.358  19.248  0.00  0.00    +0.000 N 
ATOM     18  H   UNL     1       5.346   4.010  20.088  0.00  0.00    +0.000 HD
BRANCH  17  24
ATOM     19  C   UNL     1       2.232   8.314  18.399  0.00  0.00    +0.000 C 
ATOM     20  C   UNL     1       2.422   7.046  19.176  0.00  0.00    +0.000 A 
ATOM     21  C   UNL     1       1.468   6.612  20.083  0.00  0.00    +0.000 A 
ATOM     22  C   UNL     1       1.704   5.432  20.777  0.00  0.00    +0.000 A 
ATOM     23  C   UNL     1       2.872   4.712  20.530  0.00  0.00    +0.000 A 
ATOM     24  C   UNL     1       3.773   5.177  19.577  0.00  0.00    +0.000 A 
ATOM     25  N   UNL     1       3.556   6.347  18.926  0.00  0.00    +0.000 NA
ENDBRANCH  17  24
ENDBRANCH   1  17
TORSDOF 4
ENDMDL
MODEL 6
REMARK VINA RESULT:      -7.9      1.040      1.195
REMARK  Name = 
REMARK  5 active torsions:
REMARK  status: ('A' for Active; 'I' for Inactive)
REMARK    1  A    between atoms: C_1  and  C_2
REMARK    2  A    between atoms: C_6  and  N_7
REMARK    3  A    between atoms: N_7  and  C_8
REMARK    4  A    between atoms: C_10  and  C_11
REMARK    5  A    between atoms: C_18  and  C_19
REMARK                            x       y       z     vdW  Elec       q    Type
REMARK                         _______ _______ _______ _____ _____    ______ ____
ROOT
ATOM      1  C   UNL     1       5.436   5.501  18.149  0.00  0.00    +0.000 A 
ATOM      2  S   UNL     1       4.828   4.890  16.656  0.00  0.00    +0.000 S 
ATOM      3  C   UNL     1       6.348   4.924  15.898  0.00  0.00    +0.000 A 
ATOM      4  C   UNL     1       7.328   5.258  16.810  0.00  0.00    +0.000 A 
ATOM      5  C   UNL     1       6.829   5.545  18.132  0.00  0.00    +0.000 A 
ENDROOT
BRANCH   3   6
ATOM      6  C   UNL     1       6.493   4.575  14.477  0.00  0.00    +0.000 A 
ATOM      7  C   UNL     1       5.622   3.677  13.838  0.00  0.00    +0.000 A 
ATOM      8  C   UNL     1       5.782   3.367  12.484  0.00  0.00    +0.000 A 
ATOM      9  C   UNL     1       6.802   3.961  11.749  0.00  0.00    +0.000 A 
ATOM     10  C   UNL     1       7.668   4.859  12.362  0.00  0.00    +0.000 A 
ATOM     11  C   UNL     1       7.517   5.162  13.717  0.00  0.00    +0.000 A 
ENDBRANCH   3   6
BRANCH   5  12
ATOM     12  C   UNL     1       7.643   5.876  19.302  0.00  0.00    +0.000 C 
ATOM     13  N   UNL     1       8.478   6.956  19.180  0.00  0.00    +0.000 N 
ATOM     14  O   UNL     1       7.621   5.233  20.350  0.00  0.00    +0.000 OA
ATOM     15  H   UNL     1       8.560   7.517  18.346  0.00  0.00    +0.000 HD
ATOM     16  H   UNL     1       9.064   7.185  19.969  0.00  0.00    +0.000 HD
ENDBRANCH   5  12
BRANCH   1  17
ATOM     17  N   UNL     1       4.593   5.778  19.191  0.00  0.00    +0.000 N 
ATOM     18  H   UNL     1       4.504   6.753  19.477  0.00  0.00    +0.000 HD
BRANCH  17  24
ATOM     19  C   UNL     1       2.083   1.649  18.936  0.00  0.00    +0.000 C 
ATOM     20  C   UNL     1       2.148   3.080  19.382  0.00  0.00    +0.000 A 
ATOM     21  C   UNL     1       1.127   3.643  20.130  0.00  0.00    +0.000 A 
ATOM     22  C   UNL     1       1.241   4.975  20.508  0.00  0.00    +0.000 A 
ATOM     23  C   UNL     1       2.378   5.696  20.146  0.00  0.00    +0.000 A 
ATOM     24  C   UNL     1       3.389   5.062  19.430  0.00  0.00    +0.000 A 
ATOM     25  N   UNL     1       3.259   3.773  19.033  0.00  0.00    +0.000 NA
ENDBRANCH  17  24
ENDBRANCH   1  17
TORSDOF 4
ENDMDL
MODEL 7
REMARK VINA RESULT:      -7.8      0.768      1.274
REMARK  Name = 
REMARK  5 active torsions:
REMARK  status: ('A' for Active; 'I' for Inactive)
REMARK    1  A    between atoms: C_1  and  C_2
REMARK    2  A    between atoms: C_6  and  N_7
REMARK    3  A    between atoms: N_7  and  C_8
REMARK    4  A    between atoms: C_10  and  C_11
REMARK    5  A    between atoms: C_18  and  C_19
REMARK                            x       y       z     vdW  Elec       q    Type
REMARK                         _______ _______ _______ _____ _____    ______ ____
ROOT
ATOM      1  C   UNL     1       6.070   4.547  18.127  0.00  0.00    +0.000 A 
ATOM      2  S   UNL     1       5.577   3.683  16.719  0.00  0.00    +0.000 S 
ATOM      3  C   UNL     1       6.570   4.590  15.681  0.00  0.00    +0.000 A 
ATOM      4  C   UNL     1       7.372   5.442  16.413  0.00  0.00    +0.000 A 
ATOM      5  C   UNL     1       7.137   5.395  17.835  0.00  0.00    +0.000 A 
ENDROOT
BRANCH   3   6
ATOM      6  C   UNL     1       6.538   4.378  14.226  0.00  0.00    +0.000 A 
ATOM      7  C   UNL     1       7.490   4.954  13.369  0.00  0.00    +0.000 A 
ATOM      8  C   UNL     1       7.436   4.730  11.989  0.00  0.00    +0.000 A 
ATOM      9  C   UNL     1       6.443   3.919  11.453  0.00  0.00    +0.000 A 
ATOM     10  C   UNL     1       5.497   3.333  12.287  0.00  0.00    +0.000 A 
ATOM     11  C   UNL     1       5.543   3.564  13.664  0.00  0.00    +0.000 A 
ENDBRANCH   3   6
BRANCH   5  12
ATOM     12  C   UNL     1       7.872   6.150  18.850  0.00  0.00    +0.000 C 
ATOM     13  N   UNL     1       8.143   5.494  20.024  0.00  0.00    +0.000 N 
ATOM     14  O   UNL     1       8.229   7.317  18.704  0.00  0.00    +0.000 OA
ATOM     15  H   UNL     1       7.866   4.544  20.218  0.00  0.00    +0.000 HD
ATOM     16  H   UNL     1       8.629   6.006  20.744  0.00  0.00    +0.000 HD
ENDBRANCH   5  12
BRANCH   1  17
ATOM     17  N   UNL     1       5.502   4.289  19.345  0.00  0.00    +0.000 N 
ATOM     18  H   UNL     1       6.085   4.416  20.173  0.00  0.00    +0.000 HD
BRANCH  17  24
ATOM     19  C   UNL     1       1.305   2.831  21.260  0.00  0.00    +0.000 C 
ATOM     20  C   UNL     1       2.097   3.917  20.596  0.00  0.00    +0.000 A 
ATOM     21  C   UNL     1       1.560   5.180  20.403  0.00  0.00    +0.000 A 
ATOM     22  C   UNL     1       2.341   6.142  19.776  0.00  0.00    +0.000 A 
ATOM     23  C   UNL     1       3.638   5.821  19.379  0.00  0.00    +0.000 A 
ATOM     24  C   UNL     1       4.136   4.548  19.637  0.00  0.00    +0.000 A 
ATOM     25  N   UNL     1       3.360   3.601  20.219  0.00  0.00    +0.000 NA
ENDBRANCH  17  24
ENDBRANCH   1  17
TORSDOF 4
ENDMDL
MODEL 8
REMARK VINA RESULT:      -7.8      2.916      7.617
REMARK  Name = 
REMARK  5 active torsions:
REMARK  status: ('A' for Active; 'I' for Inactive)
REMARK    1  A    between atoms: C_1  and  C_2
REMARK    2  A    between atoms: C_6  and  N_7
REMARK    3  A    between atoms: N_7  and  C_8
REMARK    4  A    between atoms: C_10  and  C_11
REMARK    5  A    between atoms: C_18  and  C_19
REMARK                            x       y       z     vdW  Elec       q    Type
REMARK                         _______ _______ _______ _____ _____    ______ ____
ROOT
ATOM      1  C   UNL     1       2.856   4.918  18.813  0.00  0.00    +0.000 A 
ATOM      2  S   UNL     1       2.712   6.608  18.508  0.00  0.00    +0.000 S 
ATOM      3  C   UNL     1       1.926   6.919  19.982  0.00  0.00    +0.000 A 
ATOM      4  C   UNL     1       1.902   5.778  20.757  0.00  0.00    +0.000 A 
ATOM      5  C   UNL     1       2.482   4.621  20.122  0.00  0.00    +0.000 A 
ENDROOT
BRANCH   3   6
ATOM      6  C   UNL     1       1.429   8.264  20.306  0.00  0.00    +0.000 A 
ATOM      7  C   UNL     1       1.270   9.256  19.323  0.00  0.00    +0.000 A 
ATOM      8  C   UNL     1       0.791  10.525  19.662  0.00  0.00    +0.000 A 
ATOM      9  C   UNL     1       0.451  10.815  20.978  0.00  0.00    +0.000 A 
ATOM     10  C   UNL     1       0.594   9.843  21.962  0.00  0.00    +0.000 A 
ATOM     11  C   UNL     1       1.082   8.578  21.629  0.00  0.00    +0.000 A 
ENDBRANCH   3   6
BRANCH   5  12
ATOM     12  C   UNL     1       2.635   3.298  20.727  0.00  0.00    +0.000 C 
ATOM     13  N   UNL     1       2.180   3.156  22.013  0.00  0.00    +0.000 N 
ATOM     14  O   UNL     1       3.156   2.343  20.153  0.00  0.00    +0.000 OA
ATOM     15  H   UNL     1       1.758   3.899  22.549  0.00  0.00    +0.000 HD
ATOM     16  H   UNL     1       2.299   2.257  22.455  0.00  0.00    +0.000 HD
ENDBRANCH   5  12
BRANCH   1  17
ATOM     17  N   UNL     1       3.378   4.075  17.870  0.00  0.00    +0.000 N 
ATOM     18  H   UNL     1       2.748   3.737  17.141  0.00  0.00    +0.000 HD
BRANCH  17  24
ATOM     19  C   UNL     1       6.459   4.223  14.142  0.00  0.00    +0.000 C 
ATOM     20  C   UNL     1       6.240   4.306  15.623  0.00  0.00    +0.000 A 
ATOM     21  C   UNL     1       7.282   4.614  16.484  0.00  0.00    +0.000 A 
ATOM     22  C   UNL     1       7.019   4.671  17.846  0.00  0.00    +0.000 A 
ATOM     23  C   UNL     1       5.723   4.438  18.306  0.00  0.00    +0.000 A 
ATOM     24  C   UNL     1       4.710   4.174  17.389  0.00  0.00    +0.000 A 
ATOM     25  N   UNL     1       4.978   4.086  16.063  0.00  0.00    +0.000 NA
ENDBRANCH  17  24
ENDBRANCH   1  17
TORSDOF 4
ENDMDL
MODEL 9
REMARK VINA RESULT:      -7.8      2.789      7.509
REMARK  Name = 
REMARK  5 active torsions:
REMARK  status: ('A' for Active; 'I' for Inactive)
REMARK    1  A    between atoms: C_1  and  C_2
REMARK    2  A    between atoms: C_6  and  N_7
REMARK    3  A    between atoms: N_7  and  C_8
REMARK    4  A    between atoms: C_10  and  C_11
REMARK    5  A    between atoms: C_18  and  C_19
REMARK                            x       y       z     vdW  Elec       q    Type
REMARK                         _______ _______ _______ _____ _____    ______ ____
ROOT
ATOM      1  C   UNL     1       3.003   4.687  19.033  0.00  0.00    +0.000 A 
ATOM      2  S   UNL     1       2.878   6.362  18.648  0.00  0.00    +0.000 S 
ATOM      3  C   UNL     1       2.015   6.735  20.062  0.00  0.00    +0.000 A 
ATOM      4  C   UNL     1       1.947   5.629  20.884  0.00  0.00    +0.000 A 
ATOM      5  C   UNL     1       2.559   4.446  20.332  0.00  0.00    +0.000 A 
ENDROOT
BRANCH   3   6
ATOM      6  C   UNL     1       1.503   8.093  20.300  0.00  0.00    +0.000 A 
ATOM      7  C   UNL     1       1.131   8.535  21.581  0.00  0.00    +0.000 A 
ATOM      8  C   UNL     1       0.652   9.834  21.776  0.00  0.00    +0.000 A 
ATOM      9  C   UNL     1       0.552  10.710  20.702  0.00  0.00    +0.000 A 
ATOM     10  C   UNL     1       0.924  10.293  19.429  0.00  0.00    +0.000 A 
ATOM     11  C   UNL     1       1.393   8.993  19.229  0.00  0.00    +0.000 A 
ENDBRANCH   3   6
BRANCH   5  12
ATOM     12  C   UNL     1       2.677   3.150  21.001  0.00  0.00    +0.000 C 
ATOM     13  N   UNL     1       1.752   2.878  21.975  0.00  0.00    +0.000 N 
ATOM     14  O   UNL     1       3.557   2.331  20.745  0.00  0.00    +0.000 OA
ATOM     15  H   UNL     1       1.014   3.510  22.248  0.00  0.00    +0.000 HD
ATOM     16  H   UNL     1       1.832   1.999  22.464  0.00  0.00    +0.000 HD
ENDBRANCH   5  12
BRANCH   1  17
ATOM     17  N   UNL     1       3.573   3.804  18.156  0.00  0.00    +0.000 N 
ATOM     18  H   UNL     1       2.950   3.294  17.530  0.00  0.00    +0.000 HD
BRANCH  17  24
ATOM     19  C   UNL     1       6.303   4.053  14.170  0.00  0.00    +0.000 C 
ATOM     20  C   UNL     1       6.199   4.201  15.658  0.00  0.00    +0.000 A 
ATOM     21  C   UNL     1       7.267   4.668  16.407  0.00  0.00    +0.000 A 
ATOM     22  C   UNL     1       7.112   4.778  17.783  0.00  0.00    +0.000 A 
ATOM     23  C   UNL     1       5.892   4.438  18.366  0.00  0.00    +0.000 A 
ATOM     24  C   UNL     1       4.843   4.014  17.555  0.00  0.00    +0.000 A 
ATOM     25  N   UNL     1       5.009   3.876  16.217  0.00  0.00    +0.000 NA
ENDBRANCH  17  24
ENDBRANCH   1  17
TORSDOF 4
ENDMDL
