MODEL 1
REMARK VINA RESULT:      -7.2      0.000      0.000
REMARK  Name = 
REMARK  4 active torsions:
REMARK  status: ('A' for Active; 'I' for Inactive)
REMARK    1  A    between atoms: C_2  and  C_4
REMARK    2  A    between atoms: C_8  and  C_9
REMARK    3  A    between atoms: C_12  and  C_13
REMARK    4  A    between atoms: C_13  and  N_14
REMARK                            x       y       z     vdW  Elec       q    Type
REMARK                         _______ _______ _______ _____ _____    ______ ____
ROOT
ATOM      1  C   UNL     1       3.334   4.796  18.702  0.00  0.00    +0.000 C 
ATOM      2  C   UNL     1       2.572   3.963  19.716  0.00  0.00    +0.000 C 
ATOM      3  S   UNL     1       2.171   5.162  21.011  0.00  0.00    +0.000 S 
ATOM      4  C   UNL     1       2.132   6.500  19.895  0.00  0.00    +0.000 A 
ATOM      5  C   UNL     1       1.644   7.737  20.168  0.00  0.00    +0.000 A 
ATOM      6  C   UNL     1       1.816   8.776  19.122  0.00  0.00    +0.000 A 
ATOM      7  C   UNL     1       2.503   8.466  17.996  0.00  0.00    +0.000 A 
ATOM      8  C   UNL     1       3.125   7.137  17.795  0.00  0.00    +0.000 A 
ATOM      9  O   UNL     1       3.914   6.976  16.858  0.00  0.00    +0.000 OA
ATOM     10  N   UNL     1       2.769   6.176  18.713  0.00  0.00    +0.000 N 
ENDROOT
BRANCH   1  12
ATOM     11  O   UNL     1       4.417   3.876  16.752  0.00  0.00    +0.000 OA
ATOM     12  C   UNL     1       3.327   4.079  17.339  0.00  0.00    +0.000 C 
ATOM     13  O   UNL     1       2.166   3.668  16.987  0.00  0.00    +0.000 OA
ENDBRANCH   1  12
BRANCH   5  14
ATOM     14  C   UNL     1       1.118   8.125  21.504  0.00  0.00    +0.000 C 
ATOM     15  C   UNL     1       0.595   9.488  21.882  0.00  0.00    +0.000 C 
ATOM     16  C   UNL     1      -0.373   8.385  21.641  0.00  0.00    +0.000 C 
ENDBRANCH   5  14
BRANCH   6  17
ATOM     17  C   UNL     1       1.220  10.166  19.233  0.00  0.00    +0.000 C 
BRANCH  17  18
ATOM     18  N   UNL     1      -0.119  10.275  18.651  0.00  0.00    +0.000 N 
ATOM     19  C   UNL     1      -0.520   9.625  17.510  0.00  0.00    +0.000 A 
ATOM     20  C   UNL     1      -1.837   9.938  17.276  0.00  0.00    +0.000 A 
ATOM     21  C   UNL     1      -2.244  10.861  18.274  0.00  0.00    +0.000 A 
ATOM     22  C   UNL     1      -3.453  11.535  18.531  0.00  0.00    +0.000 A 
ATOM     23  C   UNL     1      -3.529  12.436  19.597  0.00  0.00    +0.000 A 
ATOM     24  C   UNL     1      -2.416  12.678  20.394  0.00  0.00    +0.000 A 
ATOM     25  C   UNL     1      -1.204  12.018  20.163  0.00  0.00    +0.000 A 
ATOM     26  C   UNL     1      -1.140  11.094  19.104  0.00  0.00    +0.000 A 
ENDBRANCH  17  18
ENDBRANCH   6  17
TORSDOF 4
ENDMDL
MODEL 2
REMARK VINA RESULT:      -7.2      2.559      4.042
REMARK  Name = 
REMARK  4 active torsions:
REMARK  status: ('A' for Active; 'I' for Inactive)
REMARK    1  A    between atoms: C_2  and  C_4
REMARK    2  A    between atoms: C_8  and  C_9
REMARK    3  A    between atoms: C_12  and  C_13
REMARK    4  A    between atoms: C_13  and  N_14
REMARK                            x       y       z     vdW  Elec       q    Type
REMARK                         _______ _______ _______ _____ _____    ______ ____
ROOT
ATOM      1  C   UNL     1       5.606   4.027  16.738  0.00  0.00    +0.000 C 
ATOM      2  C   UNL     1       4.707   3.325  15.737  0.00  0.00    +0.000 C 
ATOM      3  S   UNL     1       3.242   2.918  16.720  0.00  0.00    +0.000 S 
ATOM      4  C   UNL     1       3.457   4.280  17.784  0.00  0.00    +0.000 A 
ATOM      5  C   UNL     1       2.537   4.739  18.671  0.00  0.00    +0.000 A 
ATOM      6  C   UNL     1       2.960   5.836  19.576  0.00  0.00    +0.000 A 
ATOM      7  C   UNL     1       4.242   6.271  19.525  0.00  0.00    +0.000 A 
ATOM      8  C   UNL     1       5.246   5.657  18.626  0.00  0.00    +0.000 A 
ATOM      9  O   UNL     1       6.440   5.942  18.770  0.00  0.00    +0.000 OA
ATOM     10  N   UNL     1       4.742   4.780  17.693  0.00  0.00    +0.000 N 
ENDROOT
BRANCH   1  12
ATOM     11  O   UNL     1       7.869   4.536  16.073  0.00  0.00    +0.000 OA
ATOM     12  C   UNL     1       6.660   4.861  15.986  0.00  0.00    +0.000 C 
ATOM     13  O   UNL     1       6.152   5.775  15.248  0.00  0.00    +0.000 OA
ENDBRANCH   1  12
BRANCH   5  14
ATOM     14  C   UNL     1       1.220   4.083  18.883  0.00  0.00    +0.000 C 
ATOM     15  C   UNL     1       0.962   2.596  18.858  0.00  0.00    +0.000 C 
ATOM     16  C   UNL     1       1.006   3.300  20.168  0.00  0.00    +0.000 C 
ENDBRANCH   5  14
BRANCH   6  17
ATOM     17  C   UNL     1       2.011   6.530  20.533  0.00  0.00    +0.000 C 
BRANCH  17  18
ATOM     18  N   UNL     1       1.590   7.857  20.079  0.00  0.00    +0.000 N 
ATOM     19  C   UNL     1       1.847   8.362  18.828  0.00  0.00    +0.000 A 
ATOM     20  C   UNL     1       1.287   9.614  18.746  0.00  0.00    +0.000 A 
ATOM     21  C   UNL     1       0.717   9.914  20.010  0.00  0.00    +0.000 A 
ATOM     22  C   UNL     1       0.035  11.036  20.521  0.00  0.00    +0.000 A 
ATOM     23  C   UNL     1      -0.378  11.045  21.856  0.00  0.00    +0.000 A 
ATOM     24  C   UNL     1      -0.110   9.960  22.683  0.00  0.00    +0.000 A 
ATOM     25  C   UNL     1       0.561   8.831  22.199  0.00  0.00    +0.000 A 
ATOM     26  C   UNL     1       0.953   8.817  20.848  0.00  0.00    +0.000 A 
ENDBRANCH  17  18
ENDBRANCH   6  17
TORSDOF 4
ENDMDL
MODEL 3
REMARK VINA RESULT:      -7.0      5.065      8.414
REMARK  Name = 
REMARK  4 active torsions:
REMARK  status: ('A' for Active; 'I' for Inactive)
REMARK    1  A    between atoms: C_2  and  C_4
REMARK    2  A    between atoms: C_8  and  C_9
REMARK    3  A    between atoms: C_12  and  C_13
REMARK    4  A    between atoms: C_13  and  N_14
REMARK                            x       y       z     vdW  Elec       q    Type
REMARK                         _______ _______ _______ _____ _____    ______ ____
ROOT
ATOM      1  C   UNL     1      -5.850  12.585  19.816  0.00  0.00    +0.000 C 
ATOM      2  C   UNL     1      -6.484  11.389  19.132  0.00  0.00    +0.000 C 
ATOM      3  S   UNL     1      -5.287  10.977  17.837  0.00  0.00    +0.000 S 
ATOM      4  C   UNL     1      -3.939  11.590  18.754  0.00  0.00    +0.000 A 
ATOM      5  C   UNL     1      -2.629  11.384  18.460  0.00  0.00    +0.000 A 
ATOM      6  C   UNL     1      -1.629  12.096  19.295  0.00  0.00    +0.000 A 
ATOM      7  C   UNL     1      -2.064  12.957  20.246  0.00  0.00    +0.000 A 
ATOM      8  C   UNL     1      -3.502  13.244  20.451  0.00  0.00    +0.000 A 
ATOM      9  O   UNL     1      -3.832  14.186  21.178  0.00  0.00    +0.000 OA
ATOM     10  N   UNL     1      -4.369  12.416  19.774  0.00  0.00    +0.000 N 
ENDROOT
BRANCH   1  12
ATOM     11  O   UNL     1      -6.512  11.776  21.991  0.00  0.00    +0.000 OA
ATOM     12  C   UNL     1      -6.466  12.762  21.217  0.00  0.00    +0.000 C 
ATOM     13  O   UNL     1      -6.789  13.973  21.479  0.00  0.00    +0.000 OA
ENDBRANCH   1  12
BRANCH   5  14
ATOM     14  C   UNL     1      -2.177  10.636  17.257  0.00  0.00    +0.000 C 
ATOM     15  C   UNL     1      -3.057   9.808  16.353  0.00  0.00    +0.000 C 
ATOM     16  C   UNL     1      -2.604  11.147  15.890  0.00  0.00    +0.000 C 
ENDBRANCH   5  14
BRANCH   6  17
ATOM     17  C   UNL     1      -0.135  11.874  19.163  0.00  0.00    +0.000 C 
BRANCH  17  18
ATOM     18  N   UNL     1       0.345  10.694  19.885  0.00  0.00    +0.000 N 
ATOM     19  C   UNL     1       0.231  10.520  21.243  0.00  0.00    +0.000 A 
ATOM     20  C   UNL     1       0.764   9.295  21.566  0.00  0.00    +0.000 A 
ATOM     21  C   UNL     1       1.277   8.721  20.375  0.00  0.00    +0.000 A 
ATOM     22  C   UNL     1       1.940   7.511  20.094  0.00  0.00    +0.000 A 
ATOM     23  C   UNL     1       2.369   7.244  18.790  0.00  0.00    +0.000 A 
ATOM     24  C   UNL     1       2.156   8.171  17.776  0.00  0.00    +0.000 A 
ATOM     25  C   UNL     1       1.495   9.378  18.028  0.00  0.00    +0.000 A 
ATOM     26  C   UNL     1       1.044   9.631  19.336  0.00  0.00    +0.000 A 
ENDBRANCH  17  18
ENDBRANCH   6  17
TORSDOF 4
ENDMDL
MODEL 4
REMARK VINA RESULT:      -6.9      5.011      8.481
REMARK  Name = 
REMARK  4 active torsions:
REMARK  status: ('A' for Active; 'I' for Inactive)
REMARK    1  A    between atoms: C_2  and  C_4
REMARK    2  A    between atoms: C_8  and  C_9
REMARK    3  A    between atoms: C_12  and  C_13
REMARK    4  A    between atoms: C_13  and  N_14
REMARK                            x       y       z     vdW  Elec       q    Type
REMARK                         _______ _______ _______ _____ _____    ______ ____
ROOT
ATOM      1  C   UNL     1      -5.268  13.287  20.550  0.00  0.00    +0.000 C 
ATOM      2  C   UNL     1      -6.163  12.131  20.148  0.00  0.00    +0.000 C 
ATOM      3  S   UNL     1      -5.290  11.411  18.734  0.00  0.00    +0.000 S 
ATOM      4  C   UNL     1      -3.728  11.913  19.319  0.00  0.00    +0.000 A 
ATOM      5  C   UNL     1      -2.533  11.487  18.836  0.00  0.00    +0.000 A 
ATOM      6  C   UNL     1      -1.314  12.129  19.388  0.00  0.00    +0.000 A 
ATOM      7  C   UNL     1      -1.451  13.142  20.277  0.00  0.00    +0.000 A 
ATOM      8  C   UNL     1      -2.779  13.657  20.684  0.00  0.00    +0.000 A 
ATOM      9  O   UNL     1      -2.846  14.711  21.325  0.00  0.00    +0.000 OA
ATOM     10  N   UNL     1      -3.854  12.899  20.279  0.00  0.00    +0.000 N 
ENDROOT
BRANCH   1  12
ATOM     11  O   UNL     1      -6.036  14.851  22.219  0.00  0.00    +0.000 OA
ATOM     12  C   UNL     1      -5.584  13.702  21.999  0.00  0.00    +0.000 C 
ATOM     13  O   UNL     1      -5.432  12.751  22.844  0.00  0.00    +0.000 OA
ENDBRANCH   1  12
BRANCH   5  14
ATOM     14  C   UNL     1      -2.411  10.556  17.683  0.00  0.00    +0.000 C 
ATOM     15  C   UNL     1      -3.521  10.185  16.730  0.00  0.00    +0.000 C 
ATOM     16  C   UNL     1      -2.472  11.138  16.280  0.00  0.00    +0.000 C 
ENDBRANCH   5  14
BRANCH   6  17
ATOM     17  C   UNL     1       0.090  11.677  19.034  0.00  0.00    +0.000 C 
BRANCH  17  18
ATOM     18  N   UNL     1       0.506  10.462  19.738  0.00  0.00    +0.000 N 
ATOM     19  C   UNL     1       0.272  10.223  21.070  0.00  0.00    +0.000 A 
ATOM     20  C   UNL     1       0.776   8.983  21.380  0.00  0.00    +0.000 A 
ATOM     21  C   UNL     1       1.394   8.466  20.212  0.00  0.00    +0.000 A 
ATOM     22  C   UNL     1       2.082   7.269  19.933  0.00  0.00    +0.000 A 
ATOM     23  C   UNL     1       2.626   7.065  18.662  0.00  0.00    +0.000 A 
ATOM     24  C   UNL     1       2.502   8.040  17.678  0.00  0.00    +0.000 A 
ATOM     25  C   UNL     1       1.819   9.236  17.929  0.00  0.00    +0.000 A 
ATOM     26  C   UNL     1       1.253   9.426  19.202  0.00  0.00    +0.000 A 
ENDBRANCH  17  18
ENDBRANCH   6  17
TORSDOF 4
ENDMDL
MODEL 5
REMARK VINA RESULT:      -6.9      4.548      8.010
REMARK  Name = 
REMARK  4 active torsions:
REMARK  status: ('A' for Active; 'I' for Inactive)
REMARK    1  A    between atoms: C_2  and  C_4
REMARK    2  A    between atoms: C_8  and  C_9
REMARK    3  A    between atoms: C_12  and  C_13
REMARK    4  A    between atoms: C_13  and  N_14
REMARK                            x       y       z     vdW  Elec       q    Type
REMARK                         _______ _______ _______ _____ _____    ______ ____
ROOT
ATOM      1  C   UNL     1      -5.479  12.327  19.341  0.00  0.00    +0.000 C 
ATOM      2  C   UNL     1      -5.669  13.635  20.086  0.00  0.00    +0.000 C 
ATOM      3  S   UNL     1      -4.255  13.669  21.216  0.00  0.00    +0.000 S 
ATOM      4  C   UNL     1      -3.251  12.732  20.145  0.00  0.00    +0.000 A 
ATOM      5  C   UNL     1      -1.910  12.562  20.271  0.00  0.00    +0.000 A 
ATOM      6  C   UNL     1      -1.256  11.623  19.325  0.00  0.00    +0.000 A 
ATOM      7  C   UNL     1      -2.025  10.938  18.445  0.00  0.00    +0.000 A 
ATOM      8  C   UNL     1      -3.501  11.064  18.425  0.00  0.00    +0.000 A 
ATOM      9  O   UNL     1      -4.165  10.266  17.755  0.00  0.00    +0.000 OA
ATOM     10  N   UNL     1      -4.015  12.081  19.196  0.00  0.00    +0.000 N 
ENDROOT
BRANCH   1  12
ATOM     11  O   UNL     1      -7.152  11.477  17.825  0.00  0.00    +0.000 OA
ATOM     12  C   UNL     1      -6.287  12.361  18.029  0.00  0.00    +0.000 C 
ATOM     13  O   UNL     1      -6.039  13.389  17.307  0.00  0.00    +0.000 OA
ENDBRANCH   1  12
BRANCH   5  14
ATOM     14  C   UNL     1      -1.125  13.127  21.400  0.00  0.00    +0.000 C 
ATOM     15  C   UNL     1       0.318  13.564  21.337  0.00  0.00    +0.000 C 
ATOM     16  C   UNL     1      -0.750  14.599  21.349  0.00  0.00    +0.000 C 
ENDBRANCH   5  14
BRANCH   6  17
ATOM     17  C   UNL     1       0.245  11.422  19.267  0.00  0.00    +0.000 C 
BRANCH  17  18
ATOM     18  N   UNL     1       0.689  10.162  19.866  0.00  0.00    +0.000 N 
ATOM     19  C   UNL     1       0.482   9.816  21.178  0.00  0.00    +0.000 A 
ATOM     20  C   UNL     1       1.006   8.562  21.381  0.00  0.00    +0.000 A 
ATOM     21  C   UNL     1       1.610   8.147  20.167  0.00  0.00    +0.000 A 
ATOM     22  C   UNL     1       2.307   6.984  19.783  0.00  0.00    +0.000 A 
ATOM     23  C   UNL     1       2.830   6.887  18.490  0.00  0.00    +0.000 A 
ATOM     24  C   UNL     1       2.677   7.935  17.589  0.00  0.00    +0.000 A 
ATOM     25  C   UNL     1       1.984   9.098  17.944  0.00  0.00    +0.000 A 
ATOM     26  C   UNL     1       1.439   9.181  19.238  0.00  0.00    +0.000 A 
ENDBRANCH  17  18
ENDBRANCH   6  17
TORSDOF 4
ENDMDL
MODEL 6
REMARK VINA RESULT:      -6.8      2.971      7.552
REMARK  Name = 
REMARK  4 active torsions:
REMARK  status: ('A' for Active; 'I' for Inactive)
REMARK    1  A    between atoms: C_2  and  C_4
REMARK    2  A    between atoms: C_8  and  C_9
REMARK    3  A    between atoms: C_12  and  C_13
REMARK    4  A    between atoms: C_13  and  N_14
REMARK                            x       y       z     vdW  Elec       q    Type
REMARK                         _______ _______ _______ _____ _____    ______ ____
ROOT
ATOM      1  C   UNL     1       0.761  10.045  19.962  0.00  0.00    +0.000 C 
ATOM      2  C   UNL     1       0.474   9.921  21.446  0.00  0.00    +0.000 C 
ATOM      3  S   UNL     1       0.210   8.143  21.664  0.00  0.00    +0.000 S 
ATOM      4  C   UNL     1       1.263   7.726  20.340  0.00  0.00    +0.000 A 
ATOM      5  C   UNL     1       1.729   6.480  20.068  0.00  0.00    +0.000 A 
ATOM      6  C   UNL     1       2.514   6.310  18.820  0.00  0.00    +0.000 A 
ATOM      7  C   UNL     1       2.665   7.371  17.991  0.00  0.00    +0.000 A 
ATOM      8  C   UNL     1       2.034   8.682  18.268  0.00  0.00    +0.000 A 
ATOM      9  O   UNL     1       2.023   9.545  17.384  0.00  0.00    +0.000 OA
ATOM     10  N   UNL     1       1.483   8.817  19.522  0.00  0.00    +0.000 N 
ENDROOT
BRANCH   1  12
ATOM     11  O   UNL     1       1.334  11.929  18.568  0.00  0.00    +0.000 OA
ATOM     12  C   UNL     1       1.477  11.380  19.686  0.00  0.00    +0.000 C 
ATOM     13  O   UNL     1       2.089  11.848  20.710  0.00  0.00    +0.000 OA
ENDBRANCH   1  12
BRANCH   5  14
ATOM     14  C   UNL     1       1.342   5.281  20.858  0.00  0.00    +0.000 C 
ATOM     15  C   UNL     1       1.341   3.858  20.354  0.00  0.00    +0.000 C 
ATOM     16  C   UNL     1       2.435   4.303  21.259  0.00  0.00    +0.000 C 
ENDBRANCH   5  14
BRANCH   6  17
ATOM     17  C   UNL     1       3.197   5.010  18.444  0.00  0.00    +0.000 C 
BRANCH  17  18
ATOM     18  N   UNL     1       4.629   5.159  18.175  0.00  0.00    +0.000 N 
ATOM     19  C   UNL     1       5.544   5.607  19.095  0.00  0.00    +0.000 A 
ATOM     20  C   UNL     1       6.786   5.596  18.508  0.00  0.00    +0.000 A 
ATOM     21  C   UNL     1       6.621   5.182  17.161  0.00  0.00    +0.000 A 
ATOM     22  C   UNL     1       7.517   5.002  16.089  0.00  0.00    +0.000 A 
ATOM     23  C   UNL     1       7.029   4.615  14.838  0.00  0.00    +0.000 A 
ATOM     24  C   UNL     1       5.666   4.420  14.644  0.00  0.00    +0.000 A 
ATOM     25  C   UNL     1       4.756   4.587  15.694  0.00  0.00    +0.000 A 
ATOM     26  C   UNL     1       5.254   4.953  16.957  0.00  0.00    +0.000 A 
ENDBRANCH  17  18
ENDBRANCH   6  17
TORSDOF 4
ENDMDL
MODEL 7
REMARK VINA RESULT:      -6.7      1.141      1.443
REMARK  Name = 
REMARK  4 active torsions:
REMARK  status: ('A' for Active; 'I' for Inactive)
REMARK    1  A    between atoms: C_2  and  C_4
REMARK    2  A    between atoms: C_8  and  C_9
REMARK    3  A    between atoms: C_12  and  C_13
REMARK    4  A    between atoms: C_13  and  N_14
REMARK                            x       y       z     vdW  Elec       q    Type
REMARK                         _______ _______ _______ _____ _____    ______ ____
ROOT
ATOM      1  C   UNL     1       3.058   6.145  19.151  0.00  0.00    +0.000 C 
ATOM      2  C   UNL     1       2.305   5.340  20.194  0.00  0.00    +0.000 C 
ATOM      3  S   UNL     1       1.550   6.619  21.230  0.00  0.00    +0.000 S 
ATOM      4  C   UNL     1       1.455   7.761  19.918  0.00  0.00    +0.000 A 
ATOM      5  C   UNL     1       0.748   8.920  19.935  0.00  0.00    +0.000 A 
ATOM      6  C   UNL     1       0.895   9.818  18.763  0.00  0.00    +0.000 A 
ATOM      7  C   UNL     1       1.768   9.480  17.783  0.00  0.00    +0.000 A 
ATOM      8  C   UNL     1       2.611   8.265  17.866  0.00  0.00    +0.000 A 
ATOM      9  O   UNL     1       3.535   8.116  17.059  0.00  0.00    +0.000 OA
ATOM     10  N   UNL     1       2.289   7.393  18.881  0.00  0.00    +0.000 N 
ENDROOT
BRANCH   1  12
ATOM     11  O   UNL     1       4.532   5.126  17.535  0.00  0.00    +0.000 OA
ATOM     12  C   UNL     1       3.348   5.256  17.927  0.00  0.00    +0.000 C 
ATOM     13  O   UNL     1       2.311   4.647  17.486  0.00  0.00    +0.000 OA
ENDBRANCH   1  12
BRANCH   5  14
ATOM     14  C   UNL     1      -0.008   9.391  21.126  0.00  0.00    +0.000 C 
ATOM     15  C   UNL     1       0.497   9.384  22.548  0.00  0.00    +0.000 C 
ATOM     16  C   UNL     1       0.449  10.672  21.806  0.00  0.00    +0.000 C 
ENDBRANCH   5  14
BRANCH   6  17
ATOM     17  C   UNL     1       0.081  11.085  18.584  0.00  0.00    +0.000 C 
BRANCH  17  18
ATOM     18  N   UNL     1      -1.305  10.836  18.182  0.00  0.00    +0.000 N 
ATOM     19  C   UNL     1      -1.671  10.019  17.140  0.00  0.00    +0.000 A 
ATOM     20  C   UNL     1      -3.043  10.002  17.068  0.00  0.00    +0.000 A 
ATOM     21  C   UNL     1      -3.537  10.886  18.062  0.00  0.00    +0.000 A 
ATOM     22  C   UNL     1      -4.833  11.283  18.443  0.00  0.00    +0.000 A 
ATOM     23  C   UNL     1      -4.996  12.228  19.461  0.00  0.00    +0.000 A 
ATOM     24  C   UNL     1      -3.886  12.784  20.088  0.00  0.00    +0.000 A 
ATOM     25  C   UNL     1      -2.588  12.401  19.732  0.00  0.00    +0.000 A 
ATOM     26  C   UNL     1      -2.431  11.433  18.724  0.00  0.00    +0.000 A 
ENDBRANCH  17  18
ENDBRANCH   6  17
TORSDOF 4
ENDMDL
MODEL 8
REMARK VINA RESULT:      -6.6      2.206      3.623
REMARK  Name = 
REMARK  4 active torsions:
REMARK  status: ('A' for Active; 'I' for Inactive)
REMARK    1  A    between atoms: C_2  and  C_4
REMARK    2  A    between atoms: C_8  and  C_9
REMARK    3  A    between atoms: C_12  and  C_13
REMARK    4  A    between atoms: C_13  and  N_14
REMARK                            x       y       z     vdW  Elec       q    Type
REMARK                         _______ _______ _______ _____ _____    ______ ____
ROOT
ATOM      1  C   UNL     1       5.890   4.316  16.354  0.00  0.00    +0.000 C 
ATOM      2  C   UNL     1       5.280   2.944  16.136  0.00  0.00    +0.000 C 
ATOM      3  S   UNL     1       4.377   2.649  17.677  0.00  0.00    +0.000 S 
ATOM      4  C   UNL     1       4.095   4.346  17.950  0.00  0.00    +0.000 A 
ATOM      5  C   UNL     1       3.234   4.864  18.864  0.00  0.00    +0.000 A 
ATOM      6  C   UNL     1       3.229   6.339  19.028  0.00  0.00    +0.000 A 
ATOM      7  C   UNL     1       4.119   7.079  18.325  0.00  0.00    +0.000 A 
ATOM      8  C   UNL     1       5.125   6.462  17.431  0.00  0.00    +0.000 A 
ATOM      9  O   UNL     1       6.042   7.157  16.983  0.00  0.00    +0.000 OA
ATOM     10  N   UNL     1       4.949   5.118  17.187  0.00  0.00    +0.000 N 
ENDROOT
BRANCH   1  12
ATOM     11  O   UNL     1       7.412   5.440  14.856  0.00  0.00    +0.000 OA
ATOM     12  C   UNL     1       6.274   4.930  14.995  0.00  0.00    +0.000 C 
ATOM     13  O   UNL     1       5.383   4.758  14.091  0.00  0.00    +0.000 OA
ENDBRANCH   1  12
BRANCH   5  14
ATOM     14  C   UNL     1       2.446   4.021  19.802  0.00  0.00    +0.000 C 
ATOM     15  C   UNL     1       1.104   4.378  20.392  0.00  0.00    +0.000 C 
ATOM     16  C   UNL     1       1.166   3.380  19.291  0.00  0.00    +0.000 C 
ENDBRANCH   5  14
BRANCH   6  17
ATOM     17  C   UNL     1       2.242   7.067  19.920  0.00  0.00    +0.000 C 
BRANCH  17  18
ATOM     18  N   UNL     1       1.694   8.282  19.313  0.00  0.00    +0.000 N 
ATOM     19  C   UNL     1       1.906   8.656  18.009  0.00  0.00    +0.000 A 
ATOM     20  C   UNL     1       1.224   9.827  17.781  0.00  0.00    +0.000 A 
ATOM     21  C   UNL     1       0.620  10.218  19.003  0.00  0.00    +0.000 A 
ATOM     22  C   UNL     1      -0.173  11.319  19.380  0.00  0.00    +0.000 A 
ATOM     23  C   UNL     1      -0.593  11.447  20.707  0.00  0.00    +0.000 A 
ATOM     24  C   UNL     1      -0.222  10.501  21.656  0.00  0.00    +0.000 A 
ATOM     25  C   UNL     1       0.560   9.395  21.306  0.00  0.00    +0.000 A 
ATOM     26  C   UNL     1       0.960   9.259  19.965  0.00  0.00    +0.000 A 
ENDBRANCH  17  18
ENDBRANCH   6  17
TORSDOF 4
ENDMDL
MODEL 9
REMARK VINA RESULT:      -6.6      3.978      7.734
REMARK  Name = 
REMARK  4 active torsions:
REMARK  status: ('A' for Active; 'I' for Inactive)
REMARK    1  A    between atoms: C_2  and  C_4
REMARK    2  A    between atoms: C_8  and  C_9
REMARK    3  A    between atoms: C_12  and  C_13
REMARK    4  A    between atoms: C_13  and  N_14
REMARK                            x       y       z     vdW  Elec       q    Type
REMARK                         _______ _______ _______ _____ _____    ______ ____
ROOT
ATOM      1  C   UNL     1       0.041  14.503  20.395  0.00  0.00    +0.000 C 
ATOM      2  C   UNL     1      -1.267  14.229  21.114  0.00  0.00    +0.000 C 
ATOM      3  S   UNL     1      -2.022  12.929  20.106  0.00  0.00    +0.000 S 
ATOM      4  C   UNL     1      -0.483  12.301  19.587  0.00  0.00    +0.000 A 
ATOM      5  C   UNL     1      -0.289  11.115  18.955  0.00  0.00    +0.000 A 
ATOM      6  C   UNL     1       1.086  10.818  18.483  0.00  0.00    +0.000 A 
ATOM      7  C   UNL     1       2.050  11.758  18.637  0.00  0.00    +0.000 A 
ATOM      8  C   UNL     1       1.765  13.088  19.222  0.00  0.00    +0.000 A 
ATOM      9  O   UNL     1       2.620  13.977  19.145  0.00  0.00    +0.000 OA
ATOM     10  N   UNL     1       0.524  13.223  19.802  0.00  0.00    +0.000 N 
ENDROOT
BRANCH   1  12
ATOM     11  O   UNL     1       1.478  14.572  22.332  0.00  0.00    +0.000 OA
ATOM     12  C   UNL     1       1.017  15.209  21.354  0.00  0.00    +0.000 C 
ATOM     13  O   UNL     1       1.337  16.389  20.974  0.00  0.00    +0.000 OA
ENDBRANCH   1  12
BRANCH   5  14
ATOM     14  C   UNL     1      -1.405  10.210  18.572  0.00  0.00    +0.000 C 
ATOM     15  C   UNL     1      -2.744  10.644  18.028  0.00  0.00    +0.000 C 
ATOM     16  C   UNL     1      -1.739  10.065  17.097  0.00  0.00    +0.000 C 
ENDBRANCH   5  14
BRANCH   6  17
ATOM     17  C   UNL     1       1.480   9.488  17.869  0.00  0.00    +0.000 C 
BRANCH  17  18
ATOM     18  N   UNL     1       1.752   8.446  18.861  0.00  0.00    +0.000 N 
ATOM     19  C   UNL     1       1.326   8.491  20.166  0.00  0.00    +0.000 A 
ATOM     20  C   UNL     1       1.740   7.342  20.794  0.00  0.00    +0.000 A 
ATOM     21  C   UNL     1       2.498   6.590  19.860  0.00  0.00    +0.000 A 
ATOM     22  C   UNL     1       3.178   5.359  19.935  0.00  0.00    +0.000 A 
ATOM     23  C   UNL     1       3.887   4.891  18.825  0.00  0.00    +0.000 A 
ATOM     24  C   UNL     1       3.935   5.640  17.654  0.00  0.00    +0.000 A 
ATOM     25  C   UNL     1       3.264   6.864  17.552  0.00  0.00    +0.000 A 
ATOM     26  C   UNL     1       2.532   7.318  18.664  0.00  0.00    +0.000 A 
ENDBRANCH  17  18
ENDBRANCH   6  17
TORSDOF 4
ENDMDL
