MODEL 1
REMARK VINA RESULT:      -8.1      0.000      0.000
REMARK  Name = 
REMARK  7 active torsions:
REMARK  status: ('A' for Active; 'I' for Inactive)
REMARK    1  A    between atoms: C_1  and  C_2
REMARK    2  A    between atoms: C_2  and  C_3
REMARK    3  A    between atoms: C_2  and  N_4
REMARK    4  A    between atoms: N_4  and  C_5
REMARK    5  A    between atoms: N_4  and  C_11
REMARK    6  A    between atoms: C_5  and  C_6
REMARK    7  A    between atoms: C_15  and  C_16
REMARK                            x       y       z     vdW  Elec       q    Type
REMARK                         _______ _______ _______ _____ _____    ______ ____
ROOT
ATOM      1  C   UNL     1       4.473   5.074  17.837  0.00  0.00    +0.000 A 
ATOM      2  C   UNL     1       5.539   5.163  18.746  0.00  0.00    +0.000 A 
ATOM      3  C   UNL     1       6.866   5.079  18.331  0.00  0.00    +0.000 A 
ATOM      4  C   UNL     1       7.162   4.879  16.984  0.00  0.00    +0.000 A 
ATOM      5  C   UNL     1       6.143   4.793  16.027  0.00  0.00    +0.000 A 
ATOM      6  C   UNL     1       4.811   4.916  16.485  0.00  0.00    +0.000 A 
ENDROOT
BRANCH   5   7
ATOM      7  C   UNL     1       6.438   4.568  14.590  0.00  0.00    +0.000 A 
ATOM      8  C   UNL     1       7.486   5.251  13.942  0.00  0.00    +0.000 A 
ATOM      9  C   UNL     1       7.791   5.018  12.599  0.00  0.00    +0.000 A 
ATOM     10  C   UNL     1       7.041   4.111  11.863  0.00  0.00    +0.000 A 
ATOM     11  C   UNL     1       5.986   3.436  12.468  0.00  0.00    +0.000 A 
ATOM     12  C   UNL     1       5.692   3.660  13.817  0.00  0.00    +0.000 A 
ENDBRANCH   5   7
BRANCH   1  13
ATOM     13  N   UNL     1       3.144   5.149  18.256  0.00  0.00    +0.000 N 
BRANCH  13  15
ATOM     14  C   UNL     1       2.340   6.865  19.863  0.00  0.00    +0.000 C 
ATOM     15  C   UNL     1       2.522   6.484  18.397  0.00  0.00    +0.000 C 
ATOM     16  C   UNL     1       3.258   7.578  17.614  0.00  0.00    +0.000 C 
ENDBRANCH  13  15
BRANCH  13  17
ATOM     17  C   UNL     1       2.345   3.919  18.428  0.00  0.00    +0.000 C 
BRANCH  17  18
ATOM     18  C   UNL     1       2.222   3.382  19.812  0.00  0.00    +0.000 A 
ATOM     19  C   UNL     1       3.165   2.875  20.689  0.00  0.00    +0.000 A 
ATOM     20  N   UNL     1       2.587   2.484  21.866  0.00  0.00    +0.000 NA
ATOM     21  C   UNL     1       1.303   2.728  21.718  0.00  0.00    +0.000 A 
ATOM     22  N   UNL     1       1.037   3.251  20.490  0.00  0.00    +0.000 N 
ATOM     23  H   UNL     1       0.123   3.512  20.134  0.00  0.00    +0.000 HD
ENDBRANCH  17  18
ENDBRANCH  13  17
ENDBRANCH   1  13
TORSDOF 5
ENDMDL
MODEL 2
REMARK VINA RESULT:      -8.1      0.036      1.025
REMARK  Name = 
REMARK  7 active torsions:
REMARK  status: ('A' for Active; 'I' for Inactive)
REMARK    1  A    between atoms: C_1  and  C_2
REMARK    2  A    between atoms: C_2  and  C_3
REMARK    3  A    between atoms: C_2  and  N_4
REMARK    4  A    between atoms: N_4  and  C_5
REMARK    5  A    between atoms: N_4  and  C_11
REMARK    6  A    between atoms: C_5  and  C_6
REMARK    7  A    between atoms: C_15  and  C_16
REMARK                            x       y       z     vdW  Elec       q    Type
REMARK                         _______ _______ _______ _____ _____    ______ ____
ROOT
ATOM      1  C   UNL     1       4.487   5.058  17.854  0.00  0.00    +0.000 A 
ATOM      2  C   UNL     1       5.546   5.134  18.772  0.00  0.00    +0.000 A 
ATOM      3  C   UNL     1       6.876   5.039  18.367  0.00  0.00    +0.000 A 
ATOM      4  C   UNL     1       7.181   4.840  17.021  0.00  0.00    +0.000 A 
ATOM      5  C   UNL     1       6.168   4.767  16.056  0.00  0.00    +0.000 A 
ATOM      6  C   UNL     1       4.834   4.901  16.504  0.00  0.00    +0.000 A 
ENDROOT
BRANCH   5   7
ATOM      7  C   UNL     1       6.472   4.543  14.621  0.00  0.00    +0.000 A 
ATOM      8  C   UNL     1       5.729   3.630  13.849  0.00  0.00    +0.000 A 
ATOM      9  C   UNL     1       5.986   3.440  12.489  0.00  0.00    +0.000 A 
ATOM     10  C   UNL     1       7.012   4.144  11.871  0.00  0.00    +0.000 A 
ATOM     11  C   UNL     1       7.779   5.038  12.611  0.00  0.00    +0.000 A 
ATOM     12  C   UNL     1       7.509   5.236  13.970  0.00  0.00    +0.000 A 
ENDBRANCH   5   7
BRANCH   1  13
ATOM     13  N   UNL     1       3.155   5.145  18.262  0.00  0.00    +0.000 N 
BRANCH  13  15
ATOM     14  C   UNL     1       2.323   6.859  19.856  0.00  0.00    +0.000 C 
ATOM     15  C   UNL     1       2.543   6.485  18.394  0.00  0.00    +0.000 C 
ATOM     16  C   UNL     1       3.310   7.576  17.638  0.00  0.00    +0.000 C 
ENDBRANCH  13  15
BRANCH  13  17
ATOM     17  C   UNL     1       2.346   3.922  18.433  0.00  0.00    +0.000 C 
BRANCH  17  18
ATOM     18  C   UNL     1       2.224   3.380  19.816  0.00  0.00    +0.000 A 
ATOM     19  C   UNL     1       3.171   2.886  20.696  0.00  0.00    +0.000 A 
ATOM     20  N   UNL     1       2.593   2.484  21.870  0.00  0.00    +0.000 NA
ATOM     21  C   UNL     1       1.306   2.708  21.715  0.00  0.00    +0.000 A 
ATOM     22  N   UNL     1       1.038   3.229  20.487  0.00  0.00    +0.000 N 
ATOM     23  H   UNL     1       0.122   3.476  20.128  0.00  0.00    +0.000 HD
ENDBRANCH  17  18
ENDBRANCH  13  17
ENDBRANCH   1  13
TORSDOF 5
ENDMDL
MODEL 3
REMARK VINA RESULT:      -8.0      1.534      2.975
REMARK  Name = 
REMARK  7 active torsions:
REMARK  status: ('A' for Active; 'I' for Inactive)
REMARK    1  A    between atoms: C_1  and  C_2
REMARK    2  A    between atoms: C_2  and  C_3
REMARK    3  A    between atoms: C_2  and  N_4
REMARK    4  A    between atoms: N_4  and  C_5
REMARK    5  A    between atoms: N_4  and  C_11
REMARK    6  A    between atoms: C_5  and  C_6
REMARK    7  A    between atoms: C_15  and  C_16
REMARK                            x       y       z     vdW  Elec       q    Type
REMARK                         _______ _______ _______ _____ _____    ______ ____
ROOT
ATOM      1  C   UNL     1       4.816   4.484  18.013  0.00  0.00    +0.000 A 
ATOM      2  C   UNL     1       5.911   4.802  18.832  0.00  0.00    +0.000 A 
ATOM      3  C   UNL     1       7.181   5.024  18.305  0.00  0.00    +0.000 A 
ATOM      4  C   UNL     1       7.394   4.911  16.931  0.00  0.00    +0.000 A 
ATOM      5  C   UNL     1       6.339   4.608  16.061  0.00  0.00    +0.000 A 
ATOM      6  C   UNL     1       5.059   4.421  16.633  0.00  0.00    +0.000 A 
ENDROOT
BRANCH   5   7
ATOM      7  C   UNL     1       6.548   4.470  14.599  0.00  0.00    +0.000 A 
ATOM      8  C   UNL     1       7.528   5.225  13.925  0.00  0.00    +0.000 A 
ATOM      9  C   UNL     1       7.754   5.075  12.555  0.00  0.00    +0.000 A 
ATOM     10  C   UNL     1       6.989   4.181  11.818  0.00  0.00    +0.000 A 
ATOM     11  C   UNL     1       5.998   3.436  12.450  0.00  0.00    +0.000 A 
ATOM     12  C   UNL     1       5.784   3.577  13.825  0.00  0.00    +0.000 A 
ENDBRANCH   5   7
BRANCH   1  13
ATOM     13  N   UNL     1       3.546   4.253  18.544  0.00  0.00    +0.000 N 
BRANCH  13  15
ATOM     14  C   UNL     1       3.281   1.815  18.143  0.00  0.00    +0.000 C 
ATOM     15  C   UNL     1       2.701   3.209  17.925  0.00  0.00    +0.000 C 
ATOM     16  C   UNL     1       1.232   3.286  18.359  0.00  0.00    +0.000 C 
ENDBRANCH  13  15
BRANCH  13  17
ATOM     17  C   UNL     1       3.114   4.947  19.774  0.00  0.00    +0.000 C 
BRANCH  17  18
ATOM     18  C   UNL     1       2.576   6.327  19.617  0.00  0.00    +0.000 A 
ATOM     19  C   UNL     1       2.534   7.178  18.527  0.00  0.00    +0.000 A 
ATOM     20  N   UNL     1       1.946   8.371  18.853  0.00  0.00    +0.000 NA
ATOM     21  C   UNL     1       1.643   8.269  20.130  0.00  0.00    +0.000 A 
ATOM     22  N   UNL     1       2.022   7.063  20.634  0.00  0.00    +0.000 N 
ATOM     23  H   UNL     1       1.907   6.751  21.591  0.00  0.00    +0.000 HD
ENDBRANCH  17  18
ENDBRANCH  13  17
ENDBRANCH   1  13
TORSDOF 5
ENDMDL
MODEL 4
REMARK VINA RESULT:      -8.0      2.626      7.104
REMARK  Name = 
REMARK  7 active torsions:
REMARK  status: ('A' for Active; 'I' for Inactive)
REMARK    1  A    between atoms: C_1  and  C_2
REMARK    2  A    between atoms: C_2  and  C_3
REMARK    3  A    between atoms: C_2  and  N_4
REMARK    4  A    between atoms: N_4  and  C_5
REMARK    5  A    between atoms: N_4  and  C_11
REMARK    6  A    between atoms: C_5  and  C_6
REMARK    7  A    between atoms: C_15  and  C_16
REMARK                            x       y       z     vdW  Elec       q    Type
REMARK                         _______ _______ _______ _____ _____    ______ ____
ROOT
ATOM      1  C   UNL     1       4.927   5.369  17.713  0.00  0.00    +0.000 A 
ATOM      2  C   UNL     1       4.200   4.198  17.446  0.00  0.00    +0.000 A 
ATOM      3  C   UNL     1       2.814   4.150  17.579  0.00  0.00    +0.000 A 
ATOM      4  C   UNL     1       2.116   5.279  18.008  0.00  0.00    +0.000 A 
ATOM      5  C   UNL     1       2.785   6.479  18.279  0.00  0.00    +0.000 A 
ATOM      6  C   UNL     1       4.187   6.495  18.101  0.00  0.00    +0.000 A 
ENDROOT
BRANCH   5   7
ATOM      7  C   UNL     1       2.062   7.687  18.749  0.00  0.00    +0.000 A 
ATOM      8  C   UNL     1       1.701   8.717  17.859  0.00  0.00    +0.000 A 
ATOM      9  C   UNL     1       0.989   9.840  18.288  0.00  0.00    +0.000 A 
ATOM     10  C   UNL     1       0.638   9.972  19.625  0.00  0.00    +0.000 A 
ATOM     11  C   UNL     1       0.998   8.981  20.534  0.00  0.00    +0.000 A 
ATOM     12  C   UNL     1       1.698   7.850  20.098  0.00  0.00    +0.000 A 
ENDBRANCH   5   7
BRANCH   1  13
ATOM     13  N   UNL     1       6.317   5.412  17.589  0.00  0.00    +0.000 N 
BRANCH  13  15
ATOM     14  C   UNL     1       8.116   5.848  19.245  0.00  0.00    +0.000 C 
ATOM     15  C   UNL     1       7.060   6.456  18.328  0.00  0.00    +0.000 C 
ATOM     16  C   UNL     1       7.654   7.534  17.414  0.00  0.00    +0.000 C 
ENDBRANCH  13  15
BRANCH  13  17
ATOM     17  C   UNL     1       7.032   4.360  16.839  0.00  0.00    +0.000 C 
BRANCH  17  18
ATOM     18  C   UNL     1       7.001   4.452  15.352  0.00  0.00    +0.000 A 
ATOM     19  C   UNL     1       6.273   3.757  14.403  0.00  0.00    +0.000 A 
ATOM     20  N   UNL     1       6.582   4.176  13.137  0.00  0.00    +0.000 NA
ATOM     21  C   UNL     1       7.500   5.105  13.295  0.00  0.00    +0.000 A 
ATOM     22  N   UNL     1       7.796   5.289  14.611  0.00  0.00    +0.000 N 
ATOM     23  H   UNL     1       8.477   5.940  14.987  0.00  0.00    +0.000 HD
ENDBRANCH  17  18
ENDBRANCH  13  17
ENDBRANCH   1  13
TORSDOF 5
ENDMDL
MODEL 5
REMARK VINA RESULT:      -7.8      2.899      7.898
REMARK  Name = 
REMARK  7 active torsions:
REMARK  status: ('A' for Active; 'I' for Inactive)
REMARK    1  A    between atoms: C_1  and  C_2
REMARK    2  A    between atoms: C_2  and  C_3
REMARK    3  A    between atoms: C_2  and  N_4
REMARK    4  A    between atoms: N_4  and  C_5
REMARK    5  A    between atoms: N_4  and  C_11
REMARK    6  A    between atoms: C_5  and  C_6
REMARK    7  A    between atoms: C_15  and  C_16
REMARK                            x       y       z     vdW  Elec       q    Type
REMARK                         _______ _______ _______ _____ _____    ______ ____
ROOT
ATOM      1  C   UNL     1       2.617   6.643  19.142  0.00  0.00    +0.000 A 
ATOM      2  C   UNL     1       2.846   7.297  17.921  0.00  0.00    +0.000 A 
ATOM      3  C   UNL     1       2.377   8.587  17.682  0.00  0.00    +0.000 A 
ATOM      4  C   UNL     1       1.641   9.253  18.660  0.00  0.00    +0.000 A 
ATOM      5  C   UNL     1       1.389   8.657  19.903  0.00  0.00    +0.000 A 
ATOM      6  C   UNL     1       1.909   7.360  20.118  0.00  0.00    +0.000 A 
ENDROOT
BRANCH   5   7
ATOM      7  C   UNL     1       0.596   9.344  20.952  0.00  0.00    +0.000 A 
ATOM      8  C   UNL     1       0.618   8.907  22.291  0.00  0.00    +0.000 A 
ATOM      9  C   UNL     1      -0.097   9.571  23.290  0.00  0.00    +0.000 A 
ATOM     10  C   UNL     1      -0.873  10.678  22.971  0.00  0.00    +0.000 A 
ATOM     11  C   UNL     1      -0.933  11.122  21.654  0.00  0.00    +0.000 A 
ATOM     12  C   UNL     1      -0.203  10.464  20.658  0.00  0.00    +0.000 A 
ENDBRANCH   5   7
BRANCH   1  13
ATOM     13  N   UNL     1       3.079   5.347  19.377  0.00  0.00    +0.000 N 
BRANCH  13  15
ATOM     14  C   UNL     1       1.157   4.074  20.303  0.00  0.00    +0.000 C 
ATOM     15  C   UNL     1       2.153   4.215  19.156  0.00  0.00    +0.000 C 
ATOM     16  C   UNL     1       1.447   4.271  17.796  0.00  0.00    +0.000 C 
ENDBRANCH  13  15
BRANCH  13  17
ATOM     17  C   UNL     1       4.498   5.111  19.713  0.00  0.00    +0.000 C 
BRANCH  17  18
ATOM     18  C   UNL     1       5.426   4.847  18.577  0.00  0.00    +0.000 A 
ATOM     19  C   UNL     1       5.191   4.484  17.263  0.00  0.00    +0.000 A 
ATOM     20  N   UNL     1       6.363   4.340  16.572  0.00  0.00    +0.000 NA
ATOM     21  C   UNL     1       7.313   4.592  17.446  0.00  0.00    +0.000 A 
ATOM     22  N   UNL     1       6.794   4.884  18.670  0.00  0.00    +0.000 N 
ATOM     23  H   UNL     1       7.321   5.102  19.508  0.00  0.00    +0.000 HD
ENDBRANCH  17  18
ENDBRANCH  13  17
ENDBRANCH   1  13
TORSDOF 5
ENDMDL
MODEL 6
REMARK VINA RESULT:      -7.8      2.945      7.988
REMARK  Name = 
REMARK  7 active torsions:
REMARK  status: ('A' for Active; 'I' for Inactive)
REMARK    1  A    between atoms: C_1  and  C_2
REMARK    2  A    between atoms: C_2  and  C_3
REMARK    3  A    between atoms: C_2  and  N_4
REMARK    4  A    between atoms: N_4  and  C_5
REMARK    5  A    between atoms: N_4  and  C_11
REMARK    6  A    between atoms: C_5  and  C_6
REMARK    7  A    between atoms: C_15  and  C_16
REMARK                            x       y       z     vdW  Elec       q    Type
REMARK                         _______ _______ _______ _____ _____    ______ ____
ROOT
ATOM      1  C   UNL     1       2.613   6.840  19.068  0.00  0.00    +0.000 A 
ATOM      2  C   UNL     1       2.735   7.496  17.834  0.00  0.00    +0.000 A 
ATOM      3  C   UNL     1       2.191   8.761  17.620  0.00  0.00    +0.000 A 
ATOM      4  C   UNL     1       1.485   9.397  18.640  0.00  0.00    +0.000 A 
ATOM      5  C   UNL     1       1.339   8.797  19.897  0.00  0.00    +0.000 A 
ATOM      6  C   UNL     1       1.933   7.527  20.084  0.00  0.00    +0.000 A 
ENDROOT
BRANCH   5   7
ATOM      7  C   UNL     1       0.580   9.452  20.992  0.00  0.00    +0.000 A 
ATOM      8  C   UNL     1      -0.179  10.616  20.762  0.00  0.00    +0.000 A 
ATOM      9  C   UNL     1      -0.924  11.217  21.779  0.00  0.00    +0.000 A 
ATOM     10  C   UNL     1      -0.911  10.681  23.060  0.00  0.00    +0.000 A 
ATOM     11  C   UNL     1      -0.154   9.544  23.325  0.00  0.00    +0.000 A 
ATOM     12  C   UNL     1       0.579   8.935  22.300  0.00  0.00    +0.000 A 
ENDBRANCH   5   7
BRANCH   1  13
ATOM     13  N   UNL     1       3.151   5.569  19.278  0.00  0.00    +0.000 N 
BRANCH  13  15
ATOM     14  C   UNL     1       1.269   4.280  20.261  0.00  0.00    +0.000 C 
ATOM     15  C   UNL     1       2.269   4.393  19.116  0.00  0.00    +0.000 C 
ATOM     16  C   UNL     1       1.575   4.344  17.749  0.00  0.00    +0.000 C 
ENDBRANCH  13  15
BRANCH  13  17
ATOM     17  C   UNL     1       4.597   5.403  19.529  0.00  0.00    +0.000 C 
BRANCH  17  18
ATOM     18  C   UNL     1       5.480   5.282  18.336  0.00  0.00    +0.000 A 
ATOM     19  C   UNL     1       6.180   6.229  17.610  0.00  0.00    +0.000 A 
ATOM     20  N   UNL     1       6.861   5.654  16.571  0.00  0.00    +0.000 NA
ATOM     21  C   UNL     1       6.576   4.371  16.640  0.00  0.00    +0.000 A 
ATOM     22  N   UNL     1       5.734   4.106  17.675  0.00  0.00    +0.000 N 
ATOM     23  H   UNL     1       5.362   3.197  17.928  0.00  0.00    +0.000 HD
ENDBRANCH  17  18
ENDBRANCH  13  17
ENDBRANCH   1  13
TORSDOF 5
ENDMDL
MODEL 7
REMARK VINA RESULT:      -7.7      1.380      3.413
REMARK  Name = 
REMARK  7 active torsions:
REMARK  status: ('A' for Active; 'I' for Inactive)
REMARK    1  A    between atoms: C_1  and  C_2
REMARK    2  A    between atoms: C_2  and  C_3
REMARK    3  A    between atoms: C_2  and  N_4
REMARK    4  A    between atoms: N_4  and  C_5
REMARK    5  A    between atoms: N_4  and  C_11
REMARK    6  A    between atoms: C_5  and  C_6
REMARK    7  A    between atoms: C_15  and  C_16
REMARK                            x       y       z     vdW  Elec       q    Type
REMARK                         _______ _______ _______ _____ _____    ______ ____
ROOT
ATOM      1  C   UNL     1       4.825   4.963  18.142  0.00  0.00    +0.000 A 
ATOM      2  C   UNL     1       5.944   5.150  18.967  0.00  0.00    +0.000 A 
ATOM      3  C   UNL     1       7.239   5.170  18.453  0.00  0.00    +0.000 A 
ATOM      4  C   UNL     1       7.449   4.978  17.089  0.00  0.00    +0.000 A 
ATOM      5  C   UNL     1       6.371   4.796  16.212  0.00  0.00    +0.000 A 
ATOM      6  C   UNL     1       5.072   4.816  16.769  0.00  0.00    +0.000 A 
ENDROOT
BRANCH   5   7
ATOM      7  C   UNL     1       6.575   4.577  14.759  0.00  0.00    +0.000 A 
ATOM      8  C   UNL     1       5.766   3.682  14.033  0.00  0.00    +0.000 A 
ATOM      9  C   UNL     1       5.929   3.499  12.658  0.00  0.00    +0.000 A 
ATOM     10  C   UNL     1       6.923   4.189  11.977  0.00  0.00    +0.000 A 
ATOM     11  C   UNL     1       7.753   5.064  12.669  0.00  0.00    +0.000 A 
ATOM     12  C   UNL     1       7.577   5.258  14.044  0.00  0.00    +0.000 A 
ENDBRANCH   5   7
BRANCH   1  13
ATOM     13  N   UNL     1       3.529   4.935  18.660  0.00  0.00    +0.000 N 
BRANCH  13  15
ATOM     14  C   UNL     1       2.333   3.000  19.660  0.00  0.00    +0.000 C 
ATOM     15  C   UNL     1       2.682   3.755  18.381  0.00  0.00    +0.000 C 
ATOM     16  C   UNL     1       1.431   4.091  17.562  0.00  0.00    +0.000 C 
ENDBRANCH  13  15
BRANCH  13  17
ATOM     17  C   UNL     1       3.066   6.001  19.571  0.00  0.00    +0.000 C 
BRANCH  17  18
ATOM     18  C   UNL     1       2.583   7.263  18.942  0.00  0.00    +0.000 A 
ATOM     19  C   UNL     1       2.831   7.826  17.703  0.00  0.00    +0.000 A 
ATOM     20  N   UNL     1       2.171   9.017  17.559  0.00  0.00    +0.000 NA
ATOM     21  C   UNL     1       1.537   9.199  18.698  0.00  0.00    +0.000 A 
ATOM     22  N   UNL     1       1.772   8.178  19.565  0.00  0.00    +0.000 N 
ATOM     23  H   UNL     1       1.405   8.094  20.507  0.00  0.00    +0.000 HD
ENDBRANCH  17  18
ENDBRANCH  13  17
ENDBRANCH   1  13
TORSDOF 5
ENDMDL
MODEL 8
REMARK VINA RESULT:      -7.7      1.534      3.325
REMARK  Name = 
REMARK  7 active torsions:
REMARK  status: ('A' for Active; 'I' for Inactive)
REMARK    1  A    between atoms: C_1  and  C_2
REMARK    2  A    between atoms: C_2  and  C_3
REMARK    3  A    between atoms: C_2  and  N_4
REMARK    4  A    between atoms: N_4  and  C_5
REMARK    5  A    between atoms: N_4  and  C_11
REMARK    6  A    between atoms: C_5  and  C_6
REMARK    7  A    between atoms: C_15  and  C_16
REMARK                            x       y       z     vdW  Elec       q    Type
REMARK                         _______ _______ _______ _____ _____    ______ ____
ROOT
ATOM      1  C   UNL     1       4.647   4.440  18.028  0.00  0.00    +0.000 A 
ATOM      2  C   UNL     1       5.713   4.744  18.888  0.00  0.00    +0.000 A 
ATOM      3  C   UNL     1       7.003   4.961  18.408  0.00  0.00    +0.000 A 
ATOM      4  C   UNL     1       7.264   4.856  17.043  0.00  0.00    +0.000 A 
ATOM      5  C   UNL     1       6.239   4.565  16.133  0.00  0.00    +0.000 A 
ATOM      6  C   UNL     1       4.939   4.384  16.657  0.00  0.00    +0.000 A 
ENDROOT
BRANCH   5   7
ATOM      7  C   UNL     1       6.500   4.436  14.678  0.00  0.00    +0.000 A 
ATOM      8  C   UNL     1       5.752   3.553  13.876  0.00  0.00    +0.000 A 
ATOM      9  C   UNL     1       5.968   3.452  12.499  0.00  0.00    +0.000 A 
ATOM     10  C   UNL     1       6.955   4.217  11.893  0.00  0.00    +0.000 A 
ATOM     11  C   UNL     1       7.726   5.084  12.661  0.00  0.00    +0.000 A 
ATOM     12  C   UNL     1       7.498   5.194  14.037  0.00  0.00    +0.000 A 
ENDBRANCH   5   7
BRANCH   1  13
ATOM     13  N   UNL     1       3.357   4.214  18.512  0.00  0.00    +0.000 N 
BRANCH  13  15
ATOM     14  C   UNL     1       3.311   1.731  18.448  0.00  0.00    +0.000 C 
ATOM     15  C   UNL     1       2.620   3.026  18.030  0.00  0.00    +0.000 C 
ATOM     16  C   UNL     1       1.139   3.032  18.428  0.00  0.00    +0.000 C 
ENDBRANCH  13  15
BRANCH  13  17
ATOM     17  C   UNL     1       2.798   5.074  19.574  0.00  0.00    +0.000 C 
BRANCH  17  18
ATOM     18  C   UNL     1       2.461   6.477  19.201  0.00  0.00    +0.000 A 
ATOM     19  C   UNL     1       2.004   7.543  19.954  0.00  0.00    +0.000 A 
ATOM     20  N   UNL     1       1.819   8.655  19.176  0.00  0.00    +0.000 NA
ATOM     21  C   UNL     1       2.142   8.281  17.957  0.00  0.00    +0.000 A 
ATOM     22  N   UNL     1       2.516   6.973  17.923  0.00  0.00    +0.000 N 
ATOM     23  H   UNL     1       2.798   6.451  17.101  0.00  0.00    +0.000 HD
ENDBRANCH  17  18
ENDBRANCH  13  17
ENDBRANCH   1  13
TORSDOF 5
ENDMDL
MODEL 9
REMARK VINA RESULT:      -7.7      2.848      7.985
REMARK  Name = 
REMARK  7 active torsions:
REMARK  status: ('A' for Active; 'I' for Inactive)
REMARK    1  A    between atoms: C_1  and  C_2
REMARK    2  A    between atoms: C_2  and  C_3
REMARK    3  A    between atoms: C_2  and  N_4
REMARK    4  A    between atoms: N_4  and  C_5
REMARK    5  A    between atoms: N_4  and  C_11
REMARK    6  A    between atoms: C_5  and  C_6
REMARK    7  A    between atoms: C_15  and  C_16
REMARK                            x       y       z     vdW  Elec       q    Type
REMARK                         _______ _______ _______ _____ _____    ______ ____
ROOT
ATOM      1  C   UNL     1       2.831   6.789  18.967  0.00  0.00    +0.000 A 
ATOM      2  C   UNL     1       2.934   7.457  17.737  0.00  0.00    +0.000 A 
ATOM      3  C   UNL     1       2.341   8.700  17.526  0.00  0.00    +0.000 A 
ATOM      4  C   UNL     1       1.603   9.301  18.545  0.00  0.00    +0.000 A 
ATOM      5  C   UNL     1       1.473   8.688  19.798  0.00  0.00    +0.000 A 
ATOM      6  C   UNL     1       2.117   7.443  19.981  0.00  0.00    +0.000 A 
ENDROOT
BRANCH   5   7
ATOM      7  C   UNL     1       0.681   9.305  20.890  0.00  0.00    +0.000 A 
ATOM      8  C   UNL     1       0.787   8.850  22.219  0.00  0.00    +0.000 A 
ATOM      9  C   UNL     1       0.071   9.450  23.258  0.00  0.00    +0.000 A 
ATOM     10  C   UNL     1      -0.788  10.507  22.990  0.00  0.00    +0.000 A 
ATOM     11  C   UNL     1      -0.932  10.966  21.685  0.00  0.00    +0.000 A 
ATOM     12  C   UNL     1      -0.202  10.373  20.648  0.00  0.00    +0.000 A 
ENDBRANCH   5   7
BRANCH   1  13
ATOM     13  N   UNL     1       3.419   5.540  19.173  0.00  0.00    +0.000 N 
BRANCH  13  15
ATOM     14  C   UNL     1       2.231   4.037  17.591  0.00  0.00    +0.000 C 
ATOM     15  C   UNL     1       2.574   4.332  19.047  0.00  0.00    +0.000 C 
ATOM     16  C   UNL     1       3.168   3.105  19.750  0.00  0.00    +0.000 C 
ENDBRANCH  13  15
BRANCH  13  17
ATOM     17  C   UNL     1       4.876   5.427  19.384  0.00  0.00    +0.000 C 
BRANCH  17  18
ATOM     18  C   UNL     1       5.731   5.352  18.166  0.00  0.00    +0.000 A 
ATOM     19  C   UNL     1       6.438   6.323  17.478  0.00  0.00    +0.000 A 
ATOM     20  N   UNL     1       7.083   5.791  16.394  0.00  0.00    +0.000 NA
ATOM     21  C   UNL     1       6.769   4.514  16.398  0.00  0.00    +0.000 A 
ATOM     22  N   UNL     1       5.942   4.210  17.436  0.00  0.00    +0.000 N 
ATOM     23  H   UNL     1       5.554   3.297  17.646  0.00  0.00    +0.000 HD
ENDBRANCH  17  18
ENDBRANCH  13  17
ENDBRANCH   1  13
TORSDOF 5
ENDMDL
