MODEL 1
REMARK VINA RESULT:      -8.5      0.000      0.000
REMARK  Name = 
REMARK  5 active torsions:
REMARK  status: ('A' for Active; 'I' for Inactive)
REMARK    1  A    between atoms: C_1  and  C_2
REMARK    2  A    between atoms: C_2  and  C_3
REMARK    3  A    between atoms: N_10  and  C_11
REMARK    4  A    between atoms: C_14  and  O_15
REMARK    5  A    between atoms: O_15  and  C_16
REMARK                            x       y       z     vdW  Elec       q    Type
REMARK                         _______ _______ _______ _____ _____    ______ ____
ROOT
ATOM      1  C   UNL     1       1.420   3.789  18.337  0.00  0.00    +0.000 C 
ATOM      2  C   UNL     1       2.322   3.904  19.576  0.00  0.00    +0.000 C 
ATOM      3  C   UNL     1       1.435   3.929  20.841  0.00  0.00    +0.000 C 
ATOM      4  N   UNL     1       3.054   2.650  19.662  0.00  0.00    +0.000 NA
ATOM      5  C   UNL     1       4.322   2.525  19.601  0.00  0.00    +0.000 C 
ATOM      6  N   UNL     1       4.911   1.241  19.710  0.00  0.00    +0.000 N 
ATOM      7  N   UNL     1       5.142   3.655  19.426  0.00  0.00    +0.000 NA
ATOM      8  C   UNL     1       4.670   4.848  19.335  0.00  0.00    +0.000 C 
ATOM      9  N   UNL     1       5.633   5.892  19.207  0.00  0.00    +0.000 N 
ATOM     10  N   UNL     1       3.236   5.087  19.421  0.00  0.00    +0.000 N 
ATOM     11  H   UNL     1       4.320   0.407  19.852  0.00  0.00    +0.000 HD
ATOM     12  H   UNL     1       5.932   1.130  19.657  0.00  0.00    +0.000 HD
ATOM     13  H   UNL     1       6.626   5.648  19.076  0.00  0.00    +0.000 HD
ATOM     14  H   UNL     1       5.409   6.889  19.300  0.00  0.00    +0.000 HD
ENDROOT
BRANCH  10  15
ATOM     15  C   UNL     1       2.708   6.430  19.208  0.00  0.00    +0.000 A 
ATOM     16  C   UNL     1       2.866   7.099  17.967  0.00  0.00    +0.000 A 
ATOM     17  C   UNL     1       2.365   8.395  17.764  0.00  0.00    +0.000 A 
ATOM     18  C   UNL     1       1.657   9.043  18.776  0.00  0.00    +0.000 A 
ATOM     19  C   UNL     1       1.491   8.400  20.005  0.00  0.00    +0.000 A 
ATOM     20  C   UNL     1       2.013   7.130  20.218  0.00  0.00    +0.000 A 
BRANCH  18  21
ATOM     21  O   UNL     1       1.155  10.287  18.564  0.00  0.00    +0.000 OA
BRANCH  21  22
ATOM     22  C   UNL     1      -0.168  10.597  18.493  0.00  0.00    +0.000 A 
ATOM     23  C   UNL     1      -0.668  11.653  19.265  0.00  0.00    +0.000 A 
ATOM     24  C   UNL     1      -2.024  11.997  19.198  0.00  0.00    +0.000 A 
ATOM     25  C   UNL     1      -2.886  11.294  18.350  0.00  0.00    +0.000 A 
ATOM     26  C   UNL     1      -2.396  10.244  17.572  0.00  0.00    +0.000 A 
ATOM     27  C   UNL     1      -1.045   9.895  17.640  0.00  0.00    +0.000 A 
ENDBRANCH  21  22
ENDBRANCH  18  21
ENDBRANCH  10  15
TORSDOF 3
ENDMDL
MODEL 2
REMARK VINA RESULT:      -8.5      0.430      1.094
REMARK  Name = 
REMARK  5 active torsions:
REMARK  status: ('A' for Active; 'I' for Inactive)
REMARK    1  A    between atoms: C_1  and  C_2
REMARK    2  A    between atoms: C_2  and  C_3
REMARK    3  A    between atoms: N_10  and  C_11
REMARK    4  A    between atoms: C_14  and  O_15
REMARK    5  A    between atoms: O_15  and  C_16
REMARK                            x       y       z     vdW  Elec       q    Type
REMARK                         _______ _______ _______ _____ _____    ______ ____
ROOT
ATOM      1  C   UNL     1       1.261   3.756  17.928  0.00  0.00    +0.000 C 
ATOM      2  C   UNL     1       2.064   3.657  19.234  0.00  0.00    +0.000 C 
ATOM      3  C   UNL     1       1.079   3.552  20.420  0.00  0.00    +0.000 C 
ATOM      4  N   UNL     1       2.737   2.367  19.199  0.00  0.00    +0.000 NA
ATOM      5  C   UNL     1       4.000   2.189  19.216  0.00  0.00    +0.000 C 
ATOM      6  N   UNL     1       4.527   0.874  19.187  0.00  0.00    +0.000 N 
ATOM      7  N   UNL     1       4.875   3.289  19.263  0.00  0.00    +0.000 NA
ATOM      8  C   UNL     1       4.459   4.506  19.305  0.00  0.00    +0.000 C 
ATOM      9  N   UNL     1       5.469   5.508  19.396  0.00  0.00    +0.000 N 
ATOM     10  N   UNL     1       3.033   4.802  19.315  0.00  0.00    +0.000 N 
ATOM     11  H   UNL     1       3.895   0.059  19.167  0.00  0.00    +0.000 HD
ATOM     12  H   UNL     1       5.544   0.720  19.196  0.00  0.00    +0.000 HD
ATOM     13  H   UNL     1       6.459   5.234  19.307  0.00  0.00    +0.000 HD
ATOM     14  H   UNL     1       5.278   6.492  19.611  0.00  0.00    +0.000 HD
ENDROOT
BRANCH  10  15
ATOM     15  C   UNL     1       2.577   6.187  19.254  0.00  0.00    +0.000 A 
ATOM     16  C   UNL     1       2.665   6.942  18.056  0.00  0.00    +0.000 A 
ATOM     17  C   UNL     1       2.234   8.276  17.998  0.00  0.00    +0.000 A 
ATOM     18  C   UNL     1       1.664   8.883  19.118  0.00  0.00    +0.000 A 
ATOM     19  C   UNL     1       1.570   8.154  20.307  0.00  0.00    +0.000 A 
ATOM     20  C   UNL     1       2.025   6.843  20.375  0.00  0.00    +0.000 A 
BRANCH  18  21
ATOM     21  O   UNL     1       1.228  10.166  19.048  0.00  0.00    +0.000 OA
BRANCH  21  22
ATOM     22  C   UNL     1      -0.054  10.546  18.796  0.00  0.00    +0.000 A 
ATOM     23  C   UNL     1      -0.783   9.885  17.800  0.00  0.00    +0.000 A 
ATOM     24  C   UNL     1      -2.108  10.253  17.534  0.00  0.00    +0.000 A 
ATOM     25  C   UNL     1      -2.716  11.275  18.269  0.00  0.00    +0.000 A 
ATOM     26  C   UNL     1      -1.999  11.935  19.269  0.00  0.00    +0.000 A 
ATOM     27  C   UNL     1      -0.676  11.576  19.534  0.00  0.00    +0.000 A 
ENDBRANCH  21  22
ENDBRANCH  18  21
ENDBRANCH  10  15
TORSDOF 3
ENDMDL
MODEL 3
REMARK VINA RESULT:      -8.4      0.449      1.096
REMARK  Name = 
REMARK  5 active torsions:
REMARK  status: ('A' for Active; 'I' for Inactive)
REMARK    1  A    between atoms: C_1  and  C_2
REMARK    2  A    between atoms: C_2  and  C_3
REMARK    3  A    between atoms: N_10  and  C_11
REMARK    4  A    between atoms: C_14  and  O_15
REMARK    5  A    between atoms: O_15  and  C_16
REMARK                            x       y       z     vdW  Elec       q    Type
REMARK                         _______ _______ _______ _____ _____    ______ ____
ROOT
ATOM      1  C   UNL     1       1.236   3.732  17.956  0.00  0.00    +0.000 C 
ATOM      2  C   UNL     1       2.054   3.644  19.254  0.00  0.00    +0.000 C 
ATOM      3  C   UNL     1       1.083   3.537  20.451  0.00  0.00    +0.000 C 
ATOM      4  N   UNL     1       2.735   2.359  19.217  0.00  0.00    +0.000 NA
ATOM      5  C   UNL     1       3.999   2.189  19.221  0.00  0.00    +0.000 C 
ATOM      6  N   UNL     1       4.536   0.877  19.192  0.00  0.00    +0.000 N 
ATOM      7  N   UNL     1       4.868   3.296  19.254  0.00  0.00    +0.000 NA
ATOM      8  C   UNL     1       4.444   4.509  19.295  0.00  0.00    +0.000 C 
ATOM      9  N   UNL     1       5.447   5.519  19.372  0.00  0.00    +0.000 N 
ATOM     10  N   UNL     1       3.016   4.796  19.320  0.00  0.00    +0.000 N 
ATOM     11  H   UNL     1       3.908   0.058  19.182  0.00  0.00    +0.000 HD
ATOM     12  H   UNL     1       5.553   0.731  19.190  0.00  0.00    +0.000 HD
ATOM     13  H   UNL     1       6.439   5.251  19.273  0.00  0.00    +0.000 HD
ATOM     14  H   UNL     1       5.252   6.503  19.584  0.00  0.00    +0.000 HD
ENDROOT
BRANCH  10  15
ATOM     15  C   UNL     1       2.549   6.177  19.258  0.00  0.00    +0.000 A 
ATOM     16  C   UNL     1       2.018   6.830  20.401  0.00  0.00    +0.000 A 
ATOM     17  C   UNL     1       1.563   8.156  20.340  0.00  0.00    +0.000 A 
ATOM     18  C   UNL     1       1.660   8.882  19.153  0.00  0.00    +0.000 A 
ATOM     19  C   UNL     1       2.179   8.255  18.017  0.00  0.00    +0.000 A 
ATOM     20  C   UNL     1       2.603   6.933  18.067  0.00  0.00    +0.000 A 
BRANCH  18  21
ATOM     21  O   UNL     1       1.238  10.172  19.108  0.00  0.00    +0.000 OA
BRANCH  21  22
ATOM     22  C   UNL     1      -0.043  10.570  18.884  0.00  0.00    +0.000 A 
ATOM     23  C   UNL     1      -0.571  11.636  19.622  0.00  0.00    +0.000 A 
ATOM     24  C   UNL     1      -1.884  12.070  19.398  0.00  0.00    +0.000 A 
ATOM     25  C   UNL     1      -2.674  11.447  18.427  0.00  0.00    +0.000 A 
ATOM     26  C   UNL     1      -2.155  10.388  17.680  0.00  0.00    +0.000 A 
ATOM     27  C   UNL     1      -0.848   9.949  17.904  0.00  0.00    +0.000 A 
ENDBRANCH  21  22
ENDBRANCH  18  21
ENDBRANCH  10  15
TORSDOF 3
ENDMDL
MODEL 4
REMARK VINA RESULT:      -8.4      0.365      1.465
REMARK  Name = 
REMARK  5 active torsions:
REMARK  status: ('A' for Active; 'I' for Inactive)
REMARK    1  A    between atoms: C_1  and  C_2
REMARK    2  A    between atoms: C_2  and  C_3
REMARK    3  A    between atoms: N_10  and  C_11
REMARK    4  A    between atoms: C_14  and  O_15
REMARK    5  A    between atoms: O_15  and  C_16
REMARK                            x       y       z     vdW  Elec       q    Type
REMARK                         _______ _______ _______ _____ _____    ______ ____
ROOT
ATOM      1  C   UNL     1       1.287   3.670  18.089  0.00  0.00    +0.000 C 
ATOM      2  C   UNL     1       2.129   3.640  19.374  0.00  0.00    +0.000 C 
ATOM      3  C   UNL     1       1.182   3.569  20.593  0.00  0.00    +0.000 C 
ATOM      4  N   UNL     1       2.824   2.362  19.373  0.00  0.00    +0.000 NA
ATOM      5  C   UNL     1       4.090   2.206  19.359  0.00  0.00    +0.000 C 
ATOM      6  N   UNL     1       4.641   0.900  19.370  0.00  0.00    +0.000 N 
ATOM      7  N   UNL     1       4.946   3.323  19.333  0.00  0.00    +0.000 NA
ATOM      8  C   UNL     1       4.509   4.532  19.336  0.00  0.00    +0.000 C 
ATOM      9  N   UNL     1       5.503   5.554  19.355  0.00  0.00    +0.000 N 
ATOM     10  N   UNL     1       3.079   4.804  19.378  0.00  0.00    +0.000 N 
ATOM     11  H   UNL     1       4.023   0.075  19.403  0.00  0.00    +0.000 HD
ATOM     12  H   UNL     1       5.660   0.765  19.354  0.00  0.00    +0.000 HD
ATOM     13  H   UNL     1       6.495   5.294  19.248  0.00  0.00    +0.000 HD
ATOM     14  H   UNL     1       5.300   6.544  19.534  0.00  0.00    +0.000 HD
ENDROOT
BRANCH  10  15
ATOM     15  C   UNL     1       2.596   6.177  19.272  0.00  0.00    +0.000 A 
ATOM     16  C   UNL     1       2.024   6.848  20.385  0.00  0.00    +0.000 A 
ATOM     17  C   UNL     1       1.553   8.165  20.283  0.00  0.00    +0.000 A 
ATOM     18  C   UNL     1       1.673   8.866  19.082  0.00  0.00    +0.000 A 
ATOM     19  C   UNL     1       2.232   8.222  17.976  0.00  0.00    +0.000 A 
ATOM     20  C   UNL     1       2.672   6.907  18.067  0.00  0.00    +0.000 A 
BRANCH  18  21
ATOM     21  O   UNL     1       1.235  10.149  18.997  0.00  0.00    +0.000 OA
BRANCH  21  22
ATOM     22  C   UNL     1      -0.055  10.524  18.782  0.00  0.00    +0.000 A 
ATOM     23  C   UNL     1      -0.789   9.906  17.762  0.00  0.00    +0.000 A 
ATOM     24  C   UNL     1      -2.122  10.269  17.532  0.00  0.00    +0.000 A 
ATOM     25  C   UNL     1      -2.733  11.243  18.327  0.00  0.00    +0.000 A 
ATOM     26  C   UNL     1      -2.012  11.860  19.352  0.00  0.00    +0.000 A 
ATOM     27  C   UNL     1      -0.681  11.504  19.581  0.00  0.00    +0.000 A 
ENDBRANCH  21  22
ENDBRANCH  18  21
ENDBRANCH  10  15
TORSDOF 3
ENDMDL
MODEL 5
REMARK VINA RESULT:      -8.0      4.370      7.289
REMARK  Name = 
REMARK  5 active torsions:
REMARK  status: ('A' for Active; 'I' for Inactive)
REMARK    1  A    between atoms: C_1  and  C_2
REMARK    2  A    between atoms: C_2  and  C_3
REMARK    3  A    between atoms: N_10  and  C_11
REMARK    4  A    between atoms: C_14  and  O_15
REMARK    5  A    between atoms: O_15  and  C_16
REMARK                            x       y       z     vdW  Elec       q    Type
REMARK                         _______ _______ _______ _____ _____    ______ ____
ROOT
ATOM      1  C   UNL     1       1.476   4.347  18.432  0.00  0.00    +0.000 C 
ATOM      2  C   UNL     1       2.283   4.485  19.733  0.00  0.00    +0.000 C 
ATOM      3  C   UNL     1       2.368   5.980  20.113  0.00  0.00    +0.000 C 
ATOM      4  N   UNL     1       1.471   3.884  20.780  0.00  0.00    +0.000 NA
ATOM      5  C   UNL     1       1.803   2.878  21.490  0.00  0.00    +0.000 C 
ATOM      6  N   UNL     1       0.920   2.396  22.488  0.00  0.00    +0.000 N 
ATOM      7  N   UNL     1       3.043   2.242  21.292  0.00  0.00    +0.000 NA
ATOM      8  C   UNL     1       3.894   2.639  20.413  0.00  0.00    +0.000 C 
ATOM      9  N   UNL     1       5.123   1.919  20.365  0.00  0.00    +0.000 N 
ATOM     10  N   UNL     1       3.609   3.796  19.575  0.00  0.00    +0.000 N 
ATOM     11  H   UNL     1       0.014   2.863  22.652  0.00  0.00    +0.000 HD
ATOM     12  H   UNL     1       1.177   1.583  23.063  0.00  0.00    +0.000 HD
ATOM     13  H   UNL     1       5.229   1.065  20.932  0.00  0.00    +0.000 HD
ATOM     14  H   UNL     1       5.948   2.233  19.841  0.00  0.00    +0.000 HD
ENDROOT
BRANCH  10  15
ATOM     15  C   UNL     1       4.535   4.169  18.511  0.00  0.00    +0.000 A 
ATOM     16  C   UNL     1       5.608   5.068  18.746  0.00  0.00    +0.000 A 
ATOM     17  C   UNL     1       6.495   5.434  17.721  0.00  0.00    +0.000 A 
ATOM     18  C   UNL     1       6.364   4.884  16.446  0.00  0.00    +0.000 A 
ATOM     19  C   UNL     1       5.313   3.998  16.195  0.00  0.00    +0.000 A 
ATOM     20  C   UNL     1       4.416   3.658  17.201  0.00  0.00    +0.000 A 
BRANCH  18  21
ATOM     21  O   UNL     1       7.239   5.225  15.465  0.00  0.00    +0.000 OA
BRANCH  21  22
ATOM     22  C   UNL     1       7.135   4.860  14.159  0.00  0.00    +0.000 A 
ATOM     23  C   UNL     1       7.901   5.528  13.196  0.00  0.00    +0.000 A 
ATOM     24  C   UNL     1       7.817   5.159  11.847  0.00  0.00    +0.000 A 
ATOM     25  C   UNL     1       6.976   4.113  11.455  0.00  0.00    +0.000 A 
ATOM     26  C   UNL     1       6.213   3.436  12.409  0.00  0.00    +0.000 A 
ATOM     27  C   UNL     1       6.290   3.804  13.754  0.00  0.00    +0.000 A 
ENDBRANCH  21  22
ENDBRANCH  18  21
ENDBRANCH  10  15
TORSDOF 3
ENDMDL
MODEL 6
REMARK VINA RESULT:      -8.0      4.351      7.245
REMARK  Name = 
REMARK  5 active torsions:
REMARK  status: ('A' for Active; 'I' for Inactive)
REMARK    1  A    between atoms: C_1  and  C_2
REMARK    2  A    between atoms: C_2  and  C_3
REMARK    3  A    between atoms: N_10  and  C_11
REMARK    4  A    between atoms: C_14  and  O_15
REMARK    5  A    between atoms: O_15  and  C_16
REMARK                            x       y       z     vdW  Elec       q    Type
REMARK                         _______ _______ _______ _____ _____    ______ ____
ROOT
ATOM      1  C   UNL     1       1.458   4.328  18.440  0.00  0.00    +0.000 C 
ATOM      2  C   UNL     1       2.260   4.474  19.743  0.00  0.00    +0.000 C 
ATOM      3  C   UNL     1       2.330   5.970  20.123  0.00  0.00    +0.000 C 
ATOM      4  N   UNL     1       1.449   3.866  20.788  0.00  0.00    +0.000 NA
ATOM      5  C   UNL     1       1.787   2.864  21.500  0.00  0.00    +0.000 C 
ATOM      6  N   UNL     1       0.904   2.375  22.495  0.00  0.00    +0.000 N 
ATOM      7  N   UNL     1       3.033   2.238  21.307  0.00  0.00    +0.000 NA
ATOM      8  C   UNL     1       3.884   2.642  20.431  0.00  0.00    +0.000 C 
ATOM      9  N   UNL     1       5.120   1.933  20.388  0.00  0.00    +0.000 N 
ATOM     10  N   UNL     1       3.592   3.796  19.591  0.00  0.00    +0.000 N 
ATOM     11  H   UNL     1      -0.006   2.834  22.655  0.00  0.00    +0.000 HD
ATOM     12  H   UNL     1       1.166   1.565  23.071  0.00  0.00    +0.000 HD
ATOM     13  H   UNL     1       5.231   1.080  20.956  0.00  0.00    +0.000 HD
ATOM     14  H   UNL     1       5.943   2.254  19.867  0.00  0.00    +0.000 HD
ENDROOT
BRANCH  10  15
ATOM     15  C   UNL     1       4.519   4.177  18.530  0.00  0.00    +0.000 A 
ATOM     16  C   UNL     1       4.354   3.709  17.200  0.00  0.00    +0.000 A 
ATOM     17  C   UNL     1       5.248   4.068  16.181  0.00  0.00    +0.000 A 
ATOM     18  C   UNL     1       6.308   4.936  16.446  0.00  0.00    +0.000 A 
ATOM     19  C   UNL     1       6.487   5.407  17.750  0.00  0.00    +0.000 A 
ATOM     20  C   UNL     1       5.620   5.028  18.767  0.00  0.00    +0.000 A 
BRANCH  18  21
ATOM     21  O   UNL     1       7.157   5.298  15.450  0.00  0.00    +0.000 OA
BRANCH  21  22
ATOM     22  C   UNL     1       7.075   4.876  14.159  0.00  0.00    +0.000 A 
ATOM     23  C   UNL     1       7.858   5.501  13.181  0.00  0.00    +0.000 A 
ATOM     24  C   UNL     1       7.798   5.074  11.848  0.00  0.00    +0.000 A 
ATOM     25  C   UNL     1       6.962   4.012  11.488  0.00  0.00    +0.000 A 
ATOM     26  C   UNL     1       6.182   3.378  12.457  0.00  0.00    +0.000 A 
ATOM     27  C   UNL     1       6.236   3.804  13.785  0.00  0.00    +0.000 A 
ENDBRANCH  21  22
ENDBRANCH  18  21
ENDBRANCH  10  15
TORSDOF 3
ENDMDL
MODEL 7
REMARK VINA RESULT:      -7.9      4.336      7.288
REMARK  Name = 
REMARK  5 active torsions:
REMARK  status: ('A' for Active; 'I' for Inactive)
REMARK    1  A    between atoms: C_1  and  C_2
REMARK    2  A    between atoms: C_2  and  C_3
REMARK    3  A    between atoms: N_10  and  C_11
REMARK    4  A    between atoms: C_14  and  O_15
REMARK    5  A    between atoms: O_15  and  C_16
REMARK                            x       y       z     vdW  Elec       q    Type
REMARK                         _______ _______ _______ _____ _____    ______ ____
ROOT
ATOM      1  C   UNL     1       1.407   4.269  18.420  0.00  0.00    +0.000 C 
ATOM      2  C   UNL     1       2.200   4.448  19.724  0.00  0.00    +0.000 C 
ATOM      3  C   UNL     1       2.236   5.950  20.086  0.00  0.00    +0.000 C 
ATOM      4  N   UNL     1       1.399   3.836  20.773  0.00  0.00    +0.000 NA
ATOM      5  C   UNL     1       1.755   2.850  21.499  0.00  0.00    +0.000 C 
ATOM      6  N   UNL     1       0.879   2.354  22.496  0.00  0.00    +0.000 N 
ATOM      7  N   UNL     1       3.015   2.250  21.318  0.00  0.00    +0.000 NA
ATOM      8  C   UNL     1       3.861   2.662  20.441  0.00  0.00    +0.000 C 
ATOM      9  N   UNL     1       5.112   1.980  20.411  0.00  0.00    +0.000 N 
ATOM     10  N   UNL     1       3.547   3.798  19.585  0.00  0.00    +0.000 N 
ATOM     11  H   UNL     1      -0.041   2.795  22.647  0.00  0.00    +0.000 HD
ATOM     12  H   UNL     1       1.157   1.557  23.083  0.00  0.00    +0.000 HD
ATOM     13  H   UNL     1       5.239   1.136  20.991  0.00  0.00    +0.000 HD
ATOM     14  H   UNL     1       5.931   2.312  19.890  0.00  0.00    +0.000 HD
ENDROOT
BRANCH  10  15
ATOM     15  C   UNL     1       4.470   4.186  18.523  0.00  0.00    +0.000 A 
ATOM     16  C   UNL     1       5.534   5.094  18.763  0.00  0.00    +0.000 A 
ATOM     17  C   UNL     1       6.418   5.474  17.741  0.00  0.00    +0.000 A 
ATOM     18  C   UNL     1       6.292   4.930  16.462  0.00  0.00    +0.000 A 
ATOM     19  C   UNL     1       5.249   4.035  16.207  0.00  0.00    +0.000 A 
ATOM     20  C   UNL     1       4.355   3.681  17.210  0.00  0.00    +0.000 A 
BRANCH  18  21
ATOM     21  O   UNL     1       7.164   5.284  15.484  0.00  0.00    +0.000 OA
BRANCH  21  22
ATOM     22  C   UNL     1       7.101   4.871  14.190  0.00  0.00    +0.000 A 
ATOM     23  C   UNL     1       6.250   3.812  13.847  0.00  0.00    +0.000 A 
ATOM     24  C   UNL     1       6.161   3.379  12.518  0.00  0.00    +0.000 A 
ATOM     25  C   UNL     1       6.913   4.009  11.522  0.00  0.00    +0.000 A 
ATOM     26  C   UNL     1       7.759   5.070  11.852  0.00  0.00    +0.000 A 
ATOM     27  C   UNL     1       7.855   5.501  13.176  0.00  0.00    +0.000 A 
ENDBRANCH  21  22
ENDBRANCH  18  21
ENDBRANCH  10  15
TORSDOF 3
ENDMDL
MODEL 8
REMARK VINA RESULT:      -7.9      4.354      7.275
REMARK  Name = 
REMARK  5 active torsions:
REMARK  status: ('A' for Active; 'I' for Inactive)
REMARK    1  A    between atoms: C_1  and  C_2
REMARK    2  A    between atoms: C_2  and  C_3
REMARK    3  A    between atoms: N_10  and  C_11
REMARK    4  A    between atoms: C_14  and  O_15
REMARK    5  A    between atoms: O_15  and  C_16
REMARK                            x       y       z     vdW  Elec       q    Type
REMARK                         _______ _______ _______ _____ _____    ______ ____
ROOT
ATOM      1  C   UNL     1       1.483   4.398  18.439  0.00  0.00    +0.000 C 
ATOM      2  C   UNL     1       2.293   4.518  19.740  0.00  0.00    +0.000 C 
ATOM      3  C   UNL     1       2.385   6.009  20.136  0.00  0.00    +0.000 C 
ATOM      4  N   UNL     1       1.479   3.910  20.782  0.00  0.00    +0.000 NA
ATOM      5  C   UNL     1       1.807   2.895  21.481  0.00  0.00    +0.000 C 
ATOM      6  N   UNL     1       0.922   2.407  22.475  0.00  0.00    +0.000 N 
ATOM      7  N   UNL     1       3.043   2.255  21.274  0.00  0.00    +0.000 NA
ATOM      8  C   UNL     1       3.895   2.657  20.398  0.00  0.00    +0.000 C 
ATOM      9  N   UNL     1       5.120   1.932  20.341  0.00  0.00    +0.000 N 
ATOM     10  N   UNL     1       3.614   3.824  19.573  0.00  0.00    +0.000 N 
ATOM     11  H   UNL     1       0.019   2.877  22.645  0.00  0.00    +0.000 HD
ATOM     12  H   UNL     1       1.176   1.587  23.040  0.00  0.00    +0.000 HD
ATOM     13  H   UNL     1       5.223   1.071  20.899  0.00  0.00    +0.000 HD
ATOM     14  H   UNL     1       5.946   2.247  19.820  0.00  0.00    +0.000 HD
ENDROOT
BRANCH  10  15
ATOM     15  C   UNL     1       4.541   4.204  18.511  0.00  0.00    +0.000 A 
ATOM     16  C   UNL     1       4.399   3.703  17.191  0.00  0.00    +0.000 A 
ATOM     17  C   UNL     1       5.294   4.062  16.171  0.00  0.00    +0.000 A 
ATOM     18  C   UNL     1       6.330   4.962  16.427  0.00  0.00    +0.000 A 
ATOM     19  C   UNL     1       6.486   5.465  17.721  0.00  0.00    +0.000 A 
ATOM     20  C   UNL     1       5.619   5.087  18.739  0.00  0.00    +0.000 A 
BRANCH  18  21
ATOM     21  O   UNL     1       7.178   5.322  15.429  0.00  0.00    +0.000 OA
BRANCH  21  22
ATOM     22  C   UNL     1       7.108   4.882  14.144  0.00  0.00    +0.000 A 
ATOM     23  C   UNL     1       6.237   3.834  13.823  0.00  0.00    +0.000 A 
ATOM     24  C   UNL     1       6.141   3.374  12.503  0.00  0.00    +0.000 A 
ATOM     25  C   UNL     1       6.908   3.967  11.495  0.00  0.00    +0.000 A 
ATOM     26  C   UNL     1       7.775   5.017  11.804  0.00  0.00    +0.000 A 
ATOM     27  C   UNL     1       7.877   5.474  13.119  0.00  0.00    +0.000 A 
ENDBRANCH  21  22
ENDBRANCH  18  21
ENDBRANCH  10  15
TORSDOF 3
ENDMDL
MODEL 9
REMARK VINA RESULT:      -7.9      0.692      1.377
REMARK  Name = 
REMARK  5 active torsions:
REMARK  status: ('A' for Active; 'I' for Inactive)
REMARK    1  A    between atoms: C_1  and  C_2
REMARK    2  A    between atoms: C_2  and  C_3
REMARK    3  A    between atoms: N_10  and  C_11
REMARK    4  A    between atoms: C_14  and  O_15
REMARK    5  A    between atoms: O_15  and  C_16
REMARK                            x       y       z     vdW  Elec       q    Type
REMARK                         _______ _______ _______ _____ _____    ______ ____
ROOT
ATOM      1  C   UNL     1       1.586   3.700  18.197  0.00  0.00    +0.000 C 
ATOM      2  C   UNL     1       2.419   3.829  19.482  0.00  0.00    +0.000 C 
ATOM      3  C   UNL     1       1.462   3.893  20.694  0.00  0.00    +0.000 C 
ATOM      4  N   UNL     1       3.125   2.566  19.636  0.00  0.00    +0.000 NA
ATOM      5  C   UNL     1       4.392   2.422  19.648  0.00  0.00    +0.000 C 
ATOM      6  N   UNL     1       4.954   1.132  19.816  0.00  0.00    +0.000 N 
ATOM      7  N   UNL     1       5.239   3.536  19.498  0.00  0.00    +0.000 NA
ATOM      8  C   UNL     1       4.791   4.733  19.356  0.00  0.00    +0.000 C 
ATOM      9  N   UNL     1       5.776   5.760  19.262  0.00  0.00    +0.000 N 
ATOM     10  N   UNL     1       3.358   4.994  19.356  0.00  0.00    +0.000 N 
ATOM     11  H   UNL     1       4.343   0.310  19.942  0.00  0.00    +0.000 HD
ATOM     12  H   UNL     1       5.974   1.005  19.824  0.00  0.00    +0.000 HD
ATOM     13  H   UNL     1       6.771   5.498  19.192  0.00  0.00    +0.000 HD
ATOM     14  H   UNL     1       5.563   6.762  19.322  0.00  0.00    +0.000 HD
ENDROOT
BRANCH  10  15
ATOM     15  C   UNL     1       2.864   6.341  19.086  0.00  0.00    +0.000 A 
ATOM     16  C   UNL     1       3.076   6.969  17.832  0.00  0.00    +0.000 A 
ATOM     17  C   UNL     1       2.608   8.267  17.574  0.00  0.00    +0.000 A 
ATOM     18  C   UNL     1       1.880   8.959  18.543  0.00  0.00    +0.000 A 
ATOM     19  C   UNL     1       1.662   8.356  19.784  0.00  0.00    +0.000 A 
ATOM     20  C   UNL     1       2.151   7.084  20.052  0.00  0.00    +0.000 A 
BRANCH  18  21
ATOM     21  O   UNL     1       1.410  10.205  18.278  0.00  0.00    +0.000 OA
BRANCH  21  22
ATOM     22  C   UNL     1       0.473  10.862  19.013  0.00  0.00    +0.000 A 
ATOM     23  C   UNL     1      -0.875  10.778  18.642  0.00  0.00    +0.000 A 
ATOM     24  C   UNL     1      -1.857  11.436  19.392  0.00  0.00    +0.000 A 
ATOM     25  C   UNL     1      -1.500  12.174  20.525  0.00  0.00    +0.000 A 
ATOM     26  C   UNL     1      -0.160  12.259  20.908  0.00  0.00    +0.000 A 
ATOM     27  C   UNL     1       0.823  11.608  20.159  0.00  0.00    +0.000 A 
ENDBRANCH  21  22
ENDBRANCH  18  21
ENDBRANCH  10  15
TORSDOF 3
ENDMDL
