MODEL 1
REMARK VINA RESULT:      -8.8      0.000      0.000
REMARK  Name = 
REMARK  6 active torsions:
REMARK  status: ('A' for Active; 'I' for Inactive)
REMARK    1  A    between atoms: C_1  and  C_2
REMARK    2  A    between atoms: C_2  and  C_3
REMARK    3  A    between atoms: C_2  and  N_16
REMARK    4  A    between atoms: C_3  and  N_4
REMARK    5  A    between atoms: N_4  and  C_5
REMARK    6  A    between atoms: N_16  and  C_17
REMARK                            x       y       z     vdW  Elec       q    Type
REMARK                         _______ _______ _______ _____ _____    ______ ____
ROOT
ATOM      1  C   UNL     1       2.356   4.324  20.687  0.00  0.00    +0.000 C 
ATOM      2  C   UNL     1       3.022   4.522  19.316  0.00  0.00    +0.000 C 
ENDROOT
BRANCH   2   3
ATOM      3  N   UNL     1       4.422   4.057  19.415  0.00  0.00    +0.000 N 
ATOM      4  H   UNL     1       4.489   3.046  19.411  0.00  0.00    +0.000 HD
BRANCH   3   5
ATOM      5  C   UNL     1       5.463   4.695  18.713  0.00  0.00    +0.000 A 
ATOM      6  C   UNL     1       6.439   5.415  19.406  0.00  0.00    +0.000 A 
ATOM      7  C   UNL     1       7.536   5.908  18.728  0.00  0.00    +0.000 A 
ATOM      8  N   UNL     1       7.757   5.712  17.418  0.00  0.00    +0.000 NA
ATOM      9  C   UNL     1       6.845   5.022  16.726  0.00  0.00    +0.000 A 
ATOM     10  C   UNL     1       7.115   4.812  15.383  0.00  0.00    +0.000 A 
ATOM     11  C   UNL     1       6.211   4.153  14.559  0.00  0.00    +0.000 A 
ATOM     12 CL   UNL     1       6.586   3.908  12.897  0.00  0.00    +0.000 Cl
ATOM     13  C   UNL     1       5.006   3.699  15.071  0.00  0.00    +0.000 A 
ATOM     14  C   UNL     1       4.732   3.866  16.432  0.00  0.00    +0.000 A 
ATOM     15  C   UNL     1       5.652   4.509  17.304  0.00  0.00    +0.000 A 
ENDBRANCH   3   5
ENDBRANCH   2   3
BRANCH   2  16
ATOM     16  C   UNL     1       2.941   6.037  18.967  0.00  0.00    +0.000 C 
BRANCH  16  17
ATOM     17  N   UNL     1       2.526   6.936  20.067  0.00  0.00    +0.000 N 
ATOM     18  H   UNL     1       3.247   7.069  20.765  0.00  0.00    +0.000 HD
BRANCH  17  19
ATOM     19  C   UNL     1       1.883   8.149  19.689  0.00  0.00    +0.000 A 
ATOM     20  C   UNL     1       1.929   8.580  18.357  0.00  0.00    +0.000 A 
ATOM     21  C   UNL     1       1.257   9.723  17.974  0.00  0.00    +0.000 A 
ATOM     22  N   UNL     1       0.507  10.458  18.801  0.00  0.00    +0.000 NA
ATOM     23  C   UNL     1       0.395  10.043  20.069  0.00  0.00    +0.000 A 
ATOM     24  C   UNL     1      -0.421  10.815  20.880  0.00  0.00    +0.000 A 
ATOM     25  C   UNL     1      -0.613  10.496  22.220  0.00  0.00    +0.000 A 
ATOM     26 CL   UNL     1      -1.641  11.476  23.193  0.00  0.00    +0.000 Cl
ATOM     27  C   UNL     1       0.020   9.391  22.766  0.00  0.00    +0.000 A 
ATOM     28  C   UNL     1       0.843   8.593  21.959  0.00  0.00    +0.000 A 
ATOM     29  C   UNL     1       1.056   8.895  20.588  0.00  0.00    +0.000 A 
ENDBRANCH  17  19
ENDBRANCH  16  17
ENDBRANCH   2  16
TORSDOF 5
ENDMDL
MODEL 2
REMARK VINA RESULT:      -8.4      0.592      8.595
REMARK  Name = 
REMARK  6 active torsions:
REMARK  status: ('A' for Active; 'I' for Inactive)
REMARK    1  A    between atoms: C_1  and  C_2
REMARK    2  A    between atoms: C_2  and  C_3
REMARK    3  A    between atoms: C_2  and  N_16
REMARK    4  A    between atoms: C_3  and  N_4
REMARK    5  A    between atoms: N_4  and  C_5
REMARK    6  A    between atoms: N_16  and  C_17
REMARK                            x       y       z     vdW  Elec       q    Type
REMARK                         _______ _______ _______ _____ _____    ______ ____
ROOT
ATOM      1  C   UNL     1       1.989   5.297  18.013  0.00  0.00    +0.000 C 
ATOM      2  C   UNL     1       2.293   5.622  19.484  0.00  0.00    +0.000 C 
ENDROOT
BRANCH   2   3
ATOM      3  N   UNL     1       2.864   6.984  19.543  0.00  0.00    +0.000 N 
ATOM      4  H   UNL     1       3.798   7.023  19.152  0.00  0.00    +0.000 HD
BRANCH   3   5
ATOM      5  C   UNL     1       2.087   8.124  19.262  0.00  0.00    +0.000 A 
ATOM      6  C   UNL     1       1.937   8.564  17.944  0.00  0.00    +0.000 A 
ATOM      7  C   UNL     1       1.055   9.587  17.661  0.00  0.00    +0.000 A 
ATOM      8  N   UNL     1       0.283  10.187  18.581  0.00  0.00    +0.000 NA
ATOM      9  C   UNL     1       0.398   9.787  19.851  0.00  0.00    +0.000 A 
ATOM     10  C   UNL     1      -0.431  10.405  20.773  0.00  0.00    +0.000 A 
ATOM     11  C   UNL     1      -0.359  10.103  22.127  0.00  0.00    +0.000 A 
ATOM     12 CL   UNL     1      -1.410  10.890  23.239  0.00  0.00    +0.000 Cl
ATOM     13  C   UNL     1       0.564   9.175  22.583  0.00  0.00    +0.000 A 
ATOM     14  C   UNL     1       1.383   8.511  21.665  0.00  0.00    +0.000 A 
ATOM     15  C   UNL     1       1.308   8.778  20.271  0.00  0.00    +0.000 A 
ENDBRANCH   3   5
ENDBRANCH   2   3
BRANCH   2  16
ATOM     16  C   UNL     1       3.296   4.552  20.005  0.00  0.00    +0.000 C 
BRANCH  16  17
ATOM     17  N   UNL     1       4.101   3.860  18.974  0.00  0.00    +0.000 N 
ATOM     18  H   UNL     1       3.538   3.459  18.234  0.00  0.00    +0.000 HD
BRANCH  17  19
ATOM     19  C   UNL     1       5.248   4.552  18.492  0.00  0.00    +0.000 A 
ATOM     20  C   UNL     1       6.115   5.182  19.393  0.00  0.00    +0.000 A 
ATOM     21  C   UNL     1       7.260   5.803  18.936  0.00  0.00    +0.000 A 
ATOM     22  N   UNL     1       7.637   5.817  17.654  0.00  0.00    +0.000 NA
ATOM     23  C   UNL     1       6.861   5.174  16.773  0.00  0.00    +0.000 A 
ATOM     24  C   UNL     1       7.310   5.185  15.462  0.00  0.00    +0.000 A 
ATOM     25  C   UNL     1       6.589   4.562  14.450  0.00  0.00    +0.000 A 
ATOM     26 CL   UNL     1       7.185   4.591  12.834  0.00  0.00    +0.000 Cl
ATOM     27  C   UNL     1       5.398   3.920  14.743  0.00  0.00    +0.000 A 
ATOM     28  C   UNL     1       4.931   3.891  16.064  0.00  0.00    +0.000 A 
ATOM     29  C   UNL     1       5.647   4.518  17.118  0.00  0.00    +0.000 A 
ENDBRANCH  17  19
ENDBRANCH  16  17
ENDBRANCH   2  16
TORSDOF 5
ENDMDL
MODEL 3
REMARK VINA RESULT:      -8.2      1.122      1.367
REMARK  Name = 
REMARK  6 active torsions:
REMARK  status: ('A' for Active; 'I' for Inactive)
REMARK    1  A    between atoms: C_1  and  C_2
REMARK    2  A    between atoms: C_2  and  C_3
REMARK    3  A    between atoms: C_2  and  N_16
REMARK    4  A    between atoms: C_3  and  N_4
REMARK    5  A    between atoms: N_4  and  C_5
REMARK    6  A    between atoms: N_16  and  C_17
REMARK                            x       y       z     vdW  Elec       q    Type
REMARK                         _______ _______ _______ _____ _____    ______ ____
ROOT
ATOM      1  C   UNL     1       2.981   2.604  19.291  0.00  0.00    +0.000 C 
ATOM      2  C   UNL     1       3.640   3.965  19.016  0.00  0.00    +0.000 C 
ENDROOT
BRANCH   2   3
ATOM      3  N   UNL     1       5.063   3.728  18.694  0.00  0.00    +0.000 N 
ATOM      4  H   UNL     1       5.241   2.764  18.437  0.00  0.00    +0.000 HD
BRANCH   3   5
ATOM      5  C   UNL     1       5.817   4.659  17.953  0.00  0.00    +0.000 A 
ATOM      6  C   UNL     1       6.521   5.672  18.608  0.00  0.00    +0.000 A 
ATOM      7  C   UNL     1       7.376   6.485  17.890  0.00  0.00    +0.000 A 
ATOM      8  N   UNL     1       7.613   6.347  16.575  0.00  0.00    +0.000 NA
ATOM      9  C   UNL     1       6.959   5.383  15.920  0.00  0.00    +0.000 A 
ATOM     10  C   UNL     1       7.246   5.247  14.571  0.00  0.00    +0.000 A 
ATOM     11  C   UNL     1       6.587   4.313  13.782  0.00  0.00    +0.000 A 
ATOM     12 CL   UNL     1       6.975   4.173  12.112  0.00  0.00    +0.000 Cl
ATOM     13  C   UNL     1       5.613   3.499  14.337  0.00  0.00    +0.000 A 
ATOM     14  C   UNL     1       5.336   3.592  15.705  0.00  0.00    +0.000 A 
ATOM     15  C   UNL     1       6.017   4.518  16.541  0.00  0.00    +0.000 A 
ENDBRANCH   3   5
ENDBRANCH   2   3
BRANCH   2  16
ATOM     16  C   UNL     1       3.474   4.836  20.295  0.00  0.00    +0.000 C 
BRANCH  16  17
ATOM     17  N   UNL     1       2.224   5.621  20.389  0.00  0.00    +0.000 N 
ATOM     18  H   UNL     1       1.871   5.695  21.335  0.00  0.00    +0.000 HD
BRANCH  17  19
ATOM     19  C   UNL     1       2.196   6.859  19.684  0.00  0.00    +0.000 A 
ATOM     20  C   UNL     1       2.704   6.934  18.381  0.00  0.00    +0.000 A 
ATOM     21  C   UNL     1       2.624   8.116  17.672  0.00  0.00    +0.000 A 
ATOM     22  N   UNL     1       2.044   9.226  18.139  0.00  0.00    +0.000 NA
ATOM     23  C   UNL     1       1.497   9.172  19.360  0.00  0.00    +0.000 A 
ATOM     24  C   UNL     1       0.876  10.335  19.788  0.00  0.00    +0.000 A 
ATOM     25  C   UNL     1       0.278  10.412  21.041  0.00  0.00    +0.000 A 
ATOM     26 CL   UNL     1      -0.490  11.872  21.532  0.00  0.00    +0.000 Cl
ATOM     27  C   UNL     1       0.301   9.316  21.887  0.00  0.00    +0.000 A 
ATOM     28  C   UNL     1       0.918   8.129  21.469  0.00  0.00    +0.000 A 
ATOM     29  C   UNL     1       1.535   8.021  20.195  0.00  0.00    +0.000 A 
ENDBRANCH  17  19
ENDBRANCH  16  17
ENDBRANCH   2  16
TORSDOF 5
ENDMDL
MODEL 4
REMARK VINA RESULT:      -8.2      1.196      8.022
REMARK  Name = 
REMARK  6 active torsions:
REMARK  status: ('A' for Active; 'I' for Inactive)
REMARK    1  A    between atoms: C_1  and  C_2
REMARK    2  A    between atoms: C_2  and  C_3
REMARK    3  A    between atoms: C_2  and  N_16
REMARK    4  A    between atoms: C_3  and  N_4
REMARK    5  A    between atoms: N_4  and  C_5
REMARK    6  A    between atoms: N_16  and  C_17
REMARK                            x       y       z     vdW  Elec       q    Type
REMARK                         _______ _______ _______ _____ _____    ______ ____
ROOT
ATOM      1  C   UNL     1       1.647   4.412  18.517  0.00  0.00    +0.000 C 
ATOM      2  C   UNL     1       2.829   4.194  19.475  0.00  0.00    +0.000 C 
ENDROOT
BRANCH   2   3
ATOM      3  N   UNL     1       3.290   5.518  19.942  0.00  0.00    +0.000 N 
ATOM      4  H   UNL     1       4.231   5.484  20.317  0.00  0.00    +0.000 HD
BRANCH   3   5
ATOM      5  C   UNL     1       3.012   6.695  19.219  0.00  0.00    +0.000 A 
ATOM      6  C   UNL     1       3.515   6.858  17.925  0.00  0.00    +0.000 A 
ATOM      7  C   UNL     1       3.116   7.941  17.168  0.00  0.00    +0.000 A 
ATOM      8  N   UNL     1       2.228   8.859  17.584  0.00  0.00    +0.000 NA
ATOM      9  C   UNL     1       1.724   8.729  18.815  0.00  0.00    +0.000 A 
ATOM     10  C   UNL     1       0.789   9.675  19.204  0.00  0.00    +0.000 A 
ATOM     11  C   UNL     1       0.240   9.666  20.480  0.00  0.00    +0.000 A 
ATOM     12 CL   UNL     1      -0.921  10.856  20.924  0.00  0.00    +0.000 Cl
ATOM     13  C   UNL     1       0.631   8.704  21.398  0.00  0.00    +0.000 A 
ATOM     14  C   UNL     1       1.543   7.717  21.013  0.00  0.00    +0.000 A 
ATOM     15  C   UNL     1       2.097   7.685  19.704  0.00  0.00    +0.000 A 
ENDBRANCH   3   5
ENDBRANCH   2   3
BRANCH   2  16
ATOM     16  C   UNL     1       3.940   3.441  18.688  0.00  0.00    +0.000 C 
BRANCH  16  17
ATOM     17  N   UNL     1       5.333   3.714  19.108  0.00  0.00    +0.000 N 
ATOM     18  H   UNL     1       5.856   2.874  19.320  0.00  0.00    +0.000 HD
BRANCH  17  19
ATOM     19  C   UNL     1       6.065   4.643  18.315  0.00  0.00    +0.000 A 
ATOM     20  C   UNL     1       6.801   5.663  18.932  0.00  0.00    +0.000 A 
ATOM     21  C   UNL     1       7.561   6.528  18.172  0.00  0.00    +0.000 A 
ATOM     22  N   UNL     1       7.681   6.442  16.843  0.00  0.00    +0.000 NA
ATOM     23  C   UNL     1       7.036   5.444  16.227  0.00  0.00    +0.000 A 
ATOM     24  C   UNL     1       7.218   5.372  14.855  0.00  0.00    +0.000 A 
ATOM     25  C   UNL     1       6.595   4.388  14.097  0.00  0.00    +0.000 A 
ATOM     26 CL   UNL     1       6.854   4.328  12.395  0.00  0.00    +0.000 Cl
ATOM     27  C   UNL     1       5.772   3.459  14.711  0.00  0.00    +0.000 A 
ATOM     28  C   UNL     1       5.581   3.510  16.099  0.00  0.00    +0.000 A 
ATOM     29  C   UNL     1       6.206   4.504  16.898  0.00  0.00    +0.000 A 
ENDBRANCH  17  19
ENDBRANCH  16  17
ENDBRANCH   2  16
TORSDOF 5
ENDMDL
MODEL 5
REMARK VINA RESULT:      -8.2      2.631      8.772
REMARK  Name = 
REMARK  6 active torsions:
REMARK  status: ('A' for Active; 'I' for Inactive)
REMARK    1  A    between atoms: C_1  and  C_2
REMARK    2  A    between atoms: C_2  and  C_3
REMARK    3  A    between atoms: C_2  and  N_16
REMARK    4  A    between atoms: C_3  and  N_4
REMARK    5  A    between atoms: N_4  and  C_5
REMARK    6  A    between atoms: N_16  and  C_17
REMARK                            x       y       z     vdW  Elec       q    Type
REMARK                         _______ _______ _______ _____ _____    ______ ____
ROOT
ATOM      1  C   UNL     1      -0.338   8.615  21.620  0.00  0.00    +0.000 C 
ATOM      2  C   UNL     1       1.015   9.111  21.087  0.00  0.00    +0.000 C 
ENDROOT
BRANCH   2   3
ATOM      3  N   UNL     1       0.810  10.449  20.492  0.00  0.00    +0.000 N 
ATOM      4  H   UNL     1       1.395  10.598  19.679  0.00  0.00    +0.000 HD
BRANCH   3   5
ATOM      5  C   UNL     1      -0.474  11.016  20.376  0.00  0.00    +0.000 A 
ATOM      6  C   UNL     1      -0.952  11.879  21.366  0.00  0.00    +0.000 A 
ATOM      7  C   UNL     1      -2.145  12.547  21.172  0.00  0.00    +0.000 A 
ATOM      8  N   UNL     1      -2.884  12.452  20.055  0.00  0.00    +0.000 NA
ATOM      9  C   UNL     1      -2.452  11.638  19.087  0.00  0.00    +0.000 A 
ATOM     10  C   UNL     1      -3.222  11.582  17.935  0.00  0.00    +0.000 A 
ATOM     11  C   UNL     1      -2.894  10.731  16.888  0.00  0.00    +0.000 A 
ATOM     12 CL   UNL     1      -3.873  10.695  15.473  0.00  0.00    +0.000 Cl
ATOM     13  C   UNL     1      -1.784   9.907  16.983  0.00  0.00    +0.000 A 
ATOM     14  C   UNL     1      -0.972   9.977  18.119  0.00  0.00    +0.000 A 
ATOM     15  C   UNL     1      -1.267  10.861  19.192  0.00  0.00    +0.000 A 
ENDBRANCH   3   5
ENDBRANCH   2   3
BRANCH   2  16
ATOM     16  C   UNL     1       1.513   8.081  20.032  0.00  0.00    +0.000 C 
BRANCH  16  17
ATOM     17  N   UNL     1       2.408   7.016  20.536  0.00  0.00    +0.000 N 
ATOM     18  H   UNL     1       2.415   6.948  21.546  0.00  0.00    +0.000 HD
BRANCH  17  19
ATOM     19  C   UNL     1       2.316   5.750  19.891  0.00  0.00    +0.000 A 
ATOM     20  C   UNL     1       1.302   4.853  20.250  0.00  0.00    +0.000 A 
ATOM     21  C   UNL     1       1.171   3.650  19.587  0.00  0.00    +0.000 A 
ATOM     22  N   UNL     1       1.946   3.276  18.564  0.00  0.00    +0.000 NA
ATOM     23  C   UNL     1       2.889   4.134  18.157  0.00  0.00    +0.000 A 
ATOM     24  C   UNL     1       3.644   3.721  17.071  0.00  0.00    +0.000 A 
ATOM     25  C   UNL     1       4.663   4.516  16.557  0.00  0.00    +0.000 A 
ATOM     26 CL   UNL     1       5.573   3.970  15.202  0.00  0.00    +0.000 Cl
ATOM     27  C   UNL     1       4.940   5.744  17.135  0.00  0.00    +0.000 A 
ATOM     28  C   UNL     1       4.182   6.183  18.229  0.00  0.00    +0.000 A 
ATOM     29  C   UNL     1       3.136   5.393  18.774  0.00  0.00    +0.000 A 
ENDBRANCH  17  19
ENDBRANCH  16  17
ENDBRANCH   2  16
TORSDOF 5
ENDMDL
MODEL 6
REMARK VINA RESULT:      -8.1      1.812      2.683
REMARK  Name = 
REMARK  6 active torsions:
REMARK  status: ('A' for Active; 'I' for Inactive)
REMARK    1  A    between atoms: C_1  and  C_2
REMARK    2  A    between atoms: C_2  and  C_3
REMARK    3  A    between atoms: C_2  and  N_16
REMARK    4  A    between atoms: C_3  and  N_4
REMARK    5  A    between atoms: N_4  and  C_5
REMARK    6  A    between atoms: N_16  and  C_17
REMARK                            x       y       z     vdW  Elec       q    Type
REMARK                         _______ _______ _______ _____ _____    ______ ____
ROOT
ATOM      1  C   UNL     1       1.537   2.665  21.590  0.00  0.00    +0.000 C 
ATOM      2  C   UNL     1       1.816   3.535  20.354  0.00  0.00    +0.000 C 
ENDROOT
BRANCH   2   3
ATOM      3  N   UNL     1       3.253   3.420  20.028  0.00  0.00    +0.000 N 
ATOM      4  H   UNL     1       3.692   2.643  20.508  0.00  0.00    +0.000 HD
BRANCH   3   5
ATOM      5  C   UNL     1       3.731   3.615  18.717  0.00  0.00    +0.000 A 
ATOM      6  C   UNL     1       3.067   3.034  17.634  0.00  0.00    +0.000 A 
ATOM      7  C   UNL     1       3.451   3.353  16.347  0.00  0.00    +0.000 A 
ATOM      8  N   UNL     1       4.422   4.232  16.050  0.00  0.00    +0.000 NA
ATOM      9  C   UNL     1       5.073   4.809  17.064  0.00  0.00    +0.000 A 
ATOM     10  C   UNL     1       6.051   5.732  16.726  0.00  0.00    +0.000 A 
ATOM     11  C   UNL     1       6.825   6.353  17.697  0.00  0.00    +0.000 A 
ATOM     12 CL   UNL     1       8.025   7.497  17.237  0.00  0.00    +0.000 Cl
ATOM     13  C   UNL     1       6.636   6.048  19.036  0.00  0.00    +0.000 A 
ATOM     14  C   UNL     1       5.629   5.149  19.401  0.00  0.00    +0.000 A 
ATOM     15  C   UNL     1       4.802   4.523  18.429  0.00  0.00    +0.000 A 
ENDBRANCH   3   5
ENDBRANCH   2   3
BRANCH   2  16
ATOM     16  C   UNL     1       1.421   4.998  20.708  0.00  0.00    +0.000 C 
BRANCH  16  17
ATOM     17  N   UNL     1       2.501   6.005  20.610  0.00  0.00    +0.000 N 
ATOM     18  H   UNL     1       3.397   5.604  20.362  0.00  0.00    +0.000 HD
BRANCH  17  19
ATOM     19  C   UNL     1       2.200   7.192  19.884  0.00  0.00    +0.000 A 
ATOM     20  C   UNL     1       2.466   7.259  18.511  0.00  0.00    +0.000 A 
ATOM     21  C   UNL     1       2.121   8.384  17.790  0.00  0.00    +0.000 A 
ATOM     22  N   UNL     1       1.495   9.442  18.317  0.00  0.00    +0.000 NA
ATOM     23  C   UNL     1       1.174   9.388  19.615  0.00  0.00    +0.000 A 
ATOM     24  C   UNL     1       0.494  10.490  20.109  0.00  0.00    +0.000 A 
ATOM     25  C   UNL     1       0.113  10.561  21.444  0.00  0.00    +0.000 A 
ATOM     26 CL   UNL     1      -0.737  11.945  22.016  0.00  0.00    +0.000 Cl
ATOM     27  C   UNL     1       0.415   9.521  22.307  0.00  0.00    +0.000 A 
ATOM     28  C   UNL     1       1.095   8.394  21.824  0.00  0.00    +0.000 A 
ATOM     29  C   UNL     1       1.496   8.294  20.466  0.00  0.00    +0.000 A 
ENDBRANCH  17  19
ENDBRANCH  16  17
ENDBRANCH   2  16
TORSDOF 5
ENDMDL
MODEL 7
REMARK VINA RESULT:      -8.0      2.628      4.151
REMARK  Name = 
REMARK  6 active torsions:
REMARK  status: ('A' for Active; 'I' for Inactive)
REMARK    1  A    between atoms: C_1  and  C_2
REMARK    2  A    between atoms: C_2  and  C_3
REMARK    3  A    between atoms: C_2  and  N_16
REMARK    4  A    between atoms: C_3  and  N_4
REMARK    5  A    between atoms: N_4  and  C_5
REMARK    6  A    between atoms: N_16  and  C_17
REMARK                            x       y       z     vdW  Elec       q    Type
REMARK                         _______ _______ _______ _____ _____    ______ ____
ROOT
ATOM      1  C   UNL     1       1.140   8.464  20.999  0.00  0.00    +0.000 C 
ATOM      2  C   UNL     1       1.606   8.002  19.609  0.00  0.00    +0.000 C 
ENDROOT
BRANCH   2   3
ATOM      3  N   UNL     1       2.822   7.181  19.784  0.00  0.00    +0.000 N 
ATOM      4  H   UNL     1       3.252   7.324  20.690  0.00  0.00    +0.000 HD
BRANCH   3   5
ATOM      5  C   UNL     1       2.884   5.848  19.333  0.00  0.00    +0.000 A 
ATOM      6  C   UNL     1       2.021   4.887  19.865  0.00  0.00    +0.000 A 
ATOM      7  C   UNL     1       1.984   3.622  19.314  0.00  0.00    +0.000 A 
ATOM      8  N   UNL     1       2.714   3.245  18.252  0.00  0.00    +0.000 NA
ATOM      9  C   UNL     1       3.547   4.143  17.717  0.00  0.00    +0.000 A 
ATOM     10  C   UNL     1       4.267   3.734  16.605  0.00  0.00    +0.000 A 
ATOM     11  C   UNL     1       5.199   4.567  16.000  0.00  0.00    +0.000 A 
ATOM     12 CL   UNL     1       6.069   4.024  14.619  0.00  0.00    +0.000 Cl
ATOM     13  C   UNL     1       5.434   5.833  16.512  0.00  0.00    +0.000 A 
ATOM     14  C   UNL     1       4.691   6.280  17.609  0.00  0.00    +0.000 A 
ATOM     15  C   UNL     1       3.709   5.459  18.228  0.00  0.00    +0.000 A 
ENDBRANCH   3   5
ENDBRANCH   2   3
BRANCH   2  16
ATOM     16  C   UNL     1       1.886   9.276  18.759  0.00  0.00    +0.000 C 
BRANCH  16  17
ATOM     17  N   UNL     1       0.754   9.777  17.948  0.00  0.00    +0.000 N 
ATOM     18  H   UNL     1       0.239   9.039  17.484  0.00  0.00    +0.000 HD
BRANCH  17  19
ATOM     19  C   UNL     1      -0.089  10.745  18.564  0.00  0.00    +0.000 A 
ATOM     20  C   UNL     1       0.471  11.791  19.307  0.00  0.00    +0.000 A 
ATOM     21  C   UNL     1      -0.338  12.766  19.855  0.00  0.00    +0.000 A 
ATOM     22  N   UNL     1      -1.664  12.808  19.693  0.00  0.00    +0.000 NA
ATOM     23  C   UNL     1      -2.228  11.856  18.941  0.00  0.00    +0.000 A 
ATOM     24  C   UNL     1      -3.599  11.960  18.771  0.00  0.00    +0.000 A 
ATOM     25  C   UNL     1      -4.305  11.028  18.020  0.00  0.00    +0.000 A 
ATOM     26 CL   UNL     1      -6.007  11.198  17.827  0.00  0.00    +0.000 Cl
ATOM     27  C   UNL     1      -3.637   9.968  17.428  0.00  0.00    +0.000 A 
ATOM     28  C   UNL     1      -2.249   9.849  17.581  0.00  0.00    +0.000 A 
ATOM     29  C   UNL     1      -1.503  10.787  18.342  0.00  0.00    +0.000 A 
ENDBRANCH  17  19
ENDBRANCH  16  17
ENDBRANCH   2  16
TORSDOF 5
ENDMDL
MODEL 8
REMARK VINA RESULT:      -8.0      2.026      2.939
REMARK  Name = 
REMARK  6 active torsions:
REMARK  status: ('A' for Active; 'I' for Inactive)
REMARK    1  A    between atoms: C_1  and  C_2
REMARK    2  A    between atoms: C_2  and  C_3
REMARK    3  A    between atoms: C_2  and  N_16
REMARK    4  A    between atoms: C_3  and  N_4
REMARK    5  A    between atoms: N_4  and  C_5
REMARK    6  A    between atoms: N_16  and  C_17
REMARK                            x       y       z     vdW  Elec       q    Type
REMARK                         _______ _______ _______ _____ _____    ______ ____
ROOT
ATOM      1  C   UNL     1       3.720   3.081  19.931  0.00  0.00    +0.000 C 
ATOM      2  C   UNL     1       3.466   3.185  18.419  0.00  0.00    +0.000 C 
ENDROOT
BRANCH   2   3
ATOM      3  N   UNL     1       4.753   2.974  17.723  0.00  0.00    +0.000 N 
ATOM      4  H   UNL     1       4.835   2.036  17.350  0.00  0.00    +0.000 HD
BRANCH   3   5
ATOM      5  C   UNL     1       5.314   3.963  16.892  0.00  0.00    +0.000 A 
ATOM      6  C   UNL     1       4.919   4.064  15.556  0.00  0.00    +0.000 A 
ATOM      7  C   UNL     1       5.359   5.126  14.791  0.00  0.00    +0.000 A 
ATOM      8  N   UNL     1       6.134   6.117  15.260  0.00  0.00    +0.000 NA
ATOM      9  C   UNL     1       6.526   6.053  16.537  0.00  0.00    +0.000 A 
ATOM     10  C   UNL     1       7.302   7.104  17.000  0.00  0.00    +0.000 A 
ATOM     11  C   UNL     1       7.807   7.115  18.293  0.00  0.00    +0.000 A 
ATOM     12 CL   UNL     1       8.762   8.441  18.832  0.00  0.00    +0.000 Cl
ATOM     13  C   UNL     1       7.547   6.056  19.149  0.00  0.00    +0.000 A 
ATOM     14  C   UNL     1       6.734   5.004  18.715  0.00  0.00    +0.000 A 
ATOM     15  C   UNL     1       6.179   4.984  17.406  0.00  0.00    +0.000 A 
ENDBRANCH   3   5
ENDBRANCH   2   3
BRANCH   2  16
ATOM     16  C   UNL     1       2.882   4.600  18.135  0.00  0.00    +0.000 C 
BRANCH  16  17
ATOM     17  N   UNL     1       2.951   5.567  19.253  0.00  0.00    +0.000 N 
ATOM     18  H   UNL     1       3.780   5.457  19.824  0.00  0.00    +0.000 HD
BRANCH  17  19
ATOM     19  C   UNL     1       2.667   6.926  18.936  0.00  0.00    +0.000 A 
ATOM     20  C   UNL     1       3.067   7.456  17.704  0.00  0.00    +0.000 A 
ATOM     21  C   UNL     1       2.742   8.755  17.367  0.00  0.00    +0.000 A 
ATOM     22  N   UNL     1       2.014   9.564  18.143  0.00  0.00    +0.000 NA
ATOM     23  C   UNL     1       1.565   9.070  19.304  0.00  0.00    +0.000 A 
ATOM     24  C   UNL     1       0.786   9.932  20.058  0.00  0.00    +0.000 A 
ATOM     25  C   UNL     1       0.267   9.544  21.288  0.00  0.00    +0.000 A 
ATOM     26 CL   UNL     1      -0.704  10.642  22.191  0.00  0.00    +0.000 Cl
ATOM     27  C   UNL     1       0.532   8.277  21.782  0.00  0.00    +0.000 A 
ATOM     28  C   UNL     1       1.312   7.388  21.030  0.00  0.00    +0.000 A 
ATOM     29  C   UNL     1       1.853   7.757  19.770  0.00  0.00    +0.000 A 
ENDBRANCH  17  19
ENDBRANCH  16  17
ENDBRANCH   2  16
TORSDOF 5
ENDMDL
MODEL 9
REMARK VINA RESULT:      -8.0      5.394      7.251
REMARK  Name = 
REMARK  6 active torsions:
REMARK  status: ('A' for Active; 'I' for Inactive)
REMARK    1  A    between atoms: C_1  and  C_2
REMARK    2  A    between atoms: C_2  and  C_3
REMARK    3  A    between atoms: C_2  and  N_16
REMARK    4  A    between atoms: C_3  and  N_4
REMARK    5  A    between atoms: N_4  and  C_5
REMARK    6  A    between atoms: N_16  and  C_17
REMARK                            x       y       z     vdW  Elec       q    Type
REMARK                         _______ _______ _______ _____ _____    ______ ____
ROOT
ATOM      1  C   UNL     1       7.911   6.415  18.582  0.00  0.00    +0.000 C 
ATOM      2  C   UNL     1       7.295   7.721  18.057  0.00  0.00    +0.000 C 
ENDROOT
BRANCH   2   3
ATOM      3  N   UNL     1       6.672   7.439  16.747  0.00  0.00    +0.000 N 
ATOM      4  H   UNL     1       7.161   7.896  15.986  0.00  0.00    +0.000 HD
BRANCH   3   5
ATOM      5  C   UNL     1       6.189   6.157  16.419  0.00  0.00    +0.000 A 
ATOM      6  C   UNL     1       6.992   5.267  15.701  0.00  0.00    +0.000 A 
ATOM      7  C   UNL     1       6.573   3.965  15.516  0.00  0.00    +0.000 A 
ATOM      8  N   UNL     1       5.431   3.467  16.018  0.00  0.00    +0.000 NA
ATOM      9  C   UNL     1       4.642   4.291  16.714  0.00  0.00    +0.000 A 
ATOM     10  C   UNL     1       3.485   3.741  17.243  0.00  0.00    +0.000 A 
ATOM     11  C   UNL     1       2.568   4.518  17.939  0.00  0.00    +0.000 A 
ATOM     12 CL   UNL     1       1.146   3.796  18.584  0.00  0.00    +0.000 Cl
ATOM     13  C   UNL     1       2.794   5.875  18.108  0.00  0.00    +0.000 A 
ATOM     14  C   UNL     1       3.974   6.442  17.617  0.00  0.00    +0.000 A 
ATOM     15  C   UNL     1       4.944   5.664  16.928  0.00  0.00    +0.000 A 
ENDBRANCH   3   5
ENDBRANCH   2   3
BRANCH   2  16
ATOM     16  C   UNL     1       8.442   8.767  17.937  0.00  0.00    +0.000 C 
BRANCH  16  17
ATOM     17  N   UNL     1       8.862   9.419  19.198  0.00  0.00    +0.000 N 
ATOM     18  H   UNL     1       9.348   8.791  19.826  0.00  0.00    +0.000 HD
BRANCH  17  19
ATOM     19  C   UNL     1       9.492  10.690  19.077  0.00  0.00    +0.000 A 
ATOM     20  C   UNL     1      10.061  11.077  17.858  0.00  0.00    +0.000 A 
ATOM     21  C   UNL     1      10.620  12.331  17.719  0.00  0.00    +0.000 A 
ATOM     22  N   UNL     1      10.628  13.253  18.686  0.00  0.00    +0.000 NA
ATOM     23  C   UNL     1      10.042  12.937  19.847  0.00  0.00    +0.000 A 
ATOM     24  C   UNL     1      10.042  13.936  20.808  0.00  0.00    +0.000 A 
ATOM     25  C   UNL     1       9.473  13.730  22.060  0.00  0.00    +0.000 A 
ATOM     26 CL   UNL     1       9.487  15.000  23.223  0.00  0.00    +0.000 Cl
ATOM     27  C   UNL     1       8.897  12.509  22.366  0.00  0.00    +0.000 A 
ATOM     28  C   UNL     1       8.880  11.489  21.405  0.00  0.00    +0.000 A 
ATOM     29  C   UNL     1       9.452  11.671  20.119  0.00  0.00    +0.000 A 
ENDBRANCH  17  19
ENDBRANCH  16  17
ENDBRANCH   2  16
TORSDOF 5
ENDMDL
