MODEL 1
REMARK VINA RESULT:      -8.0      0.000      0.000
REMARK  Name = 
REMARK  5 active torsions:
REMARK  status: ('A' for Active; 'I' for Inactive)
REMARK    1  A    between atoms: C_1  and  N_2
REMARK    2  A    between atoms: N_2  and  C_3
REMARK    3  A    between atoms: C_3  and  C_4
REMARK    4  A    between atoms: C_4  and  C_5
REMARK    5  A    between atoms: C_5  and  N_6
REMARK                            x       y       z     vdW  Elec       q    Type
REMARK                         _______ _______ _______ _____ _____    ______ ____
ROOT
ATOM      1  N   UNL     1       3.121   5.203  19.881  0.00  0.00    +0.000 N 
ATOM      2  C   UNL     1       2.747   6.447  19.390  0.00  0.00    +0.000 A 
ATOM      3  C   UNL     1       3.239   6.900  18.228  0.00  0.00    +0.000 A 
ATOM      4  C   UNL     1       4.122   6.075  17.537  0.00  0.00    +0.000 A 
ATOM      5  C   UNL     1       4.523   6.717  16.345  0.00  0.00    +0.000 A 
ATOM      6  C   UNL     1       5.394   5.947  15.654  0.00  0.00    +0.000 A 
ATOM      7  C   UNL     1       6.190   5.260  14.997  0.00  0.00    +0.000 A 
ATOM      8  C   UNL     1       5.528   4.573  16.639  0.00  0.00    +0.000 A 
ATOM      9  C   UNL     1       4.581   4.905  17.823  0.00  0.00    +0.000 A 
ATOM     10  C   UNL     1       4.025   4.369  19.141  0.00  0.00    +0.000 A 
ATOM     11  O   UNL     1       4.353   3.261  19.543  0.00  0.00    +0.000 OA
ATOM     12  C   UNL     1       2.659   8.285  17.955  0.00  0.00    +0.000 C 
ATOM     13  O   UNL     1       2.878   9.005  16.996  0.00  0.00    +0.000 OA
ATOM     14  C   UNL     1       1.781   8.541  19.120  0.00  0.00    +0.000 A 
ATOM     15  C   UNL     1       0.989   9.629  19.434  0.00  0.00    +0.000 A 
ATOM     16  C   UNL     1       0.245   9.628  20.605  0.00  0.00    +0.000 A 
ATOM     17  C   UNL     1       0.292   8.547  21.455  0.00  0.00    +0.000 A 
ATOM     18  C   UNL     1       1.086   7.462  21.133  0.00  0.00    +0.000 A 
ATOM     19  C   UNL     1       1.839   7.444  19.966  0.00  0.00    +0.000 A 
ENDROOT
BRANCH   1  20
ATOM     20  C   UNL     1       2.598   4.676  21.133  0.00  0.00    +0.000 C 
BRANCH  20  21
ATOM     21  C   UNL     1       1.274   3.974  20.924  0.00  0.00    +0.000 C 
BRANCH  21  22
ATOM     22  C   UNL     1       1.425   2.476  21.046  0.00  0.00    +0.000 C 
BRANCH  22  24
ATOM     23  C   UNL     1       0.801   2.452  18.750  0.00  0.00    +0.000 C 
ATOM     24  N   UNL     1       1.698   1.886  19.742  0.00  0.00    +0.000 NA
ATOM     25  H   UNL     1       2.663   2.076  19.476  0.00  0.00    +0.000 HD
ENDBRANCH  22  24
ENDBRANCH  21  22
ENDBRANCH  20  21
ENDBRANCH   1  20
TORSDOF 4
ENDMDL
MODEL 2
REMARK VINA RESULT:      -7.2      1.249      4.928
REMARK  Name = 
REMARK  5 active torsions:
REMARK  status: ('A' for Active; 'I' for Inactive)
REMARK    1  A    between atoms: C_1  and  N_2
REMARK    2  A    between atoms: N_2  and  C_3
REMARK    3  A    between atoms: C_3  and  C_4
REMARK    4  A    between atoms: C_4  and  C_5
REMARK    5  A    between atoms: C_5  and  N_6
REMARK                            x       y       z     vdW  Elec       q    Type
REMARK                         _______ _______ _______ _____ _____    ______ ____
ROOT
ATOM      1  N   UNL     1       3.461   4.441  19.649  0.00  0.00    +0.000 N 
ATOM      2  C   UNL     1       3.756   5.307  18.605  0.00  0.00    +0.000 A 
ATOM      3  C   UNL     1       3.214   6.532  18.558  0.00  0.00    +0.000 A 
ATOM      4  C   UNL     1       2.360   6.899  19.594  0.00  0.00    +0.000 A 
ATOM      5  C   UNL     1       1.897   8.215  19.373  0.00  0.00    +0.000 A 
ATOM      6  C   UNL     1       1.052   8.599  20.358  0.00  0.00    +0.000 A 
ATOM      7  C   UNL     1       0.280   8.979  21.249  0.00  0.00    +0.000 A 
ATOM      8  C   UNL     1       1.016   7.232  21.362  0.00  0.00    +0.000 A 
ATOM      9  C   UNL     1       1.971   6.247  20.636  0.00  0.00    +0.000 A 
ATOM     10  C   UNL     1       2.586   4.851  20.711  0.00  0.00    +0.000 A 
ATOM     11  O   UNL     1       2.327   4.113  21.652  0.00  0.00    +0.000 OA
ATOM     12  C   UNL     1       3.711   7.243  17.303  0.00  0.00    +0.000 C 
ATOM     13  O   UNL     1       3.432   8.368  16.926  0.00  0.00    +0.000 OA
ATOM     14  C   UNL     1       4.602   6.249  16.658  0.00  0.00    +0.000 A 
ATOM     15  C   UNL     1       5.341   6.319  15.493  0.00  0.00    +0.000 A 
ATOM     16  C   UNL     1       6.111   5.235  15.097  0.00  0.00    +0.000 A 
ATOM     17  C   UNL     1       6.142   4.091  15.861  0.00  0.00    +0.000 A 
ATOM     18  C   UNL     1       5.401   4.030  17.026  0.00  0.00    +0.000 A 
ATOM     19  C   UNL     1       4.623   5.104  17.440  0.00  0.00    +0.000 A 
ENDROOT
BRANCH   1  20
ATOM     20  C   UNL     1       4.041   3.109  19.738  0.00  0.00    +0.000 C 
BRANCH  20  21
ATOM     21  C   UNL     1       3.017   2.040  19.425  0.00  0.00    +0.000 C 
BRANCH  21  22
ATOM     22  C   UNL     1       2.715   1.989  17.945  0.00  0.00    +0.000 C 
BRANCH  22  24
ATOM     23  C   UNL     1       0.552   2.478  18.805  0.00  0.00    +0.000 C 
ATOM     24  N   UNL     1       1.439   2.634  17.666  0.00  0.00    +0.000 NA
ATOM     25  H   UNL     1       1.588   3.624  17.484  0.00  0.00    +0.000 HD
ENDBRANCH  22  24
ENDBRANCH  21  22
ENDBRANCH  20  21
ENDBRANCH   1  20
TORSDOF 4
ENDMDL
MODEL 3
REMARK VINA RESULT:      -7.1      1.893      6.357
REMARK  Name = 
REMARK  5 active torsions:
REMARK  status: ('A' for Active; 'I' for Inactive)
REMARK    1  A    between atoms: C_1  and  N_2
REMARK    2  A    between atoms: N_2  and  C_3
REMARK    3  A    between atoms: C_3  and  C_4
REMARK    4  A    between atoms: C_4  and  C_5
REMARK    5  A    between atoms: C_5  and  N_6
REMARK                            x       y       z     vdW  Elec       q    Type
REMARK                         _______ _______ _______ _____ _____    ______ ____
ROOT
ATOM      1  N   UNL     1       3.238   6.498  18.555  0.00  0.00    +0.000 N 
ATOM      2  C   UNL     1       3.772   5.388  17.914  0.00  0.00    +0.000 A 
ATOM      3  C   UNL     1       3.554   4.153  18.389  0.00  0.00    +0.000 A 
ATOM      4  C   UNL     1       2.771   4.032  19.533  0.00  0.00    +0.000 A 
ATOM      5  C   UNL     1       2.652   2.666  19.873  0.00  0.00    +0.000 A 
ATOM      6  C   UNL     1       1.905   2.513  20.991  0.00  0.00    +0.000 A 
ATOM      7  C   UNL     1       1.221   2.341  22.010  0.00  0.00    +0.000 A 
ATOM      8  C   UNL     1       1.501   4.112  21.382  0.00  0.00    +0.000 A 
ATOM      9  C   UNL     1       2.193   4.928  20.257  0.00  0.00    +0.000 A 
ATOM     10  C   UNL     1       2.423   6.341  19.727  0.00  0.00    +0.000 A 
ATOM     11  O   UNL     1       1.924   7.302  20.297  0.00  0.00    +0.000 OA
ATOM     12  C   UNL     1       4.267   3.147  17.490  0.00  0.00    +0.000 C 
ATOM     13  O   UNL     1       4.296   1.935  17.608  0.00  0.00    +0.000 OA
ATOM     14  C   UNL     1       4.910   3.988  16.452  0.00  0.00    +0.000 A 
ATOM     15  C   UNL     1       5.691   3.644  15.366  0.00  0.00    +0.000 A 
ATOM     16  C   UNL     1       6.182   4.634  14.526  0.00  0.00    +0.000 A 
ATOM     17  C   UNL     1       5.893   5.956  14.771  0.00  0.00    +0.000 A 
ATOM     18  C   UNL     1       5.109   6.291  15.860  0.00  0.00    +0.000 A 
ATOM     19  C   UNL     1       4.609   5.317  16.712  0.00  0.00    +0.000 A 
ENDROOT
BRANCH   1  20
ATOM     20  C   UNL     1       3.444   7.851  18.061  0.00  0.00    +0.000 C 
BRANCH  20  21
ATOM     21  C   UNL     1       2.185   8.405  17.429  0.00  0.00    +0.000 C 
BRANCH  21  22
ATOM     22  C   UNL     1       1.882   9.792  17.942  0.00  0.00    +0.000 C 
BRANCH  22  24
ATOM     23  C   UNL     1       0.011  10.624  19.154  0.00  0.00    +0.000 C 
ATOM     24  N   UNL     1       0.447  10.048  17.895  0.00  0.00    +0.000 NA
ATOM     25  H   UNL     1       0.239  10.693  17.135  0.00  0.00    +0.000 HD
ENDBRANCH  22  24
ENDBRANCH  21  22
ENDBRANCH  20  21
ENDBRANCH   1  20
TORSDOF 4
ENDMDL
MODEL 4
REMARK VINA RESULT:      -7.0      1.997      5.240
REMARK  Name = 
REMARK  5 active torsions:
REMARK  status: ('A' for Active; 'I' for Inactive)
REMARK    1  A    between atoms: C_1  and  N_2
REMARK    2  A    between atoms: N_2  and  C_3
REMARK    3  A    between atoms: C_3  and  C_4
REMARK    4  A    between atoms: C_4  and  C_5
REMARK    5  A    between atoms: C_5  and  N_6
REMARK                            x       y       z     vdW  Elec       q    Type
REMARK                         _______ _______ _______ _____ _____    ______ ____
ROOT
ATOM      1  N   UNL     1       3.049   4.207  19.443  0.00  0.00    +0.000 N 
ATOM      2  C   UNL     1       3.485   5.114  18.486  0.00  0.00    +0.000 A 
ATOM      3  C   UNL     1       3.109   6.400  18.540  0.00  0.00    +0.000 A 
ATOM      4  C   UNL     1       2.281   6.785  19.590  0.00  0.00    +0.000 A 
ATOM      5  C   UNL     1       2.001   8.165  19.480  0.00  0.00    +0.000 A 
ATOM      6  C   UNL     1       1.186   8.571  20.480  0.00  0.00    +0.000 A 
ATOM      7  C   UNL     1       0.444   8.973  21.389  0.00  0.00    +0.000 A 
ATOM      8  C   UNL     1       0.943   7.140  21.357  0.00  0.00    +0.000 A 
ATOM      9  C   UNL     1       1.781   6.103  20.563  0.00  0.00    +0.000 A 
ATOM     10  C   UNL     1       2.205   4.637  20.523  0.00  0.00    +0.000 A 
ATOM     11  O   UNL     1       1.827   3.861  21.390  0.00  0.00    +0.000 OA
ATOM     12  C   UNL     1       3.730   7.144  17.361  0.00  0.00    +0.000 C 
ATOM     13  O   UNL     1       3.611   8.324  17.082  0.00  0.00    +0.000 OA
ATOM     14  C   UNL     1       4.502   6.100  16.646  0.00  0.00    +0.000 A 
ATOM     15  C   UNL     1       5.276   6.172  15.504  0.00  0.00    +0.000 A 
ATOM     16  C   UNL     1       5.909   5.033  15.026  0.00  0.00    +0.000 A 
ATOM     17  C   UNL     1       5.769   3.834  15.685  0.00  0.00    +0.000 A 
ATOM     18  C   UNL     1       4.993   3.772  16.827  0.00  0.00    +0.000 A 
ATOM     19  C   UNL     1       4.351   4.899  17.322  0.00  0.00    +0.000 A 
ENDROOT
BRANCH   1  20
ATOM     20  C   UNL     1       3.448   2.808  19.422  0.00  0.00    +0.000 C 
BRANCH  20  21
ATOM     21  C   UNL     1       4.795   2.608  20.081  0.00  0.00    +0.000 C 
BRANCH  21  22
ATOM     22  C   UNL     1       4.982   1.175  20.519  0.00  0.00    +0.000 C 
BRANCH  22  24
ATOM     23  C   UNL     1       6.222  -0.182  22.030  0.00  0.00    +0.000 C 
ATOM     24  N   UNL     1       5.621   1.124  21.828  0.00  0.00    +0.000 NA
ATOM     25  H   UNL     1       6.340   1.842  21.887  0.00  0.00    +0.000 HD
ENDBRANCH  22  24
ENDBRANCH  21  22
ENDBRANCH  20  21
ENDBRANCH   1  20
TORSDOF 4
ENDMDL
MODEL 5
REMARK VINA RESULT:      -6.9      2.132      5.562
REMARK  Name = 
REMARK  5 active torsions:
REMARK  status: ('A' for Active; 'I' for Inactive)
REMARK    1  A    between atoms: C_1  and  N_2
REMARK    2  A    between atoms: N_2  and  C_3
REMARK    3  A    between atoms: C_3  and  C_4
REMARK    4  A    between atoms: C_4  and  C_5
REMARK    5  A    between atoms: C_5  and  N_6
REMARK                            x       y       z     vdW  Elec       q    Type
REMARK                         _______ _______ _______ _____ _____    ______ ____
ROOT
ATOM      1  N   UNL     1       4.024   5.799  17.769  0.00  0.00    +0.000 N 
ATOM      2  C   UNL     1       3.266   5.535  18.902  0.00  0.00    +0.000 A 
ATOM      3  C   UNL     1       2.446   6.468  19.409  0.00  0.00    +0.000 A 
ATOM      4  C   UNL     1       2.380   7.693  18.751  0.00  0.00    +0.000 A 
ATOM      5  C   UNL     1       1.467   8.534  19.425  0.00  0.00    +0.000 A 
ATOM      6  C   UNL     1       1.389   9.741  18.819  0.00  0.00    +0.000 A 
ATOM      7  C   UNL     1       1.292  10.854  18.281  0.00  0.00    +0.000 A 
ATOM      8  C   UNL     1       2.472   9.571  17.525  0.00  0.00    +0.000 A 
ATOM      9  C   UNL     1       2.993   8.120  17.701  0.00  0.00    +0.000 A 
ATOM     10  C   UNL     1       3.926   7.068  17.105  0.00  0.00    +0.000 A 
ATOM     11  O   UNL     1       4.568   7.315  16.093  0.00  0.00    +0.000 OA
ATOM     12  C   UNL     1       1.760   5.899  20.647  0.00  0.00    +0.000 C 
ATOM     13  O   UNL     1       0.950   6.456  21.369  0.00  0.00    +0.000 OA
ATOM     14  C   UNL     1       2.307   4.527  20.762  0.00  0.00    +0.000 A 
ATOM     15  C   UNL     1       2.060   3.529  21.684  0.00  0.00    +0.000 A 
ATOM     16  C   UNL     1       2.710   2.308  21.572  0.00  0.00    +0.000 A 
ATOM     17  C   UNL     1       3.598   2.088  20.546  0.00  0.00    +0.000 A 
ATOM     18  C   UNL     1       3.839   3.091  19.626  0.00  0.00    +0.000 A 
ATOM     19  C   UNL     1       3.200   4.320  19.720  0.00  0.00    +0.000 A 
ENDROOT
BRANCH   1  20
ATOM     20  C   UNL     1       4.914   4.806  17.186  0.00  0.00    +0.000 C 
BRANCH  20  21
ATOM     21  C   UNL     1       6.251   4.780  17.895  0.00  0.00    +0.000 C 
BRANCH  21  22
ATOM     22  C   UNL     1       7.388   4.990  16.924  0.00  0.00    +0.000 C 
BRANCH  22  24
ATOM     23  C   UNL     1       7.650   7.255  17.600  0.00  0.00    +0.000 C 
ATOM     24  N   UNL     1       7.419   6.374  16.469  0.00  0.00    +0.000 NA
ATOM     25  H   UNL     1       8.164   6.494  15.786  0.00  0.00    +0.000 HD
ENDBRANCH  22  24
ENDBRANCH  21  22
ENDBRANCH  20  21
ENDBRANCH   1  20
TORSDOF 4
ENDMDL
MODEL 6
REMARK VINA RESULT:      -6.9      1.858      4.977
REMARK  Name = 
REMARK  5 active torsions:
REMARK  status: ('A' for Active; 'I' for Inactive)
REMARK    1  A    between atoms: C_1  and  N_2
REMARK    2  A    between atoms: N_2  and  C_3
REMARK    3  A    between atoms: C_3  and  C_4
REMARK    4  A    between atoms: C_4  and  C_5
REMARK    5  A    between atoms: C_5  and  N_6
REMARK                            x       y       z     vdW  Elec       q    Type
REMARK                         _______ _______ _______ _____ _____    ______ ____
ROOT
ATOM      1  N   UNL     1       3.632   6.359  17.909  0.00  0.00    +0.000 N 
ATOM      2  C   UNL     1       3.414   5.008  18.149  0.00  0.00    +0.000 A 
ATOM      3  C   UNL     1       4.001   4.075  17.386  0.00  0.00    +0.000 A 
ATOM      4  C   UNL     1       4.837   4.512  16.363  0.00  0.00    +0.000 A 
ATOM      5  C   UNL     1       5.362   3.392  15.680  0.00  0.00    +0.000 A 
ATOM      6  C   UNL     1       6.171   3.781  14.668  0.00  0.00    +0.000 A 
ATOM      7  C   UNL     1       6.922   4.109  13.738  0.00  0.00    +0.000 A 
ATOM      8  C   UNL     1       6.112   5.472  14.784  0.00  0.00    +0.000 A 
ATOM      9  C   UNL     1       5.163   5.702  15.991  0.00  0.00    +0.000 A 
ATOM     10  C   UNL     1       4.510   6.779  16.854  0.00  0.00    +0.000 A 
ATOM     11  O   UNL     1       4.735   7.963  16.638  0.00  0.00    +0.000 OA
ATOM     12  C   UNL     1       3.569   2.696  17.876  0.00  0.00    +0.000 C 
ATOM     13  O   UNL     1       3.898   1.612  17.428  0.00  0.00    +0.000 OA
ATOM     14  C   UNL     1       2.664   2.988  19.013  0.00  0.00    +0.000 A 
ATOM     15  C   UNL     1       1.967   2.142  19.854  0.00  0.00    +0.000 A 
ATOM     16  C   UNL     1       1.173   2.670  20.862  0.00  0.00    +0.000 A 
ATOM     17  C   UNL     1       1.078   4.032  21.027  0.00  0.00    +0.000 A 
ATOM     18  C   UNL     1       1.780   4.872  20.182  0.00  0.00    +0.000 A 
ATOM     19  C   UNL     1       2.579   4.364  19.167  0.00  0.00    +0.000 A 
ENDROOT
BRANCH   1  20
ATOM     20  C   UNL     1       3.021   7.398  18.724  0.00  0.00    +0.000 C 
BRANCH  20  21
ATOM     21  C   UNL     1       1.794   7.975  18.053  0.00  0.00    +0.000 C 
BRANCH  21  22
ATOM     22  C   UNL     1       1.885   9.479  17.946  0.00  0.00    +0.000 C 
BRANCH  22  24
ATOM     23  C   UNL     1       0.067  10.407  19.167  0.00  0.00    +0.000 C 
ATOM     24  N   UNL     1       0.554  10.061  17.844  0.00  0.00    +0.000 NA
ATOM     25  H   UNL     1       0.590  10.899  17.265  0.00  0.00    +0.000 HD
ENDBRANCH  22  24
ENDBRANCH  21  22
ENDBRANCH  20  21
ENDBRANCH   1  20
TORSDOF 4
ENDMDL
MODEL 7
REMARK VINA RESULT:      -6.6      0.844      1.044
REMARK  Name = 
REMARK  5 active torsions:
REMARK  status: ('A' for Active; 'I' for Inactive)
REMARK    1  A    between atoms: C_1  and  N_2
REMARK    2  A    between atoms: N_2  and  C_3
REMARK    3  A    between atoms: C_3  and  C_4
REMARK    4  A    between atoms: C_4  and  C_5
REMARK    5  A    between atoms: C_5  and  N_6
REMARK                            x       y       z     vdW  Elec       q    Type
REMARK                         _______ _______ _______ _____ _____    ______ ____
ROOT
ATOM      1  N   UNL     1       2.863   5.495  19.853  0.00  0.00    +0.000 N 
ATOM      2  C   UNL     1       2.507   6.761  19.407  0.00  0.00    +0.000 A 
ATOM      3  C   UNL     1       3.014   7.251  18.266  0.00  0.00    +0.000 A 
ATOM      4  C   UNL     1       3.893   6.443  17.552  0.00  0.00    +0.000 A 
ATOM      5  C   UNL     1       4.312   7.125  16.388  0.00  0.00    +0.000 A 
ATOM      6  C   UNL     1       5.180   6.371  15.676  0.00  0.00    +0.000 A 
ATOM      7  C   UNL     1       5.973   5.700  14.999  0.00  0.00    +0.000 A 
ATOM      8  C   UNL     1       5.289   4.959  16.609  0.00  0.00    +0.000 A 
ATOM      9  C   UNL     1       4.336   5.258  17.797  0.00  0.00    +0.000 A 
ATOM     10  C   UNL     1       3.763   4.679  19.089  0.00  0.00    +0.000 A 
ATOM     11  O   UNL     1       4.074   3.552  19.451  0.00  0.00    +0.000 OA
ATOM     12  C   UNL     1       2.453   8.653  18.041  0.00  0.00    +0.000 C 
ATOM     13  O   UNL     1       2.689   9.407  17.113  0.00  0.00    +0.000 OA
ATOM     14  C   UNL     1       1.568   8.876  19.208  0.00  0.00    +0.000 A 
ATOM     15  C   UNL     1       0.787   9.960  19.556  0.00  0.00    +0.000 A 
ATOM     16  C   UNL     1       0.033   9.924  20.721  0.00  0.00    +0.000 A 
ATOM     17  C   UNL     1       0.060   8.812  21.529  0.00  0.00    +0.000 A 
ATOM     18  C   UNL     1       0.844   7.730  21.173  0.00  0.00    +0.000 A 
ATOM     19  C   UNL     1       1.606   7.746  20.013  0.00  0.00    +0.000 A 
ENDROOT
BRANCH   1  20
ATOM     20  C   UNL     1       2.323   4.927  21.080  0.00  0.00    +0.000 C 
BRANCH  20  21
ATOM     21  C   UNL     1       1.116   4.059  20.799  0.00  0.00    +0.000 C 
BRANCH  21  22
ATOM     22  C   UNL     1       1.343   2.641  21.268  0.00  0.00    +0.000 C 
BRANCH  22  24
ATOM     23  C   UNL     1       3.483   1.643  21.552  0.00  0.00    +0.000 C 
ATOM     24  N   UNL     1       2.522   2.572  22.120  0.00  0.00    +0.000 NA
ATOM     25  H   UNL     1       2.945   3.495  22.196  0.00  0.00    +0.000 HD
ENDBRANCH  22  24
ENDBRANCH  21  22
ENDBRANCH  20  21
ENDBRANCH   1  20
TORSDOF 4
ENDMDL
MODEL 8
REMARK VINA RESULT:      -6.6      2.027      4.764
REMARK  Name = 
REMARK  5 active torsions:
REMARK  status: ('A' for Active; 'I' for Inactive)
REMARK    1  A    between atoms: C_1  and  N_2
REMARK    2  A    between atoms: N_2  and  C_3
REMARK    3  A    between atoms: C_3  and  C_4
REMARK    4  A    between atoms: C_4  and  C_5
REMARK    5  A    between atoms: C_5  and  N_6
REMARK                            x       y       z     vdW  Elec       q    Type
REMARK                         _______ _______ _______ _____ _____    ______ ____
ROOT
ATOM      1  N   UNL     1       3.776   5.931  17.951  0.00  0.00    +0.000 N 
ATOM      2  C   UNL     1       2.898   6.670  18.732  0.00  0.00    +0.000 A 
ATOM      3  C   UNL     1       2.305   6.119  19.802  0.00  0.00    +0.000 A 
ATOM      4  C   UNL     1       2.614   4.795  20.098  0.00  0.00    +0.000 A 
ATOM      5  C   UNL     1       1.903   4.398  21.253  0.00  0.00    +0.000 A 
ATOM      6  C   UNL     1       2.169   3.109  21.562  0.00  0.00    +0.000 A 
ATOM      7  C   UNL     1       2.400   1.931  21.873  0.00  0.00    +0.000 A 
ATOM      8  C   UNL     1       3.262   2.660  20.345  0.00  0.00    +0.000 A 
ATOM      9  C   UNL     1       3.394   3.958  19.505  0.00  0.00    +0.000 A 
ATOM     10  C   UNL     1       4.084   4.570  18.288  0.00  0.00    +0.000 A 
ATOM     11  O   UNL     1       4.872   3.906  17.627  0.00  0.00    +0.000 OA
ATOM     12  C   UNL     1       1.396   7.159  20.450  0.00  0.00    +0.000 C 
ATOM     13  O   UNL     1       0.698   7.021  21.440  0.00  0.00    +0.000 OA
ATOM     14  C   UNL     1       1.562   8.360  19.598  0.00  0.00    +0.000 A 
ATOM     15  C   UNL     1       0.994   9.616  19.686  0.00  0.00    +0.000 A 
ATOM     16  C   UNL     1       1.317  10.588  18.749  0.00  0.00    +0.000 A 
ATOM     17  C   UNL     1       2.201  10.305  17.735  0.00  0.00    +0.000 A 
ATOM     18  C   UNL     1       2.767   9.046  17.655  0.00  0.00    +0.000 A 
ATOM     19  C   UNL     1       2.456   8.059  18.581  0.00  0.00    +0.000 A 
ENDROOT
BRANCH   1  20
ATOM     20  C   UNL     1       4.446   6.500  16.790  0.00  0.00    +0.000 C 
BRANCH  20  21
ATOM     21  C   UNL     1       5.834   6.991  17.141  0.00  0.00    +0.000 C 
BRANCH  21  22
ATOM     22  C   UNL     1       6.895   6.173  16.442  0.00  0.00    +0.000 C 
BRANCH  22  24
ATOM     23  C   UNL     1       7.636   5.975  18.695  0.00  0.00    +0.000 C 
ATOM     24  N   UNL     1       7.588   5.320  17.399  0.00  0.00    +0.000 NA
ATOM     25  H   UNL     1       7.097   4.432  17.485  0.00  0.00    +0.000 HD
ENDBRANCH  22  24
ENDBRANCH  21  22
ENDBRANCH  20  21
ENDBRANCH   1  20
TORSDOF 4
ENDMDL
MODEL 9
REMARK VINA RESULT:      -6.5      2.091      5.551
REMARK  Name = 
REMARK  5 active torsions:
REMARK  status: ('A' for Active; 'I' for Inactive)
REMARK    1  A    between atoms: C_1  and  N_2
REMARK    2  A    between atoms: N_2  and  C_3
REMARK    3  A    between atoms: C_3  and  C_4
REMARK    4  A    between atoms: C_4  and  C_5
REMARK    5  A    between atoms: C_5  and  N_6
REMARK                            x       y       z     vdW  Elec       q    Type
REMARK                         _______ _______ _______ _____ _____    ______ ____
ROOT
ATOM      1  N   UNL     1       4.306   5.844  17.896  0.00  0.00    +0.000 N 
ATOM      2  C   UNL     1       3.470   5.521  18.956  0.00  0.00    +0.000 A 
ATOM      3  C   UNL     1       2.554   6.396  19.396  0.00  0.00    +0.000 A 
ATOM      4  C   UNL     1       2.470   7.623  18.745  0.00  0.00    +0.000 A 
ATOM      5  C   UNL     1       1.452   8.398  19.342  0.00  0.00    +0.000 A 
ATOM      6  C   UNL     1       1.353   9.606  18.741  0.00  0.00    +0.000 A 
ATOM      7  C   UNL     1       1.235  10.717  18.205  0.00  0.00    +0.000 A 
ATOM      8  C   UNL     1       2.552   9.518  17.545  0.00  0.00    +0.000 A 
ATOM      9  C   UNL     1       3.145   8.100  17.755  0.00  0.00    +0.000 A 
ATOM     10  C   UNL     1       4.189   7.114  17.235  0.00  0.00    +0.000 A 
ATOM     11  O   UNL     1       4.900   7.412  16.285  0.00  0.00    +0.000 OA
ATOM     12  C   UNL     1       1.799   5.770  20.565  0.00  0.00    +0.000 C 
ATOM     13  O   UNL     1       0.897   6.267  21.218  0.00  0.00    +0.000 OA
ATOM     14  C   UNL     1       2.418   4.433  20.717  0.00  0.00    +0.000 A 
ATOM     15  C   UNL     1       2.153   3.409  21.606  0.00  0.00    +0.000 A 
ATOM     16  C   UNL     1       2.884   2.231  21.542  0.00  0.00    +0.000 A 
ATOM     17  C   UNL     1       3.870   2.079  20.596  0.00  0.00    +0.000 A 
ATOM     18  C   UNL     1       4.127   3.107  19.708  0.00  0.00    +0.000 A 
ATOM     19  C   UNL     1       3.408   4.294  19.756  0.00  0.00    +0.000 A 
ENDROOT
BRANCH   1  20
ATOM     20  C   UNL     1       5.303   4.915  17.385  0.00  0.00    +0.000 C 
BRANCH  20  21
ATOM     21  C   UNL     1       4.762   4.108  16.225  0.00  0.00    +0.000 C 
BRANCH  21  22
ATOM     22  C   UNL     1       5.804   3.936  15.145  0.00  0.00    +0.000 C 
BRANCH  22  24
ATOM     23  C   UNL     1       7.383   5.045  13.753  0.00  0.00    +0.000 C 
ATOM     24  N   UNL     1       6.375   5.227  14.782  0.00  0.00    +0.000 NA
ATOM     25  H   UNL     1       5.640   5.841  14.434  0.00  0.00    +0.000 HD
ENDBRANCH  22  24
ENDBRANCH  21  22
ENDBRANCH  20  21
ENDBRANCH   1  20
TORSDOF 4
ENDMDL
