MODEL 1
REMARK VINA RESULT:      -7.6      0.000      0.000
REMARK  Name = 
REMARK  7 active torsions:
REMARK  status: ('A' for Active; 'I' for Inactive)
REMARK    1  A    between atoms: C_2  and  C_3
REMARK    2  A    between atoms: C_3  and  O_4
REMARK    3  A    between atoms: O_4  and  C_5
REMARK    4  A    between atoms: C_8  and  C_9
REMARK    5  A    between atoms: C_17  and  C_18
REMARK    6  A    between atoms: C_17  and  C_20
REMARK    7  A    between atoms: C_22  and  C_23
REMARK                            x       y       z     vdW  Elec       q    Type
REMARK                         _______ _______ _______ _____ _____    ______ ____
ROOT
ATOM      1  C   UNL     1       3.596   6.054  18.890  0.00  0.00    +0.000 C 
ATOM      2  O   UNL     1       3.717   5.850  17.109  0.00  0.00    +0.000 OA
ATOM      3  C   UNL     1       4.621   4.477  16.609  0.00  0.00    +0.000 C 
ATOM      4  C   UNL     1       5.817   4.970  15.733  0.00  0.00    +0.000 C 
ATOM      5  C   UNL     1       7.219   4.467  16.084  0.00  0.00    +0.000 C 
ATOM      6  C   UNL     1       7.603   4.850  17.504  0.00  0.00    +0.000 C 
ATOM      7  C   UNL     1       6.529   4.346  18.455  0.00  0.00    +0.000 C 
ATOM      8  C   UNL     1       4.943   4.773  17.898  0.00  0.00    +0.000 C 
ATOM      9  C   UNL     1       3.014   4.090  18.157  0.00  0.00    +0.000 C 
ATOM     10  C   UNL     1       3.494   4.523  19.450  0.00  0.00    +0.000 C 
ATOM     11  C   UNL     1       4.600   3.226  19.225  0.00  0.00    +0.000 C 
ATOM     12  N   UNL     1       5.104   2.370  20.041  0.00  0.00    +0.000 NA
ATOM     13  O   UNL     1       4.832   3.097  17.565  0.00  0.00    +0.000 OA
ATOM     14  H   UNL     1       4.811   2.500  21.015  0.00  0.00    +0.000 HD
ENDROOT
BRANCH   1  18
ATOM     15  C   UNL     1       0.962   9.324  19.533  0.00  0.00    +0.000 A 
ATOM     16  C   UNL     1       1.510   9.118  18.264  0.00  0.00    +0.000 A 
ATOM     17  C   UNL     1       2.274   7.997  17.997  0.00  0.00    +0.000 A 
ATOM     18  C   UNL     1       2.573   7.130  19.031  0.00  0.00    +0.000 A 
ATOM     19  C   UNL     1       1.902   7.255  20.261  0.00  0.00    +0.000 A 
ATOM     20  C   UNL     1       1.127   8.370  20.523  0.00  0.00    +0.000 A 
BRANCH  15  21
ATOM     21  O   UNL     1       0.262  10.432  19.898  0.00  0.00    +0.000 OA
BRANCH  21  22
ATOM     22  C   UNL     1      -0.241  11.184  18.802  0.00  0.00    +0.000 C 
BRANCH  22  24
ATOM     23  C   UNL     1      -2.114  10.081  17.604  0.00  0.00    +0.000 C 
ATOM     24  C   UNL     1      -1.674  10.802  18.635  0.00  0.00    +0.000 C 
ENDBRANCH  22  24
ENDBRANCH  21  22
ENDBRANCH  15  21
ENDBRANCH   1  18
BRANCH   9  25
ATOM     25  C   UNL     1       2.701   2.613  18.332  0.00  0.00    +0.000 C 
ATOM     26  N   UNL     1       2.443   1.388  18.477  0.00  0.00    +0.000 NA
ENDBRANCH   9  25
BRANCH   9  27
ATOM     27  C   UNL     1       1.761   4.686  17.629  0.00  0.00    +0.000 C 
ATOM     28  N   UNL     1       0.760   5.052  17.163  0.00  0.00    +0.000 NA
ENDBRANCH   9  27
BRANCH  10  29
ATOM     29  C   UNL     1       2.779   4.299  20.681  0.00  0.00    +0.000 C 
ATOM     30  N   UNL     1       2.130   4.089  21.616  0.00  0.00    +0.000 NA
ENDBRANCH  10  29
TORSDOF 7
ENDMDL
MODEL 2
REMARK VINA RESULT:      -7.6      1.031      1.334
REMARK  Name = 
REMARK  7 active torsions:
REMARK  status: ('A' for Active; 'I' for Inactive)
REMARK    1  A    between atoms: C_2  and  C_3
REMARK    2  A    between atoms: C_3  and  O_4
REMARK    3  A    between atoms: O_4  and  C_5
REMARK    4  A    between atoms: C_8  and  C_9
REMARK    5  A    between atoms: C_17  and  C_18
REMARK    6  A    between atoms: C_17  and  C_20
REMARK    7  A    between atoms: C_22  and  C_23
REMARK                            x       y       z     vdW  Elec       q    Type
REMARK                         _______ _______ _______ _____ _____    ______ ____
ROOT
ATOM      1  C   UNL     1       3.614   6.047  18.902  0.00  0.00    +0.000 C 
ATOM      2  O   UNL     1       3.728   5.852  17.120  0.00  0.00    +0.000 OA
ATOM      3  C   UNL     1       4.623   4.476  16.610  0.00  0.00    +0.000 C 
ATOM      4  C   UNL     1       5.818   4.968  15.733  0.00  0.00    +0.000 C 
ATOM      5  C   UNL     1       7.220   4.457  16.077  0.00  0.00    +0.000 C 
ATOM      6  C   UNL     1       7.610   4.830  17.497  0.00  0.00    +0.000 C 
ATOM      7  C   UNL     1       6.537   4.327  18.449  0.00  0.00    +0.000 C 
ATOM      8  C   UNL     1       4.951   4.765  17.900  0.00  0.00    +0.000 C 
ATOM      9  C   UNL     1       3.019   4.090  18.162  0.00  0.00    +0.000 C 
ATOM     10  C   UNL     1       3.506   4.514  19.455  0.00  0.00    +0.000 C 
ATOM     11  C   UNL     1       4.605   3.213  19.221  0.00  0.00    +0.000 C 
ATOM     12  N   UNL     1       5.107   2.350  20.031  0.00  0.00    +0.000 NA
ATOM     13  O   UNL     1       4.830   3.091  17.559  0.00  0.00    +0.000 OA
ATOM     14  H   UNL     1       4.817   2.477  21.006  0.00  0.00    +0.000 HD
ENDROOT
BRANCH   1  18
ATOM     15  C   UNL     1       0.997   9.326  19.574  0.00  0.00    +0.000 A 
ATOM     16  C   UNL     1       1.547   9.130  18.303  0.00  0.00    +0.000 A 
ATOM     17  C   UNL     1       2.305   8.008  18.027  0.00  0.00    +0.000 A 
ATOM     18  C   UNL     1       2.596   7.128  19.052  0.00  0.00    +0.000 A 
ATOM     19  C   UNL     1       1.923   7.244  20.282  0.00  0.00    +0.000 A 
ATOM     20  C   UNL     1       1.154   8.360  20.554  0.00  0.00    +0.000 A 
BRANCH  15  21
ATOM     21  O   UNL     1       0.302  10.433  19.948  0.00  0.00    +0.000 OA
BRANCH  21  22
ATOM     22  C   UNL     1       0.606  10.890  21.259  0.00  0.00    +0.000 C 
BRANCH  22  24
ATOM     23  C   UNL     1      -0.886  10.310  23.155  0.00  0.00    +0.000 C 
ATOM     24  C   UNL     1      -0.684  10.955  22.007  0.00  0.00    +0.000 C 
ENDBRANCH  22  24
ENDBRANCH  21  22
ENDBRANCH  15  21
ENDBRANCH   1  18
BRANCH   9  25
ATOM     25  C   UNL     1       2.700   2.614  18.331  0.00  0.00    +0.000 C 
ATOM     26  N   UNL     1       2.436   1.389  18.470  0.00  0.00    +0.000 NA
ENDBRANCH   9  25
BRANCH   9  27
ATOM     27  C   UNL     1       1.767   4.695  17.641  0.00  0.00    +0.000 C 
ATOM     28  N   UNL     1       0.751   5.061  17.211  0.00  0.00    +0.000 NA
ENDBRANCH   9  27
BRANCH  10  29
ATOM     29  C   UNL     1       2.794   4.287  20.687  0.00  0.00    +0.000 C 
ATOM     30  N   UNL     1       2.159   4.054  21.626  0.00  0.00    +0.000 NA
ENDBRANCH  10  29
TORSDOF 7
ENDMDL
MODEL 3
REMARK VINA RESULT:      -7.0      0.428      1.021
REMARK  Name = 
REMARK  7 active torsions:
REMARK  status: ('A' for Active; 'I' for Inactive)
REMARK    1  A    between atoms: C_2  and  C_3
REMARK    2  A    between atoms: C_3  and  O_4
REMARK    3  A    between atoms: O_4  and  C_5
REMARK    4  A    between atoms: C_8  and  C_9
REMARK    5  A    between atoms: C_17  and  C_18
REMARK    6  A    between atoms: C_17  and  C_20
REMARK    7  A    between atoms: C_22  and  C_23
REMARK                            x       y       z     vdW  Elec       q    Type
REMARK                         _______ _______ _______ _____ _____    ______ ____
ROOT
ATOM      1  C   UNL     1       3.706   6.163  18.975  0.00  0.00    +0.000 C 
ATOM      2  O   UNL     1       3.791   6.057  17.183  0.00  0.00    +0.000 OA
ATOM      3  C   UNL     1       4.621   4.673  16.590  0.00  0.00    +0.000 C 
ATOM      4  C   UNL     1       5.826   5.160  15.723  0.00  0.00    +0.000 C 
ATOM      5  C   UNL     1       7.208   4.572  16.022  0.00  0.00    +0.000 C 
ATOM      6  C   UNL     1       7.629   4.854  17.454  0.00  0.00    +0.000 C 
ATOM      7  C   UNL     1       6.547   4.347  18.393  0.00  0.00    +0.000 C 
ATOM      8  C   UNL     1       4.975   4.879  17.888  0.00  0.00    +0.000 C 
ATOM      9  C   UNL     1       3.019   4.274  18.142  0.00  0.00    +0.000 C 
ATOM     10  C   UNL     1       3.538   4.608  19.448  0.00  0.00    +0.000 C 
ATOM     11  C   UNL     1       4.578   3.276  19.131  0.00  0.00    +0.000 C 
ATOM     12  N   UNL     1       5.052   2.352  19.888  0.00  0.00    +0.000 NA
ATOM     13  O   UNL     1       4.779   3.232  17.463  0.00  0.00    +0.000 OA
ATOM     14  H   UNL     1       4.779   2.439  20.872  0.00  0.00    +0.000 HD
ENDROOT
BRANCH   1  18
ATOM     15  C   UNL     1       0.690   9.134  19.330  0.00  0.00    +0.000 A 
ATOM     16  C   UNL     1       0.959   8.290  20.412  0.00  0.00    +0.000 A 
ATOM     17  C   UNL     1       2.012   7.396  20.365  0.00  0.00    +0.000 A 
ATOM     18  C   UNL     1       2.737   7.275  19.195  0.00  0.00    +0.000 A 
ATOM     19  C   UNL     1       2.565   8.222  18.169  0.00  0.00    +0.000 A 
ATOM     20  C   UNL     1       1.519   9.126  18.221  0.00  0.00    +0.000 A 
BRANCH  15  21
ATOM     21  O   UNL     1      -0.366   9.988  19.265  0.00  0.00    +0.000 OA
BRANCH  21  22
ATOM     22  C   UNL     1      -0.692  10.406  17.947  0.00  0.00    +0.000 C 
BRANCH  22  24
ATOM     23  C   UNL     1      -2.629   9.951  16.464  0.00  0.00    +0.000 C 
ATOM     24  C   UNL     1      -2.093   9.965  17.684  0.00  0.00    +0.000 C 
ENDBRANCH  22  24
ENDBRANCH  21  22
ENDBRANCH  15  21
ENDBRANCH   1  18
BRANCH   9  25
ATOM     25  C   UNL     1       2.639   2.806  18.237  0.00  0.00    +0.000 C 
ATOM     26  N   UNL     1       2.324   1.588  18.317  0.00  0.00    +0.000 NA
ENDBRANCH   9  25
BRANCH   9  27
ATOM     27  C   UNL     1       1.789   4.958  17.669  0.00  0.00    +0.000 C 
ATOM     28  N   UNL     1       0.767   5.400  17.335  0.00  0.00    +0.000 NA
ENDBRANCH   9  27
BRANCH  10  29
ATOM     29  C   UNL     1       2.831   4.347  20.676  0.00  0.00    +0.000 C 
ATOM     30  N   UNL     1       2.263   4.045  21.638  0.00  0.00    +0.000 NA
ENDBRANCH  10  29
TORSDOF 7
ENDMDL
MODEL 4
REMARK VINA RESULT:      -6.9      1.049      1.248
REMARK  Name = 
REMARK  7 active torsions:
REMARK  status: ('A' for Active; 'I' for Inactive)
REMARK    1  A    between atoms: C_2  and  C_3
REMARK    2  A    between atoms: C_3  and  O_4
REMARK    3  A    between atoms: O_4  and  C_5
REMARK    4  A    between atoms: C_8  and  C_9
REMARK    5  A    between atoms: C_17  and  C_18
REMARK    6  A    between atoms: C_17  and  C_20
REMARK    7  A    between atoms: C_22  and  C_23
REMARK                            x       y       z     vdW  Elec       q    Type
REMARK                         _______ _______ _______ _____ _____    ______ ____
ROOT
ATOM      1  C   UNL     1       3.599   6.068  19.087  0.00  0.00    +0.000 C 
ATOM      2  O   UNL     1       3.762   5.956  17.302  0.00  0.00    +0.000 OA
ATOM      3  C   UNL     1       4.685   4.614  16.754  0.00  0.00    +0.000 C 
ATOM      4  C   UNL     1       5.898   5.156  15.932  0.00  0.00    +0.000 C 
ATOM      5  C   UNL     1       7.295   4.643  16.291  0.00  0.00    +0.000 C 
ATOM      6  C   UNL     1       7.643   4.954  17.737  0.00  0.00    +0.000 C 
ATOM      7  C   UNL     1       6.551   4.397  18.635  0.00  0.00    +0.000 C 
ATOM      8  C   UNL     1       4.975   4.845  18.064  0.00  0.00    +0.000 C 
ATOM      9  C   UNL     1       3.044   4.142  18.242  0.00  0.00    +0.000 C 
ATOM     10  C   UNL     1       3.492   4.510  19.566  0.00  0.00    +0.000 C 
ATOM     11  C   UNL     1       4.610   3.231  19.302  0.00  0.00    +0.000 C 
ATOM     12  N   UNL     1       5.100   2.337  20.085  0.00  0.00    +0.000 NA
ATOM     13  O   UNL     1       4.882   3.188  17.644  0.00  0.00    +0.000 OA
ATOM     14  H   UNL     1       4.783   2.416  21.056  0.00  0.00    +0.000 HD
ENDROOT
BRANCH   1  18
ATOM     15  C   UNL     1       0.922   9.277  19.853  0.00  0.00    +0.000 A 
ATOM     16  C   UNL     1       1.550   9.184  18.607  0.00  0.00    +0.000 A 
ATOM     17  C   UNL     1       2.332   8.088  18.290  0.00  0.00    +0.000 A 
ATOM     18  C   UNL     1       2.566   7.130  19.259  0.00  0.00    +0.000 A 
ATOM     19  C   UNL     1       1.818   7.148  20.450  0.00  0.00    +0.000 A 
ATOM     20  C   UNL     1       1.026   8.237  20.762  0.00  0.00    +0.000 A 
BRANCH  15  21
ATOM     21  O   UNL     1       0.198  10.350  20.270  0.00  0.00    +0.000 OA
BRANCH  21  22
ATOM     22  C   UNL     1       0.961  11.327  20.964  0.00  0.00    +0.000 C 
BRANCH  22  24
ATOM     23  C   UNL     1       1.706  12.979  19.269  0.00  0.00    +0.000 C 
ATOM     24  C   UNL     1       0.831  12.603  20.201  0.00  0.00    +0.000 C 
ENDBRANCH  22  24
ENDBRANCH  21  22
ENDBRANCH  15  21
ENDBRANCH   1  18
BRANCH   9  25
ATOM     25  C   UNL     1       2.736   2.656  18.334  0.00  0.00    +0.000 C 
ATOM     26  N   UNL     1       2.480   1.424  18.409  0.00  0.00    +0.000 NA
ENDBRANCH   9  25
BRANCH   9  27
ATOM     27  C   UNL     1       1.801   4.758  17.715  0.00  0.00    +0.000 C 
ATOM     28  N   UNL     1       0.787   5.238  17.410  0.00  0.00    +0.000 NA
ENDBRANCH   9  27
BRANCH  10  29
ATOM     29  C   UNL     1       2.750   4.220  20.767  0.00  0.00    +0.000 C 
ATOM     30  N   UNL     1       2.125   3.905  21.689  0.00  0.00    +0.000 NA
ENDBRANCH  10  29
TORSDOF 7
ENDMDL
MODEL 5
REMARK VINA RESULT:      -6.7      0.761      1.360
REMARK  Name = 
REMARK  7 active torsions:
REMARK  status: ('A' for Active; 'I' for Inactive)
REMARK    1  A    between atoms: C_2  and  C_3
REMARK    2  A    between atoms: C_3  and  O_4
REMARK    3  A    between atoms: O_4  and  C_5
REMARK    4  A    between atoms: C_8  and  C_9
REMARK    5  A    between atoms: C_17  and  C_18
REMARK    6  A    between atoms: C_17  and  C_20
REMARK    7  A    between atoms: C_22  and  C_23
REMARK                            x       y       z     vdW  Elec       q    Type
REMARK                         _______ _______ _______ _____ _____    ______ ____
ROOT
ATOM      1  C   UNL     1       3.737   6.174  18.909  0.00  0.00    +0.000 C 
ATOM      2  O   UNL     1       3.792   6.006  17.121  0.00  0.00    +0.000 OA
ATOM      3  C   UNL     1       4.602   4.598  16.562  0.00  0.00    +0.000 C 
ATOM      4  C   UNL     1       5.795   5.045  15.659  0.00  0.00    +0.000 C 
ATOM      5  C   UNL     1       7.178   4.458  15.954  0.00  0.00    +0.000 C 
ATOM      6  C   UNL     1       7.626   4.785  17.369  0.00  0.00    +0.000 C 
ATOM      7  C   UNL     1       6.556   4.318  18.342  0.00  0.00    +0.000 C 
ATOM      8  C   UNL     1       4.979   4.845  17.846  0.00  0.00    +0.000 C 
ATOM      9  C   UNL     1       3.024   4.263  18.153  0.00  0.00    +0.000 C 
ATOM     10  C   UNL     1       3.567   4.637  19.438  0.00  0.00    +0.000 C 
ATOM     11  C   UNL     1       4.592   3.287  19.149  0.00  0.00    +0.000 C 
ATOM     12  N   UNL     1       5.073   2.386  19.930  0.00  0.00    +0.000 NA
ATOM     13  O   UNL     1       4.765   3.186  17.480  0.00  0.00    +0.000 OA
ATOM     14  H   UNL     1       4.817   2.508  20.914  0.00  0.00    +0.000 HD
ENDROOT
BRANCH   1  18
ATOM     15  C   UNL     1       0.760   9.191  19.193  0.00  0.00    +0.000 A 
ATOM     16  C   UNL     1       0.981   8.335  20.276  0.00  0.00    +0.000 A 
ATOM     17  C   UNL     1       2.021   7.424  20.256  0.00  0.00    +0.000 A 
ATOM     18  C   UNL     1       2.780   7.300  19.107  0.00  0.00    +0.000 A 
ATOM     19  C   UNL     1       2.655   8.257  18.084  0.00  0.00    +0.000 A 
ATOM     20  C   UNL     1       1.623   9.177  18.111  0.00  0.00    +0.000 A 
BRANCH  15  21
ATOM     21  O   UNL     1      -0.280  10.062  19.102  0.00  0.00    +0.000 OA
BRANCH  21  22
ATOM     22  C   UNL     1       0.049  11.395  19.468  0.00  0.00    +0.000 C 
BRANCH  22  24
ATOM     23  C   UNL     1      -0.568  11.283  21.869  0.00  0.00    +0.000 C 
ATOM     24  C   UNL     1      -0.803  11.747  20.641  0.00  0.00    +0.000 C 
ENDBRANCH  22  24
ENDBRANCH  21  22
ENDBRANCH  15  21
ENDBRANCH   1  18
BRANCH   9  25
ATOM     25  C   UNL     1       2.635   2.802  18.304  0.00  0.00    +0.000 C 
ATOM     26  N   UNL     1       2.313   1.589  18.429  0.00  0.00    +0.000 NA
ENDBRANCH   9  25
BRANCH   9  27
ATOM     27  C   UNL     1       1.790   4.939  17.678  0.00  0.00    +0.000 C 
ATOM     28  N   UNL     1       0.786   5.365  17.276  0.00  0.00    +0.000 NA
ENDBRANCH   9  27
BRANCH  10  29
ATOM     29  C   UNL     1       2.879   4.423  20.686  0.00  0.00    +0.000 C 
ATOM     30  N   UNL     1       2.333   4.157  21.671  0.00  0.00    +0.000 NA
ENDBRANCH  10  29
TORSDOF 7
ENDMDL
MODEL 6
REMARK VINA RESULT:      -6.2      6.724      9.668
REMARK  Name = 
REMARK  7 active torsions:
REMARK  status: ('A' for Active; 'I' for Inactive)
REMARK    1  A    between atoms: C_2  and  C_3
REMARK    2  A    between atoms: C_3  and  O_4
REMARK    3  A    between atoms: O_4  and  C_5
REMARK    4  A    between atoms: C_8  and  C_9
REMARK    5  A    between atoms: C_17  and  C_18
REMARK    6  A    between atoms: C_17  and  C_20
REMARK    7  A    between atoms: C_22  and  C_23
REMARK                            x       y       z     vdW  Elec       q    Type
REMARK                         _______ _______ _______ _____ _____    ______ ____
ROOT
ATOM      1  C   UNL     1      -2.469  11.277  19.859  0.00  0.00    +0.000 C 
ATOM      2  O   UNL     1      -2.757  13.047  19.968  0.00  0.00    +0.000 OA
ATOM      3  C   UNL     1      -2.188  13.773  21.418  0.00  0.00    +0.000 C 
ATOM      4  C   UNL     1      -3.403  14.438  22.142  0.00  0.00    +0.000 C 
ATOM      5  C   UNL     1      -3.623  14.111  23.621  0.00  0.00    +0.000 C 
ATOM      6  C   UNL     1      -3.821  12.620  23.833  0.00  0.00    +0.000 C 
ATOM      7  C   UNL     1      -2.643  11.877  23.223  0.00  0.00    +0.000 C 
ATOM      8  C   UNL     1      -2.312  12.432  21.614  0.00  0.00    +0.000 C 
ATOM      9  C   UNL     1      -0.703  12.459  20.324  0.00  0.00    +0.000 C 
ATOM     10  C   UNL     1      -1.021  11.074  20.586  0.00  0.00    +0.000 C 
ATOM     11  C   UNL     1      -0.557  11.502  22.186  0.00  0.00    +0.000 C 
ATOM     12  N   UNL     1       0.078  10.861  23.101  0.00  0.00    +0.000 NA
ATOM     13  O   UNL     1      -0.937  13.130  22.358  0.00  0.00    +0.000 OA
ATOM     14  H   UNL     1       0.336   9.905  22.837  0.00  0.00    +0.000 HD
ENDROOT
BRANCH   1  18
ATOM     15  C   UNL     1      -3.310  10.804  15.722  0.00  0.00    +0.000 A 
ATOM     16  C   UNL     1      -2.250  10.097  16.296  0.00  0.00    +0.000 A 
ATOM     17  C   UNL     1      -2.028  10.140  17.660  0.00  0.00    +0.000 A 
ATOM     18  C   UNL     1      -2.809  10.973  18.439  0.00  0.00    +0.000 A 
ATOM     19  C   UNL     1      -3.962  11.562  17.889  0.00  0.00    +0.000 A 
ATOM     20  C   UNL     1      -4.191  11.507  16.526  0.00  0.00    +0.000 A 
BRANCH  15  21
ATOM     21  O   UNL     1      -3.554  10.873  14.386  0.00  0.00    +0.000 OA
BRANCH  21  22
ATOM     22  C   UNL     1      -3.044   9.770  13.648  0.00  0.00    +0.000 C 
BRANCH  22  24
ATOM     23  C   UNL     1      -5.073   9.662  12.223  0.00  0.00    +0.000 C 
ATOM     24  C   UNL     1      -3.749   9.765  12.332  0.00  0.00    +0.000 C 
ENDBRANCH  22  24
ENDBRANCH  21  22
ENDBRANCH  15  21
ENDBRANCH   1  18
BRANCH   9  25
ATOM     25  C   UNL     1       0.722  12.634  20.821  0.00  0.00    +0.000 C 
ATOM     26  N   UNL     1       1.904  12.780  21.234  0.00  0.00    +0.000 NA
ENDBRANCH   9  25
BRANCH   9  27
ATOM     27  C   UNL     1      -0.676  12.928  18.915  0.00  0.00    +0.000 C 
ATOM     28  N   UNL     1      -0.544  13.264  17.810  0.00  0.00    +0.000 NA
ENDBRANCH   9  27
BRANCH  10  29
ATOM     29  C   UNL     1      -0.196   9.973  20.156  0.00  0.00    +0.000 C 
ATOM     30  N   UNL     1       0.533   9.154  19.787  0.00  0.00    +0.000 NA
ENDBRANCH  10  29
TORSDOF 7
ENDMDL
MODEL 7
REMARK VINA RESULT:      -6.0      9.895     11.161
REMARK  Name = 
REMARK  7 active torsions:
REMARK  status: ('A' for Active; 'I' for Inactive)
REMARK    1  A    between atoms: C_2  and  C_3
REMARK    2  A    between atoms: C_3  and  O_4
REMARK    3  A    between atoms: O_4  and  C_5
REMARK    4  A    between atoms: C_8  and  C_9
REMARK    5  A    between atoms: C_17  and  C_18
REMARK    6  A    between atoms: C_17  and  C_20
REMARK    7  A    between atoms: C_22  and  C_23
REMARK                            x       y       z     vdW  Elec       q    Type
REMARK                         _______ _______ _______ _____ _____    ______ ____
ROOT
ATOM      1  C   UNL     1       8.199  13.013  21.192  0.00  0.00    +0.000 C 
ATOM      2  O   UNL     1       9.952  12.882  21.564  0.00  0.00    +0.000 OA
ATOM      3  C   UNL     1      10.990  13.367  20.283  0.00  0.00    +0.000 C 
ATOM      4  C   UNL     1      11.896  12.153  19.901  0.00  0.00    +0.000 C 
ATOM      5  C   UNL     1      11.978  11.756  18.425  0.00  0.00    +0.000 C 
ATOM      6  C   UNL     1      10.608  11.399  17.873  0.00  0.00    +0.000 C 
ATOM      7  C   UNL     1       9.658  12.558  18.130  0.00  0.00    +0.000 C 
ATOM      8  C   UNL     1       9.756  13.099  19.775  0.00  0.00    +0.000 C 
ATOM      9  C   UNL     1       9.344  14.826  20.827  0.00  0.00    +0.000 C 
ATOM     10  C   UNL     1       8.098  14.356  20.267  0.00  0.00    +0.000 C 
ATOM     11  C   UNL     1       8.894  14.693  18.781  0.00  0.00    +0.000 C 
ATOM     12  N   UNL     1       8.472  15.170  17.664  0.00  0.00    +0.000 NA
ATOM     13  O   UNL     1      10.532  14.452  19.068  0.00  0.00    +0.000 OA
ATOM     14  H   UNL     1       7.465  15.363  17.648  0.00  0.00    +0.000 HD
ENDROOT
BRANCH   1  18
ATOM     15  C   UNL     1       6.710  12.585  25.147  0.00  0.00    +0.000 A 
ATOM     16  C   UNL     1       6.050  13.428  24.249  0.00  0.00    +0.000 A 
ATOM     17  C   UNL     1       6.442  13.495  22.924  0.00  0.00    +0.000 A 
ATOM     18  C   UNL     1       7.560  12.790  22.521  0.00  0.00    +0.000 A 
ATOM     19  C   UNL     1       8.127  11.832  23.381  0.00  0.00    +0.000 A 
ATOM     20  C   UNL     1       7.726  11.756  24.702  0.00  0.00    +0.000 A 
BRANCH  15  21
ATOM     21  O   UNL     1       6.435  12.513  26.477  0.00  0.00    +0.000 OA
BRANCH  21  22
ATOM     22  C   UNL     1       5.142  12.988  26.827  0.00  0.00    +0.000 C 
BRANCH  22  24
ATOM     23  C   UNL     1       4.338  10.661  27.135  0.00  0.00    +0.000 C 
ATOM     24  C   UNL     1       4.475  11.902  27.603  0.00  0.00    +0.000 C 
ENDBRANCH  22  24
ENDBRANCH  21  22
ENDBRANCH  15  21
ENDBRANCH   1  18
BRANCH   9  25
ATOM     25  C   UNL     1       9.549  16.204  20.219  0.00  0.00    +0.000 C 
ATOM     26  N   UNL     1       9.720  17.346  19.715  0.00  0.00    +0.000 NA
ENDBRANCH   9  25
BRANCH   9  27
ATOM     27  C   UNL     1       9.430  15.038  22.294  0.00  0.00    +0.000 C 
ATOM     28  N   UNL     1       9.558  15.298  23.419  0.00  0.00    +0.000 NA
ENDBRANCH   9  27
BRANCH  10  29
ATOM     29  C   UNL     1       6.872  15.113  20.305  0.00  0.00    +0.000 C 
ATOM     30  N   UNL     1       5.937  15.795  20.301  0.00  0.00    +0.000 NA
ENDBRANCH  10  29
TORSDOF 7
ENDMDL
MODEL 8
REMARK VINA RESULT:      -5.9     10.805     12.808
REMARK  Name = 
REMARK  7 active torsions:
REMARK  status: ('A' for Active; 'I' for Inactive)
REMARK    1  A    between atoms: C_2  and  C_3
REMARK    2  A    between atoms: C_3  and  O_4
REMARK    3  A    between atoms: O_4  and  C_5
REMARK    4  A    between atoms: C_8  and  C_9
REMARK    5  A    between atoms: C_17  and  C_18
REMARK    6  A    between atoms: C_17  and  C_20
REMARK    7  A    between atoms: C_22  and  C_23
REMARK                            x       y       z     vdW  Elec       q    Type
REMARK                         _______ _______ _______ _____ _____    ______ ____
ROOT
ATOM      1  C   UNL     1      10.803  14.367  20.152  0.00  0.00    +0.000 C 
ATOM      2  O   UNL     1       9.655  14.684  21.498  0.00  0.00    +0.000 OA
ATOM      3  C   UNL     1       9.563  16.330  21.982  0.00  0.00    +0.000 C 
ATOM      4  C   UNL     1       9.957  16.420  23.490  0.00  0.00    +0.000 C 
ATOM      5  C   UNL     1      11.022  17.443  23.894  0.00  0.00    +0.000 C 
ATOM      6  C   UNL     1      12.333  17.190  23.171  0.00  0.00    +0.000 C 
ATOM      7  C   UNL     1      12.070  17.158  21.674  0.00  0.00    +0.000 C 
ATOM      8  C   UNL     1      10.721  16.136  21.294  0.00  0.00    +0.000 C 
ATOM      9  C   UNL     1       9.355  15.942  19.760  0.00  0.00    +0.000 C 
ATOM     10  C   UNL     1      10.665  15.689  19.204  0.00  0.00    +0.000 C 
ATOM     11  C   UNL     1      10.916  17.338  19.623  0.00  0.00    +0.000 C 
ATOM     12  N   UNL     1      11.561  18.287  19.044  0.00  0.00    +0.000 NA
ATOM     13  O   UNL     1       9.946  17.627  20.965  0.00  0.00    +0.000 OA
ATOM     14  H   UNL     1      12.035  18.003  18.182  0.00  0.00    +0.000 HD
ENDROOT
BRANCH   1  18
ATOM     15  C   UNL     1       9.512  10.439  19.175  0.00  0.00    +0.000 A 
ATOM     16  C   UNL     1       9.943  11.298  18.159  0.00  0.00    +0.000 A 
ATOM     17  C   UNL     1      10.479  12.536  18.460  0.00  0.00    +0.000 A 
ATOM     18  C   UNL     1      10.492  12.958  19.776  0.00  0.00    +0.000 A 
ATOM     19  C   UNL     1      10.201  12.042  20.803  0.00  0.00    +0.000 A 
ATOM     20  C   UNL     1       9.678  10.798  20.502  0.00  0.00    +0.000 A 
BRANCH  15  21
ATOM     21  O   UNL     1       8.909   9.239  18.963  0.00  0.00    +0.000 OA
BRANCH  21  22
ATOM     22  C   UNL     1       8.063   9.211  17.821  0.00  0.00    +0.000 C 
BRANCH  22  24
ATOM     23  C   UNL     1       6.557   7.291  17.372  0.00  0.00    +0.000 C 
ATOM     24  C   UNL     1       7.790   7.775  17.519  0.00  0.00    +0.000 C 
ENDBRANCH  22  24
ENDBRANCH  21  22
ENDBRANCH  15  21
ENDBRANCH   1  18
BRANCH   9  25
ATOM     25  C   UNL     1       8.831  17.145  18.994  0.00  0.00    +0.000 C 
ATOM     26  N   UNL     1       8.397  18.143  18.358  0.00  0.00    +0.000 NA
ENDBRANCH   9  25
BRANCH   9  27
ATOM     27  C   UNL     1       8.305  14.904  19.605  0.00  0.00    +0.000 C 
ATOM     28  N   UNL     1       7.485  14.114  19.371  0.00  0.00    +0.000 NA
ENDBRANCH   9  27
BRANCH  10  29
ATOM     29  C   UNL     1      10.915  15.540  17.793  0.00  0.00    +0.000 C 
ATOM     30  N   UNL     1      11.168  15.499  16.664  0.00  0.00    +0.000 NA
ENDBRANCH  10  29
TORSDOF 7
ENDMDL
MODEL 9
REMARK VINA RESULT:      -5.9      9.891     11.352
REMARK  Name = 
REMARK  7 active torsions:
REMARK  status: ('A' for Active; 'I' for Inactive)
REMARK    1  A    between atoms: C_2  and  C_3
REMARK    2  A    between atoms: C_3  and  O_4
REMARK    3  A    between atoms: O_4  and  C_5
REMARK    4  A    between atoms: C_8  and  C_9
REMARK    5  A    between atoms: C_17  and  C_18
REMARK    6  A    between atoms: C_17  and  C_20
REMARK    7  A    between atoms: C_22  and  C_23
REMARK                            x       y       z     vdW  Elec       q    Type
REMARK                         _______ _______ _______ _____ _____    ______ ____
ROOT
ATOM      1  C   UNL     1       8.310  13.162  21.283  0.00  0.00    +0.000 C 
ATOM      2  O   UNL     1      10.091  13.041  21.486  0.00  0.00    +0.000 OA
ATOM      3  C   UNL     1      10.996  13.424  20.076  0.00  0.00    +0.000 C 
ATOM      4  C   UNL     1      11.856  12.178  19.692  0.00  0.00    +0.000 C 
ATOM      5  C   UNL     1      11.787  11.676  18.247  0.00  0.00    +0.000 C 
ATOM      6  C   UNL     1      10.368  11.294  17.863  0.00  0.00    +0.000 C 
ATOM      7  C   UNL     1       9.451  12.477  18.131  0.00  0.00    +0.000 C 
ATOM      8  C   UNL     1       9.716  13.133  19.715  0.00  0.00    +0.000 C 
ATOM      9  C   UNL     1       9.417  14.933  20.676  0.00  0.00    +0.000 C 
ATOM     10  C   UNL     1       8.119  14.437  20.280  0.00  0.00    +0.000 C 
ATOM     11  C   UNL     1       8.762  14.661  18.701  0.00  0.00    +0.000 C 
ATOM     12  N   UNL     1       8.230  15.061  17.601  0.00  0.00    +0.000 NA
ATOM     13  O   UNL     1      10.420  14.425  18.838  0.00  0.00    +0.000 OA
ATOM     14  H   UNL     1       7.228  15.262  17.672  0.00  0.00    +0.000 HD
ENDROOT
BRANCH   1  18
ATOM     15  C   UNL     1       6.574  12.569  25.115  0.00  0.00    +0.000 A 
ATOM     16  C   UNL     1       7.814  11.994  24.822  0.00  0.00    +0.000 A 
ATOM     17  C   UNL     1       8.456  12.267  23.628  0.00  0.00    +0.000 A 
ATOM     18  C   UNL     1       7.809  13.040  22.682  0.00  0.00    +0.000 A 
ATOM     19  C   UNL     1       6.639  13.737  23.035  0.00  0.00    +0.000 A 
ATOM     20  C   UNL     1       6.004  13.473  24.235  0.00  0.00    +0.000 A 
BRANCH  15  21
ATOM     21  O   UNL     1       5.845  12.297  26.230  0.00  0.00    +0.000 OA
BRANCH  21  22
ATOM     22  C   UNL     1       5.818  10.920  26.581  0.00  0.00    +0.000 C 
BRANCH  22  24
ATOM     23  C   UNL     1       6.411   9.662  28.636  0.00  0.00    +0.000 C 
ATOM     24  C   UNL     1       6.291  10.823  27.994  0.00  0.00    +0.000 C 
ENDBRANCH  22  24
ENDBRANCH  21  22
ENDBRANCH  15  21
ENDBRANCH   1  18
BRANCH   9  25
ATOM     25  C   UNL     1       9.562  16.263  19.954  0.00  0.00    +0.000 C 
ATOM     26  N   UNL     1       9.682  17.366  19.356  0.00  0.00    +0.000 NA
ENDBRANCH   9  25
BRANCH   9  27
ATOM     27  C   UNL     1       9.650  15.248  22.108  0.00  0.00    +0.000 C 
ATOM     28  N   UNL     1       9.809  15.604  23.203  0.00  0.00    +0.000 NA
ENDBRANCH   9  27
BRANCH  10  29
ATOM     29  C   UNL     1       6.905  15.206  20.386  0.00  0.00    +0.000 C 
ATOM     30  N   UNL     1       5.969  15.887  20.411  0.00  0.00    +0.000 NA
ENDBRANCH  10  29
TORSDOF 7
ENDMDL
