MODEL 1
REMARK VINA RESULT:      -7.6      0.000      0.000
REMARK  Name = 
REMARK  7 active torsions:
REMARK  status: ('A' for Active; 'I' for Inactive)
REMARK    1  A    between atoms: C_1  and  C_2
REMARK    2  A    between atoms: C_2  and  O_3
REMARK    3  A    between atoms: O_3  and  C_4
REMARK    4  A    between atoms: C_9  and  N_10
REMARK    5  A    between atoms: N_10  and  C_11
REMARK    6  A    between atoms: C_12  and  C_14
REMARK    7  A    between atoms: N_16  and  C_17
REMARK                            x       y       z     vdW  Elec       q    Type
REMARK                         _______ _______ _______ _____ _____    ______ ____
ROOT
ATOM      1  N   UNL     1       1.077   8.853  20.301  0.00  0.00    +0.000 N 
ATOM      2  C   UNL     1       1.243   9.006  21.756  0.00  0.00    +0.000 C 
ATOM      3  C   UNL     1       0.598   9.956  19.544  0.00  0.00    +0.000 C 
ATOM      4  O   UNL     1       1.339  10.913  19.316  0.00  0.00    +0.000 OA
ENDROOT
BRANCH   3   5
ATOM      5  C   UNL     1      -0.935  10.039  19.303  0.00  0.00    +0.000 A 
ATOM      6  C   UNL     1      -1.138  10.994  20.237  0.00  0.00    +0.000 A 
ATOM      7  N   UNL     1      -1.581  12.251  19.797  0.00  0.00    +0.000 N 
ATOM      8  C   UNL     1      -0.716  12.929  18.780  0.00  0.00    +0.000 C 
ATOM      9  C   UNL     1      -2.889  12.130  19.365  0.00  0.00    +0.000 A 
ATOM     10  O   UNL     1      -3.814  12.817  19.754  0.00  0.00    +0.000 OA
ATOM     11  C   UNL     1      -3.006  11.160  18.258  0.00  0.00    +0.000 A 
ATOM     12  C   UNL     1      -4.044  11.445  17.349  0.00  0.00    +0.000 A 
ATOM     13  C   UNL     1      -3.935  10.917  16.076  0.00  0.00    +0.000 A 
ATOM     14  C   UNL     1      -2.841  10.139  15.771  0.00  0.00    +0.000 A 
ATOM     15  C   UNL     1      -1.819   9.791  16.746  0.00  0.00    +0.000 A 
ATOM     16  C   UNL     1      -1.874  10.283  18.046  0.00  0.00    +0.000 A 
ENDBRANCH   3   5
BRANCH   1  22
ATOM     17  C   UNL     1       2.169   6.558  19.845  0.00  0.00    +0.000 A 
ATOM     18  C   UNL     1       2.708   5.757  18.824  0.00  0.00    +0.000 A 
ATOM     19  C   UNL     1       3.135   6.314  17.619  0.00  0.00    +0.000 A 
ATOM     20  C   UNL     1       3.096   7.684  17.438  0.00  0.00    +0.000 A 
ATOM     21  C   UNL     1       2.508   8.480  18.425  0.00  0.00    +0.000 A 
ATOM     22  C   UNL     1       1.953   7.938  19.594  0.00  0.00    +0.000 A 
BRANCH  17  23
ATOM     23  O   UNL     1       1.851   5.829  20.970  0.00  0.00    +0.000 OA
BRANCH  23  25
ATOM     24  C   UNL     1       1.073   3.495  20.692  0.00  0.00    +0.000 C 
ATOM     25  C   UNL     1       2.240   4.444  20.942  0.00  0.00    +0.000 C 
ENDBRANCH  23  25
ENDBRANCH  17  23
ENDBRANCH   1  22
TORSDOF 4
ENDMDL
MODEL 2
REMARK VINA RESULT:      -7.5      2.450      4.521
REMARK  Name = 
REMARK  7 active torsions:
REMARK  status: ('A' for Active; 'I' for Inactive)
REMARK    1  A    between atoms: C_1  and  C_2
REMARK    2  A    between atoms: C_2  and  O_3
REMARK    3  A    between atoms: O_3  and  C_4
REMARK    4  A    between atoms: C_9  and  N_10
REMARK    5  A    between atoms: N_10  and  C_11
REMARK    6  A    between atoms: C_12  and  C_14
REMARK    7  A    between atoms: N_16  and  C_17
REMARK                            x       y       z     vdW  Elec       q    Type
REMARK                         _______ _______ _______ _____ _____    ______ ____
ROOT
ATOM      1  N   UNL     1       2.935   6.619  18.919  0.00  0.00    +0.000 N 
ATOM      2  C   UNL     1       4.346   6.633  18.502  0.00  0.00    +0.000 C 
ATOM      3  C   UNL     1       2.091   7.692  18.526  0.00  0.00    +0.000 C 
ATOM      4  O   UNL     1       1.702   7.772  17.361  0.00  0.00    +0.000 OA
ENDROOT
BRANCH   3   5
ATOM      5  C   UNL     1       1.952   8.884  19.513  0.00  0.00    +0.000 A 
ATOM      6  C   UNL     1       1.935   9.825  18.543  0.00  0.00    +0.000 A 
ATOM      7  N   UNL     1       0.757  10.569  18.378  0.00  0.00    +0.000 N 
ATOM      8  C   UNL     1      -0.487   9.776  18.123  0.00  0.00    +0.000 C 
ATOM      9  C   UNL     1       0.617  11.416  19.463  0.00  0.00    +0.000 A 
ATOM     10  O   UNL     1       0.453  12.618  19.387  0.00  0.00    +0.000 OA
ATOM     11  C   UNL     1       0.541  10.663  20.731  0.00  0.00    +0.000 A 
ATOM     12  C   UNL     1      -0.237  11.287  21.726  0.00  0.00    +0.000 A 
ATOM     13  C   UNL     1      -0.757  10.481  22.723  0.00  0.00    +0.000 A 
ATOM     14  C   UNL     1      -0.479   9.134  22.699  0.00  0.00    +0.000 A 
ATOM     15  C   UNL     1       0.392   8.520  21.708  0.00  0.00    +0.000 A 
ATOM     16  C   UNL     1       0.954   9.276  20.684  0.00  0.00    +0.000 A 
ENDBRANCH   3   5
BRANCH   1  22
ATOM     17  C   UNL     1       2.399   4.166  18.317  0.00  0.00    +0.000 A 
ATOM     18  C   UNL     1       2.034   2.929  18.875  0.00  0.00    +0.000 A 
ATOM     19  C   UNL     1       1.455   2.852  20.142  0.00  0.00    +0.000 A 
ATOM     20  C   UNL     1       1.166   4.008  20.842  0.00  0.00    +0.000 A 
ATOM     21  C   UNL     1       1.579   5.236  20.318  0.00  0.00    +0.000 A 
ATOM     22  C   UNL     1       2.278   5.339  19.107  0.00  0.00    +0.000 A 
BRANCH  17  23
ATOM     23  O   UNL     1       2.910   4.035  17.044  0.00  0.00    +0.000 OA
BRANCH  23  25
ATOM     24  C   UNL     1       5.131   4.149  15.958  0.00  0.00    +0.000 C 
ATOM     25  C   UNL     1       4.220   3.447  16.959  0.00  0.00    +0.000 C 
ENDBRANCH  23  25
ENDBRANCH  17  23
ENDBRANCH   1  22
TORSDOF 4
ENDMDL
MODEL 3
REMARK VINA RESULT:      -7.4      2.320      7.283
REMARK  Name = 
REMARK  7 active torsions:
REMARK  status: ('A' for Active; 'I' for Inactive)
REMARK    1  A    between atoms: C_1  and  C_2
REMARK    2  A    between atoms: C_2  and  O_3
REMARK    3  A    between atoms: O_3  and  C_4
REMARK    4  A    between atoms: C_9  and  N_10
REMARK    5  A    between atoms: N_10  and  C_11
REMARK    6  A    between atoms: C_12  and  C_14
REMARK    7  A    between atoms: N_16  and  C_17
REMARK                            x       y       z     vdW  Elec       q    Type
REMARK                         _______ _______ _______ _____ _____    ______ ____
ROOT
ATOM      1  N   UNL     1       1.680   8.956  18.309  0.00  0.00    +0.000 N 
ATOM      2  C   UNL     1       2.781   9.869  17.961  0.00  0.00    +0.000 C 
ATOM      3  C   UNL     1       1.985   7.713  18.925  0.00  0.00    +0.000 C 
ATOM      4  O   UNL     1       2.329   7.682  20.108  0.00  0.00    +0.000 OA
ENDROOT
BRANCH   3   5
ATOM      5  C   UNL     1       2.169   6.485  17.993  0.00  0.00    +0.000 A 
ATOM      6  C   UNL     1       3.396   6.858  17.565  0.00  0.00    +0.000 A 
ATOM      7  N   UNL     1       4.482   6.038  17.907  0.00  0.00    +0.000 N 
ATOM      8  C   UNL     1       4.678   5.790  19.370  0.00  0.00    +0.000 C 
ATOM      9  C   UNL     1       4.386   4.859  17.190  0.00  0.00    +0.000 A 
ATOM     10  O   UNL     1       5.268   4.397  16.495  0.00  0.00    +0.000 OA
ATOM     11  C   UNL     1       3.128   4.146  17.489  0.00  0.00    +0.000 A 
ATOM     12  C   UNL     1       3.221   2.744  17.388  0.00  0.00    +0.000 A 
ATOM     13  C   UNL     1       2.295   1.994  18.090  0.00  0.00    +0.000 A 
ATOM     14  C   UNL     1       1.334   2.648  18.828  0.00  0.00    +0.000 A 
ATOM     15  C   UNL     1       1.204   4.096  18.856  0.00  0.00    +0.000 A 
ATOM     16  C   UNL     1       2.099   4.908  18.165  0.00  0.00    +0.000 A 
ENDBRANCH   3   5
BRANCH   1  22
ATOM     17  C   UNL     1       0.019  10.236  19.817  0.00  0.00    +0.000 A 
ATOM     18  C   UNL     1      -1.121  11.058  19.783  0.00  0.00    +0.000 A 
ATOM     19  C   UNL     1      -1.951  11.094  18.663  0.00  0.00    +0.000 A 
ATOM     20  C   UNL     1      -1.698  10.264  17.587  0.00  0.00    +0.000 A 
ATOM     21  C   UNL     1      -0.536   9.489  17.590  0.00  0.00    +0.000 A 
ATOM     22  C   UNL     1       0.387   9.524  18.646  0.00  0.00    +0.000 A 
BRANCH  17  23
ATOM     23  O   UNL     1       0.678  10.305  21.024  0.00  0.00    +0.000 OA
BRANCH  23  25
ATOM     24  C   UNL     1      -0.232   9.568  23.205  0.00  0.00    +0.000 C 
ATOM     25  C   UNL     1      -0.134  10.669  22.155  0.00  0.00    +0.000 C 
ENDBRANCH  23  25
ENDBRANCH  17  23
ENDBRANCH   1  22
TORSDOF 4
ENDMDL
MODEL 4
REMARK VINA RESULT:      -7.3      3.922      6.586
REMARK  Name = 
REMARK  7 active torsions:
REMARK  status: ('A' for Active; 'I' for Inactive)
REMARK    1  A    between atoms: C_1  and  C_2
REMARK    2  A    between atoms: C_2  and  O_3
REMARK    3  A    between atoms: O_3  and  C_4
REMARK    4  A    between atoms: C_9  and  N_10
REMARK    5  A    between atoms: N_10  and  C_11
REMARK    6  A    between atoms: C_12  and  C_14
REMARK    7  A    between atoms: N_16  and  C_17
REMARK                            x       y       z     vdW  Elec       q    Type
REMARK                         _______ _______ _______ _____ _____    ______ ____
ROOT
ATOM      1  N   UNL     1      -0.563  14.061  20.743  0.00  0.00    +0.000 N 
ATOM      2  C   UNL     1      -1.736  14.386  21.570  0.00  0.00    +0.000 C 
ATOM      3  C   UNL     1       0.702  14.600  21.101  0.00  0.00    +0.000 C 
ATOM      4  O   UNL     1       1.311  14.147  22.070  0.00  0.00    +0.000 OA
ENDROOT
BRANCH   3   5
ATOM      5  C   UNL     1       1.113  15.944  20.439  0.00  0.00    +0.000 A 
ATOM      6  C   UNL     1       2.433  15.654  20.417  0.00  0.00    +0.000 A 
ATOM      7  N   UNL     1       3.048  15.510  19.164  0.00  0.00    +0.000 N 
ATOM      8  C   UNL     1       2.445  14.484  18.255  0.00  0.00    +0.000 C 
ATOM      9  C   UNL     1       3.120  16.754  18.564  0.00  0.00    +0.000 A 
ATOM     10  O   UNL     1       4.138  17.255  18.128  0.00  0.00    +0.000 OA
ATOM     11  C   UNL     1       1.779  17.345  18.381  0.00  0.00    +0.000 A 
ATOM     12  C   UNL     1       1.670  18.190  17.260  0.00  0.00    +0.000 A 
ATOM     13  C   UNL     1       0.405  18.391  16.737  0.00  0.00    +0.000 A 
ATOM     14  C   UNL     1      -0.667  17.775  17.341  0.00  0.00    +0.000 A 
ATOM     15  C   UNL     1      -0.545  16.970  18.546  0.00  0.00    +0.000 A 
ATOM     16  C   UNL     1       0.698  16.736  19.127  0.00  0.00    +0.000 A 
ENDBRANCH   3   5
BRANCH   1  22
ATOM     17  C   UNL     1      -0.250  11.501  20.600  0.00  0.00    +0.000 A 
ATOM     18  C   UNL     1      -0.670  10.358  19.899  0.00  0.00    +0.000 A 
ATOM     19  C   UNL     1      -1.251  10.461  18.635  0.00  0.00    +0.000 A 
ATOM     20  C   UNL     1      -1.359  11.695  18.021  0.00  0.00    +0.000 A 
ATOM     21  C   UNL     1      -0.997  12.839  18.736  0.00  0.00    +0.000 A 
ATOM     22  C   UNL     1      -0.529  12.782  20.057  0.00  0.00    +0.000 A 
BRANCH  17  23
ATOM     23  O   UNL     1       0.339  11.188  21.806  0.00  0.00    +0.000 OA
BRANCH  23  25
ATOM     24  C   UNL     1      -0.152   9.357  23.398  0.00  0.00    +0.000 C 
ATOM     25  C   UNL     1      -0.555  10.713  22.829  0.00  0.00    +0.000 C 
ENDBRANCH  23  25
ENDBRANCH  17  23
ENDBRANCH   1  22
TORSDOF 4
ENDMDL
MODEL 5
REMARK VINA RESULT:      -7.3      2.425      7.644
REMARK  Name = 
REMARK  7 active torsions:
REMARK  status: ('A' for Active; 'I' for Inactive)
REMARK    1  A    between atoms: C_1  and  C_2
REMARK    2  A    between atoms: C_2  and  O_3
REMARK    3  A    between atoms: O_3  and  C_4
REMARK    4  A    between atoms: C_9  and  N_10
REMARK    5  A    between atoms: N_10  and  C_11
REMARK    6  A    between atoms: C_12  and  C_14
REMARK    7  A    between atoms: N_16  and  C_17
REMARK                            x       y       z     vdW  Elec       q    Type
REMARK                         _______ _______ _______ _____ _____    ______ ____
ROOT
ATOM      1  N   UNL     1       1.336   8.477  18.593  0.00  0.00    +0.000 N 
ATOM      2  C   UNL     1       0.761   9.113  17.397  0.00  0.00    +0.000 C 
ATOM      3  C   UNL     1       2.475   7.640  18.447  0.00  0.00    +0.000 C 
ATOM      4  O   UNL     1       3.580   8.138  18.231  0.00  0.00    +0.000 OA
ENDROOT
BRANCH   3   5
ATOM      5  C   UNL     1       2.218   6.120  18.257  0.00  0.00    +0.000 A 
ATOM      6  C   UNL     1       3.291   5.928  17.458  0.00  0.00    +0.000 A 
ATOM      7  N   UNL     1       4.323   5.109  17.939  0.00  0.00    +0.000 N 
ATOM      8  C   UNL     1       4.925   5.518  19.247  0.00  0.00    +0.000 C 
ATOM      9  C   UNL     1       3.872   3.802  17.963  0.00  0.00    +0.000 A 
ATOM     10  O   UNL     1       4.439   2.864  17.437  0.00  0.00    +0.000 OA
ATOM     11  C   UNL     1       2.690   3.653  18.834  0.00  0.00    +0.000 A 
ATOM     12  C   UNL     1       2.580   2.389  19.446  0.00  0.00    +0.000 A 
ATOM     13  C   UNL     1       1.829   2.308  20.605  0.00  0.00    +0.000 A 
ATOM     14  C   UNL     1       1.224   3.448  21.084  0.00  0.00    +0.000 A 
ATOM     15  C   UNL     1       1.284   4.728  20.395  0.00  0.00    +0.000 A 
ATOM     16  C   UNL     1       2.015   4.874  19.221  0.00  0.00    +0.000 A 
ENDBRANCH   3   5
BRANCH   1  22
ATOM     17  C   UNL     1       0.942  10.531  20.108  0.00  0.00    +0.000 A 
ATOM     18  C   UNL     1       0.454  10.916  21.369  0.00  0.00    +0.000 A 
ATOM     19  C   UNL     1       0.347   9.997  22.412  0.00  0.00    +0.000 A 
ATOM     20  C   UNL     1       0.787   8.698  22.239  0.00  0.00    +0.000 A 
ATOM     21  C   UNL     1       1.218   8.295  20.973  0.00  0.00    +0.000 A 
ATOM     22  C   UNL     1       1.219   9.160  19.869  0.00  0.00    +0.000 A 
BRANCH  17  23
ATOM     23  O   UNL     1       1.015  11.590  19.230  0.00  0.00    +0.000 OA
BRANCH  23  25
ATOM     24  C   UNL     1      -1.158  12.283  18.269  0.00  0.00    +0.000 C 
ATOM     25  C   UNL     1      -0.067  12.535  19.304  0.00  0.00    +0.000 C 
ENDBRANCH  23  25
ENDBRANCH  17  23
ENDBRANCH   1  22
TORSDOF 4
ENDMDL
MODEL 6
REMARK VINA RESULT:      -7.2      3.956      8.330
REMARK  Name = 
REMARK  7 active torsions:
REMARK  status: ('A' for Active; 'I' for Inactive)
REMARK    1  A    between atoms: C_1  and  C_2
REMARK    2  A    between atoms: C_2  and  O_3
REMARK    3  A    between atoms: O_3  and  C_4
REMARK    4  A    between atoms: C_9  and  N_10
REMARK    5  A    between atoms: N_10  and  C_11
REMARK    6  A    between atoms: C_12  and  C_14
REMARK    7  A    between atoms: N_16  and  C_17
REMARK                            x       y       z     vdW  Elec       q    Type
REMARK                         _______ _______ _______ _____ _____    ______ ____
ROOT
ATOM      1  N   UNL     1       2.312   5.647  19.527  0.00  0.00    +0.000 N 
ATOM      2  C   UNL     1       1.795   5.060  20.774  0.00  0.00    +0.000 C 
ATOM      3  C   UNL     1       2.527   4.802  18.405  0.00  0.00    +0.000 C 
ATOM      4  O   UNL     1       1.566   4.382  17.760  0.00  0.00    +0.000 OA
ENDROOT
BRANCH   3   5
ATOM      5  C   UNL     1       3.948   4.198  18.235  0.00  0.00    +0.000 A 
ATOM      6  C   UNL     1       3.787   3.914  16.923  0.00  0.00    +0.000 A 
ATOM      7  N   UNL     1       4.594   4.601  16.004  0.00  0.00    +0.000 N 
ATOM      8  C   UNL     1       4.515   6.095  16.054  0.00  0.00    +0.000 C 
ATOM      9  C   UNL     1       5.894   4.147  16.135  0.00  0.00    +0.000 A 
ATOM     10  O   UNL     1       6.576   3.725  15.222  0.00  0.00    +0.000 OA
ATOM     11  C   UNL     1       6.411   4.375  17.499  0.00  0.00    +0.000 A 
ATOM     12  C   UNL     1       7.802   4.593  17.560  0.00  0.00    +0.000 A 
ATOM     13  C   UNL     1       8.291   5.272  18.660  0.00  0.00    +0.000 A 
ATOM     14  C   UNL     1       7.407   5.680  19.634  0.00  0.00    +0.000 A 
ATOM     15  C   UNL     1       5.985   5.376  19.593  0.00  0.00    +0.000 A 
ATOM     16  C   UNL     1       5.431   4.689  18.517  0.00  0.00    +0.000 A 
ENDBRANCH   3   5
BRANCH   1  22
ATOM     17  C   UNL     1       1.550   8.045  20.110  0.00  0.00    +0.000 A 
ATOM     18  C   UNL     1       1.687   9.389  19.724  0.00  0.00    +0.000 A 
ATOM     19  C   UNL     1       2.133   9.731  18.447  0.00  0.00    +0.000 A 
ATOM     20  C   UNL     1       2.383   8.743  17.514  0.00  0.00    +0.000 A 
ATOM     21  C   UNL     1       2.304   7.405  17.908  0.00  0.00    +0.000 A 
ATOM     22  C   UNL     1       1.983   7.027  19.220  0.00  0.00    +0.000 A 
BRANCH  17  23
ATOM     23  O   UNL     1       1.053   7.916  21.388  0.00  0.00    +0.000 OA
BRANCH  23  25
ATOM     24  C   UNL     1      -0.210   9.408  22.907  0.00  0.00    +0.000 C 
ATOM     25  C   UNL     1      -0.206   8.568  21.634  0.00  0.00    +0.000 C 
ENDBRANCH  23  25
ENDBRANCH  17  23
ENDBRANCH   1  22
TORSDOF 4
ENDMDL
MODEL 7
REMARK VINA RESULT:      -7.1      3.355      8.068
REMARK  Name = 
REMARK  7 active torsions:
REMARK  status: ('A' for Active; 'I' for Inactive)
REMARK    1  A    between atoms: C_1  and  C_2
REMARK    2  A    between atoms: C_2  and  O_3
REMARK    3  A    between atoms: O_3  and  C_4
REMARK    4  A    between atoms: C_9  and  N_10
REMARK    5  A    between atoms: N_10  and  C_11
REMARK    6  A    between atoms: C_12  and  C_14
REMARK    7  A    between atoms: N_16  and  C_17
REMARK                            x       y       z     vdW  Elec       q    Type
REMARK                         _______ _______ _______ _____ _____    ______ ____
ROOT
ATOM      1  N   UNL     1       2.613   6.975  19.338  0.00  0.00    +0.000 N 
ATOM      2  C   UNL     1       2.624   6.185  20.579  0.00  0.00    +0.000 C 
ATOM      3  C   UNL     1       2.863   6.320  18.102  0.00  0.00    +0.000 C 
ATOM      4  O   UNL     1       1.997   5.600  17.603  0.00  0.00    +0.000 OA
ENDROOT
BRANCH   3   5
ATOM      5  C   UNL     1       4.331   6.295  17.596  0.00  0.00    +0.000 A 
ATOM      6  C   UNL     1       4.857   6.004  18.807  0.00  0.00    +0.000 A 
ATOM      7  N   UNL     1       5.494   4.762  18.958  0.00  0.00    +0.000 N 
ATOM      8  C   UNL     1       4.664   3.559  18.634  0.00  0.00    +0.000 C 
ATOM      9  C   UNL     1       6.676   4.784  18.241  0.00  0.00    +0.000 A 
ATOM     10  O   UNL     1       7.769   4.514  18.699  0.00  0.00    +0.000 OA
ATOM     11  C   UNL     1       6.434   5.033  16.806  0.00  0.00    +0.000 A 
ATOM     12  C   UNL     1       7.377   4.432  15.949  0.00  0.00    +0.000 A 
ATOM     13  C   UNL     1       6.989   4.195  14.644  0.00  0.00    +0.000 A 
ATOM     14  C   UNL     1       5.724   4.568  14.250  0.00  0.00    +0.000 A 
ATOM     15  C   UNL     1       4.791   5.259  15.127  0.00  0.00    +0.000 A 
ATOM     16  C   UNL     1       5.124   5.535  16.450  0.00  0.00    +0.000 A 
ENDBRANCH   3   5
BRANCH   1  22
ATOM     17  C   UNL     1       1.020   8.759  20.312  0.00  0.00    +0.000 A 
ATOM     18  C   UNL     1       0.602  10.092  20.158  0.00  0.00    +0.000 A 
ATOM     19  C   UNL     1       0.800  10.777  18.960  0.00  0.00    +0.000 A 
ATOM     20  C   UNL     1       1.355  10.125  17.874  0.00  0.00    +0.000 A 
ATOM     21  C   UNL     1       1.825   8.819  18.038  0.00  0.00    +0.000 A 
ATOM     22  C   UNL     1       1.757   8.146  19.266  0.00  0.00    +0.000 A 
BRANCH  17  23
ATOM     23  O   UNL     1       0.693   8.248  21.549  0.00  0.00    +0.000 OA
BRANCH  23  25
ATOM     24  C   UNL     1      -0.155   9.600  23.441  0.00  0.00    +0.000 C 
ATOM     25  C   UNL     1      -0.472   8.821  22.169  0.00  0.00    +0.000 C 
ENDBRANCH  23  25
ENDBRANCH  17  23
ENDBRANCH   1  22
TORSDOF 4
ENDMDL
MODEL 8
REMARK VINA RESULT:      -7.1      5.742      8.146
REMARK  Name = 
REMARK  7 active torsions:
REMARK  status: ('A' for Active; 'I' for Inactive)
REMARK    1  A    between atoms: C_1  and  C_2
REMARK    2  A    between atoms: C_2  and  O_3
REMARK    3  A    between atoms: O_3  and  C_4
REMARK    4  A    between atoms: C_9  and  N_10
REMARK    5  A    between atoms: N_10  and  C_11
REMARK    6  A    between atoms: C_12  and  C_14
REMARK    7  A    between atoms: N_16  and  C_17
REMARK                            x       y       z     vdW  Elec       q    Type
REMARK                         _______ _______ _______ _____ _____    ______ ____
ROOT
ATOM      1  N   UNL     1       5.391   5.862  16.547  0.00  0.00    +0.000 N 
ATOM      2  C   UNL     1       5.214   6.770  15.402  0.00  0.00    +0.000 C 
ATOM      3  C   UNL     1       4.720   4.609  16.542  0.00  0.00    +0.000 C 
ATOM      4  O   UNL     1       5.121   3.701  15.813  0.00  0.00    +0.000 OA
ENDROOT
BRANCH   3   5
ATOM      5  C   UNL     1       3.327   4.547  17.225  0.00  0.00    +0.000 A 
ATOM      6  C   UNL     1       3.313   3.199  17.320  0.00  0.00    +0.000 A 
ATOM      7  N   UNL     1       3.332   2.636  18.605  0.00  0.00    +0.000 N 
ATOM      8  C   UNL     1       4.477   3.041  19.479  0.00  0.00    +0.000 C 
ATOM      9  C   UNL     1       2.110   2.879  19.208  0.00  0.00    +0.000 A 
ATOM     10  O   UNL     1       1.399   2.024  19.701  0.00  0.00    +0.000 OA
ATOM     11  C   UNL     1       1.838   4.326  19.317  0.00  0.00    +0.000 A 
ATOM     12  C   UNL     1       1.053   4.683  20.430  0.00  0.00    +0.000 A 
ATOM     13  C   UNL     1       1.148   5.986  20.882  0.00  0.00    +0.000 A 
ATOM     14  C   UNL     1       1.981   6.859  20.220  0.00  0.00    +0.000 A 
ATOM     15  C   UNL     1       2.723   6.493  19.023  0.00  0.00    +0.000 A 
ATOM     16  C   UNL     1       2.665   5.200  18.512  0.00  0.00    +0.000 A 
ENDBRANCH   3   5
BRANCH   1  22
ATOM     17  C   UNL     1       7.286   7.024  17.861  0.00  0.00    +0.000 A 
ATOM     18  C   UNL     1       8.244   6.813  18.867  0.00  0.00    +0.000 A 
ATOM     19  C   UNL     1       8.651   5.526  19.218  0.00  0.00    +0.000 A 
ATOM     20  C   UNL     1       8.163   4.433  18.526  0.00  0.00    +0.000 A 
ATOM     21  C   UNL     1       7.168   4.631  17.565  0.00  0.00    +0.000 A 
ATOM     22  C   UNL     1       6.644   5.900  17.277  0.00  0.00    +0.000 A 
BRANCH  17  23
ATOM     23  O   UNL     1       7.054   8.362  17.631  0.00  0.00    +0.000 OA
BRANCH  23  25
ATOM     24  C   UNL     1       8.616  10.003  18.630  0.00  0.00    +0.000 C 
ATOM     25  C   UNL     1       8.227   9.167  17.415  0.00  0.00    +0.000 C 
ENDBRANCH  23  25
ENDBRANCH  17  23
ENDBRANCH   1  22
TORSDOF 4
ENDMDL
MODEL 9
REMARK VINA RESULT:      -7.1      3.398      5.599
REMARK  Name = 
REMARK  7 active torsions:
REMARK  status: ('A' for Active; 'I' for Inactive)
REMARK    1  A    between atoms: C_1  and  C_2
REMARK    2  A    between atoms: C_2  and  O_3
REMARK    3  A    between atoms: O_3  and  C_4
REMARK    4  A    between atoms: C_9  and  N_10
REMARK    5  A    between atoms: N_10  and  C_11
REMARK    6  A    between atoms: C_12  and  C_14
REMARK    7  A    between atoms: N_16  and  C_17
REMARK                            x       y       z     vdW  Elec       q    Type
REMARK                         _______ _______ _______ _____ _____    ______ ____
ROOT
ATOM      1  N   UNL     1      -0.640  11.301  21.459  0.00  0.00    +0.000 N 
ATOM      2  C   UNL     1      -0.170  10.110  22.184  0.00  0.00    +0.000 C 
ATOM      3  C   UNL     1      -0.211  12.584  21.894  0.00  0.00    +0.000 C 
ATOM      4  O   UNL     1       0.942  12.954  21.671  0.00  0.00    +0.000 OA
ENDROOT
BRANCH   3   5
ATOM      5  C   UNL     1      -1.124  13.334  22.902  0.00  0.00    +0.000 A 
ATOM      6  C   UNL     1      -0.513  14.527  22.734  0.00  0.00    +0.000 A 
ATOM      7  N   UNL     1      -1.261  15.568  22.163  0.00  0.00    +0.000 N 
ATOM      8  C   UNL     1      -1.857  15.284  20.820  0.00  0.00    +0.000 C 
ATOM      9  C   UNL     1      -2.217  15.975  23.078  0.00  0.00    +0.000 A 
ATOM     10  O   UNL     1      -2.377  17.121  23.449  0.00  0.00    +0.000 OA
ATOM     11  C   UNL     1      -3.124  14.868  23.441  0.00  0.00    +0.000 A 
ATOM     12  C   UNL     1      -4.431  15.277  23.770  0.00  0.00    +0.000 A 
ATOM     13  C   UNL     1      -5.440  14.340  23.649  0.00  0.00    +0.000 A 
ATOM     14  C   UNL     1      -5.117  13.068  23.232  0.00  0.00    +0.000 A 
ATOM     15  C   UNL     1      -3.751  12.641  22.973  0.00  0.00    +0.000 A 
ATOM     16  C   UNL     1      -2.689  13.534  23.085  0.00  0.00    +0.000 A 
ENDBRANCH   3   5
BRANCH   1  22
ATOM     17  C   UNL     1      -0.219  10.454  19.057  0.00  0.00    +0.000 A 
ATOM     18  C   UNL     1      -0.870  10.114  17.858  0.00  0.00    +0.000 A 
ATOM     19  C   UNL     1      -2.156  10.575  17.580  0.00  0.00    +0.000 A 
ATOM     20  C   UNL     1      -2.788  11.437  18.457  0.00  0.00    +0.000 A 
ATOM     21  C   UNL     1      -2.171  11.732  19.676  0.00  0.00    +0.000 A 
ATOM     22  C   UNL     1      -0.933  11.184  20.043  0.00  0.00    +0.000 A 
BRANCH  17  23
ATOM     23  O   UNL     1       1.058   9.941  19.122  0.00  0.00    +0.000 OA
BRANCH  23  25
ATOM     24  C   UNL     1       2.328   8.104  18.055  0.00  0.00    +0.000 C 
ATOM     25  C   UNL     1       1.583   9.424  17.887  0.00  0.00    +0.000 C 
ENDBRANCH  23  25
ENDBRANCH  17  23
ENDBRANCH   1  22
TORSDOF 4
ENDMDL
