MODEL 1
REMARK VINA RESULT:      -8.1      0.000      0.000
REMARK  Name = 
REMARK  3 active torsions:
REMARK  status: ('A' for Active; 'I' for Inactive)
REMARK    1  A    between atoms: C_2  and  C_22
REMARK    2  A    between atoms: C_6  and  C_7
REMARK    3  A    between atoms: C_14  and  C_15
REMARK                            x       y       z     vdW  Elec       q    Type
REMARK                         _______ _______ _______ _____ _____    ______ ____
ROOT
ATOM      1  O   UNL     1       7.425   4.652  13.711  0.00  0.00    +0.000 OA
ATOM      2  C   UNL     1       6.341   4.184  13.395  0.00  0.00    +0.000 C 
ATOM      3  N   UNL     1       5.234   4.038  14.190  0.00  0.00    +0.000 N 
ATOM      4  C   UNL     1       5.128   4.533  15.482  0.00  0.00    +0.000 A 
ATOM      5  N   UNL     1       6.022   5.410  15.942  0.00  0.00    +0.000 NA
ATOM      6  C   UNL     1       5.871   5.871  17.192  0.00  0.00    +0.000 A 
ATOM      7  C   UNL     1       4.841   5.433  17.995  0.00  0.00    +0.000 A 
ATOM      8  C   UNL     1       3.961   4.513  17.460  0.00  0.00    +0.000 A 
ATOM      9  N   UNL     1       4.074   4.085  16.182  0.00  0.00    +0.000 NA
ATOM     10  H   UNL     1       4.451   3.479  13.895  0.00  0.00    +0.000 HD
ENDROOT
BRANCH   6  11
ATOM     11  C   UNL     1       6.884   6.831  17.667  0.00  0.00    +0.000 A 
ATOM     12  C   UNL     1       6.998   8.121  17.115  0.00  0.00    +0.000 A 
ATOM     13  C   UNL     1       7.909   9.051  17.619  0.00  0.00    +0.000 A 
ATOM     14  C   UNL     1       8.741   8.704  18.679  0.00  0.00    +0.000 A 
ATOM     15  C   UNL     1       8.674   7.423  19.221  0.00  0.00    +0.000 A 
ATOM     16  C   UNL     1       7.759   6.495  18.715  0.00  0.00    +0.000 A 
ENDBRANCH   6  11
BRANCH   8  17
ATOM     17  C   UNL     1       2.860   3.945  18.268  0.00  0.00    +0.000 A 
ATOM     18  C   UNL     1       2.268   2.716  17.931  0.00  0.00    +0.000 A 
ATOM     19  C   UNL     1       1.199   2.195  18.673  0.00  0.00    +0.000 A 
ATOM     20  C   UNL     1       0.705   2.893  19.770  0.00  0.00    +0.000 A 
ATOM     21  C   UNL     1       1.280   4.103  20.139  0.00  0.00    +0.000 A 
ATOM     22  C   UNL     1       2.351   4.615  19.402  0.00  0.00    +0.000 A 
ENDBRANCH   8  17
BRANCH   2  23
ATOM     23  C   UNL     1       6.156   3.636  12.015  0.00  0.00    +0.000 C 
ATOM     24  C   UNL     1       5.910   2.153  11.823  0.00  0.00    +0.000 C 
ATOM     25  C   UNL     1       4.797   3.132  11.587  0.00  0.00    +0.000 C 
ENDBRANCH   2  23
TORSDOF 3
ENDMDL
MODEL 2
REMARK VINA RESULT:      -7.8      0.158      1.391
REMARK  Name = 
REMARK  3 active torsions:
REMARK  status: ('A' for Active; 'I' for Inactive)
REMARK    1  A    between atoms: C_2  and  C_22
REMARK    2  A    between atoms: C_6  and  C_7
REMARK    3  A    between atoms: C_14  and  C_15
REMARK                            x       y       z     vdW  Elec       q    Type
REMARK                         _______ _______ _______ _____ _____    ______ ____
ROOT
ATOM      1  O   UNL     1       7.461   4.746  13.757  0.00  0.00    +0.000 OA
ATOM      2  C   UNL     1       6.395   4.254  13.414  0.00  0.00    +0.000 C 
ATOM      3  N   UNL     1       5.272   4.083  14.181  0.00  0.00    +0.000 N 
ATOM      4  C   UNL     1       5.123   4.574  15.471  0.00  0.00    +0.000 A 
ATOM      5  N   UNL     1       5.986   5.471  15.952  0.00  0.00    +0.000 NA
ATOM      6  C   UNL     1       5.793   5.928  17.198  0.00  0.00    +0.000 A 
ATOM      7  C   UNL     1       4.755   5.467  17.975  0.00  0.00    +0.000 A 
ATOM      8  C   UNL     1       3.909   4.527  17.419  0.00  0.00    +0.000 A 
ATOM      9  N   UNL     1       4.064   4.102  16.144  0.00  0.00    +0.000 NA
ATOM     10  H   UNL     1       4.510   3.506  13.867  0.00  0.00    +0.000 HD
ENDROOT
BRANCH   6  11
ATOM     11  C   UNL     1       6.772   6.911  17.697  0.00  0.00    +0.000 A 
ATOM     12  C   UNL     1       7.730   6.574  18.672  0.00  0.00    +0.000 A 
ATOM     13  C   UNL     1       8.702   7.488  19.085  0.00  0.00    +0.000 A 
ATOM     14  C   UNL     1       8.725   8.768  18.544  0.00  0.00    +0.000 A 
ATOM     15  C   UNL     1       7.768   9.140  17.604  0.00  0.00    +0.000 A 
ATOM     16  C   UNL     1       6.797   8.223  17.190  0.00  0.00    +0.000 A 
ENDBRANCH   6  11
BRANCH   8  17
ATOM     17  C   UNL     1       2.802   3.933  18.200  0.00  0.00    +0.000 A 
ATOM     18  C   UNL     1       2.145   4.661  19.205  0.00  0.00    +0.000 A 
ATOM     19  C   UNL     1       1.123   4.087  19.971  0.00  0.00    +0.000 A 
ATOM     20  C   UNL     1       0.733   2.771  19.742  0.00  0.00    +0.000 A 
ATOM     21  C   UNL     1       1.352   2.029  18.743  0.00  0.00    +0.000 A 
ATOM     22  C   UNL     1       2.365   2.609  17.976  0.00  0.00    +0.000 A 
ENDBRANCH   8  17
BRANCH   2  23
ATOM     23  C   UNL     1       6.257   3.702  12.030  0.00  0.00    +0.000 C 
ATOM     24  C   UNL     1       6.205   2.202  11.822  0.00  0.00    +0.000 C 
ATOM     25  C   UNL     1       4.968   3.028  11.620  0.00  0.00    +0.000 C 
ENDBRANCH   2  23
TORSDOF 3
ENDMDL
MODEL 3
REMARK VINA RESULT:      -7.6      3.693      6.209
REMARK  Name = 
REMARK  3 active torsions:
REMARK  status: ('A' for Active; 'I' for Inactive)
REMARK    1  A    between atoms: C_2  and  C_22
REMARK    2  A    between atoms: C_6  and  C_7
REMARK    3  A    between atoms: C_14  and  C_15
REMARK                            x       y       z     vdW  Elec       q    Type
REMARK                         _______ _______ _______ _____ _____    ______ ____
ROOT
ATOM      1  O   UNL     1       4.593   4.326  16.213  0.00  0.00    +0.000 OA
ATOM      2  C   UNL     1       5.039   5.430  15.939  0.00  0.00    +0.000 C 
ATOM      3  N   UNL     1       4.617   6.642  16.422  0.00  0.00    +0.000 N 
ATOM      4  C   UNL     1       3.673   6.797  17.427  0.00  0.00    +0.000 A 
ATOM      5  N   UNL     1       3.300   5.750  18.166  0.00  0.00    +0.000 NA
ATOM      6  C   UNL     1       2.395   5.952  19.136  0.00  0.00    +0.000 A 
ATOM      7  C   UNL     1       1.841   7.194  19.349  0.00  0.00    +0.000 A 
ATOM      8  C   UNL     1       2.262   8.229  18.538  0.00  0.00    +0.000 A 
ATOM      9  N   UNL     1       3.215   8.046  17.595  0.00  0.00    +0.000 NA
ATOM     10  H   UNL     1       4.921   7.504  16.003  0.00  0.00    +0.000 HD
ENDROOT
BRANCH   6  11
ATOM     11  C   UNL     1       2.001   4.770  19.924  0.00  0.00    +0.000 A 
ATOM     12  C   UNL     1       1.152   3.778  19.399  0.00  0.00    +0.000 A 
ATOM     13  C   UNL     1       0.843   2.625  20.123  0.00  0.00    +0.000 A 
ATOM     14  C   UNL     1       1.365   2.446  21.399  0.00  0.00    +0.000 A 
ATOM     15  C   UNL     1       2.180   3.427  21.957  0.00  0.00    +0.000 A 
ATOM     16  C   UNL     1       2.489   4.580  21.229  0.00  0.00    +0.000 A 
ENDBRANCH   6  11
BRANCH   8  17
ATOM     17  C   UNL     1       1.680   9.583  18.657  0.00  0.00    +0.000 A 
ATOM     18  C   UNL     1       2.337  10.709  18.132  0.00  0.00    +0.000 A 
ATOM     19  C   UNL     1       1.806  11.996  18.278  0.00  0.00    +0.000 A 
ATOM     20  C   UNL     1       0.601  12.183  18.949  0.00  0.00    +0.000 A 
ATOM     21  C   UNL     1      -0.082  11.088  19.464  0.00  0.00    +0.000 A 
ATOM     22  C   UNL     1       0.448   9.805  19.309  0.00  0.00    +0.000 A 
ENDBRANCH   8  17
BRANCH   2  23
ATOM     23  C   UNL     1       6.130   5.546  14.921  0.00  0.00    +0.000 C 
ATOM     24  C   UNL     1       7.452   4.844  15.156  0.00  0.00    +0.000 C 
ATOM     25  C   UNL     1       6.515   4.338  14.097  0.00  0.00    +0.000 C 
ENDBRANCH   2  23
TORSDOF 3
ENDMDL
MODEL 4
REMARK VINA RESULT:      -7.4      3.522      5.931
REMARK  Name = 
REMARK  3 active torsions:
REMARK  status: ('A' for Active; 'I' for Inactive)
REMARK    1  A    between atoms: C_2  and  C_22
REMARK    2  A    between atoms: C_6  and  C_7
REMARK    3  A    between atoms: C_14  and  C_15
REMARK                            x       y       z     vdW  Elec       q    Type
REMARK                         _______ _______ _______ _____ _____    ______ ____
ROOT
ATOM      1  O   UNL     1       4.737   4.062  16.115  0.00  0.00    +0.000 OA
ATOM      2  C   UNL     1       5.074   5.198  15.815  0.00  0.00    +0.000 C 
ATOM      3  N   UNL     1       4.629   6.371  16.367  0.00  0.00    +0.000 N 
ATOM      4  C   UNL     1       3.796   6.448  17.474  0.00  0.00    +0.000 A 
ATOM      5  N   UNL     1       3.580   5.369  18.228  0.00  0.00    +0.000 NA
ATOM      6  C   UNL     1       2.779   5.496  19.298  0.00  0.00    +0.000 A 
ATOM      7  C   UNL     1       2.171   6.694  19.596  0.00  0.00    +0.000 A 
ATOM      8  C   UNL     1       2.427   7.765  18.764  0.00  0.00    +0.000 A 
ATOM      9  N   UNL     1       3.277   7.661  17.716  0.00  0.00    +0.000 NA
ATOM     10  H   UNL     1       4.825   7.257  15.933  0.00  0.00    +0.000 HD
ENDROOT
BRANCH   6  11
ATOM     11  C   UNL     1       2.557   4.280  20.101  0.00  0.00    +0.000 A 
ATOM     12  C   UNL     1       3.560   3.305  20.262  0.00  0.00    +0.000 A 
ATOM     13  C   UNL     1       3.369   2.193  21.084  0.00  0.00    +0.000 A 
ATOM     14  C   UNL     1       2.161   2.022  21.752  0.00  0.00    +0.000 A 
ATOM     15  C   UNL     1       1.140   2.952  21.584  0.00  0.00    +0.000 A 
ATOM     16  C   UNL     1       1.334   4.066  20.761  0.00  0.00    +0.000 A 
ENDBRANCH   6  11
BRANCH   8  17
ATOM     17  C   UNL     1       1.772   9.075  18.974  0.00  0.00    +0.000 A 
ATOM     18  C   UNL     1       1.984  10.147  18.091  0.00  0.00    +0.000 A 
ATOM     19  C   UNL     1       1.395  11.399  18.311  0.00  0.00    +0.000 A 
ATOM     20  C   UNL     1       0.578  11.601  19.419  0.00  0.00    +0.000 A 
ATOM     21  C   UNL     1       0.335  10.556  20.302  0.00  0.00    +0.000 A 
ATOM     22  C   UNL     1       0.918   9.308  20.074  0.00  0.00    +0.000 A 
ENDBRANCH   8  17
BRANCH   2  23
ATOM     23  C   UNL     1       6.033   5.401  14.684  0.00  0.00    +0.000 C 
ATOM     24  C   UNL     1       7.436   4.838  14.780  0.00  0.00    +0.000 C 
ATOM     25  C   UNL     1       6.447   4.222  13.834  0.00  0.00    +0.000 C 
ENDBRANCH   2  23
TORSDOF 3
ENDMDL
MODEL 5
REMARK VINA RESULT:      -7.4      1.587      5.454
REMARK  Name = 
REMARK  3 active torsions:
REMARK  status: ('A' for Active; 'I' for Inactive)
REMARK    1  A    between atoms: C_2  and  C_22
REMARK    2  A    between atoms: C_6  and  C_7
REMARK    3  A    between atoms: C_14  and  C_15
REMARK                            x       y       z     vdW  Elec       q    Type
REMARK                         _______ _______ _______ _____ _____    ______ ____
ROOT
ATOM      1  O   UNL     1       8.168   8.191  16.547  0.00  0.00    +0.000 OA
ATOM      2  C   UNL     1       7.895   8.111  17.736  0.00  0.00    +0.000 C 
ATOM      3  N   UNL     1       6.946   7.313  18.320  0.00  0.00    +0.000 N 
ATOM      4  C   UNL     1       6.211   6.348  17.645  0.00  0.00    +0.000 A 
ATOM      5  N   UNL     1       6.573   5.965  16.419  0.00  0.00    +0.000 NA
ATOM      6  C   UNL     1       5.841   5.018  15.812  0.00  0.00    +0.000 A 
ATOM      7  C   UNL     1       4.731   4.476  16.418  0.00  0.00    +0.000 A 
ATOM      8  C   UNL     1       4.405   4.931  17.680  0.00  0.00    +0.000 A 
ATOM      9  N   UNL     1       5.170   5.844  18.322  0.00  0.00    +0.000 NA
ATOM     10  H   UNL     1       6.670   7.449  19.278  0.00  0.00    +0.000 HD
ENDROOT
BRANCH   6  11
ATOM     11  C   UNL     1       6.266   4.628  14.455  0.00  0.00    +0.000 A 
ATOM     12  C   UNL     1       5.553   3.678  13.700  0.00  0.00    +0.000 A 
ATOM     13  C   UNL     1       5.918   3.368  12.388  0.00  0.00    +0.000 A 
ATOM     14  C   UNL     1       7.017   3.991  11.808  0.00  0.00    +0.000 A 
ATOM     15  C   UNL     1       7.762   4.908  12.544  0.00  0.00    +0.000 A 
ATOM     16  C   UNL     1       7.393   5.218  13.856  0.00  0.00    +0.000 A 
ENDBRANCH   6  11
BRANCH   8  17
ATOM     17  C   UNL     1       3.197   4.447  18.384  0.00  0.00    +0.000 A 
ATOM     18  C   UNL     1       2.814   4.978  19.626  0.00  0.00    +0.000 A 
ATOM     19  C   UNL     1       1.692   4.494  20.311  0.00  0.00    +0.000 A 
ATOM     20  C   UNL     1       0.928   3.469  19.762  0.00  0.00    +0.000 A 
ATOM     21  C   UNL     1       1.271   2.933  18.527  0.00  0.00    +0.000 A 
ATOM     22  C   UNL     1       2.385   3.425  17.844  0.00  0.00    +0.000 A 
ENDBRANCH   8  17
BRANCH   2  23
ATOM     23  C   UNL     1       8.601   9.002  18.709  0.00  0.00    +0.000 C 
ATOM     24  C   UNL     1       9.623  10.001  18.207  0.00  0.00    +0.000 C 
ATOM     25  C   UNL     1       8.298  10.483  18.722  0.00  0.00    +0.000 C 
ENDBRANCH   2  23
TORSDOF 3
ENDMDL
MODEL 6
REMARK VINA RESULT:      -7.3      1.784      6.634
REMARK  Name = 
REMARK  3 active torsions:
REMARK  status: ('A' for Active; 'I' for Inactive)
REMARK    1  A    between atoms: C_2  and  C_22
REMARK    2  A    between atoms: C_6  and  C_7
REMARK    3  A    between atoms: C_14  and  C_15
REMARK                            x       y       z     vdW  Elec       q    Type
REMARK                         _______ _______ _______ _____ _____    ______ ____
ROOT
ATOM      1  O   UNL     1       7.504   7.052  18.996  0.00  0.00    +0.000 OA
ATOM      2  C   UNL     1       7.808   7.527  17.912  0.00  0.00    +0.000 C 
ATOM      3  N   UNL     1       7.446   7.070  16.671  0.00  0.00    +0.000 N 
ATOM      4  C   UNL     1       6.546   6.037  16.450  0.00  0.00    +0.000 A 
ATOM      5  N   UNL     1       5.778   5.591  17.445  0.00  0.00    +0.000 NA
ATOM      6  C   UNL     1       4.912   4.601  17.180  0.00  0.00    +0.000 A 
ATOM      7  C   UNL     1       4.834   4.037  15.927  0.00  0.00    +0.000 A 
ATOM      8  C   UNL     1       5.669   4.538  14.948  0.00  0.00    +0.000 A 
ATOM      9  N   UNL     1       6.505   5.573  15.192  0.00  0.00    +0.000 NA
ATOM     10  H   UNL     1       7.892   7.417  15.838  0.00  0.00    +0.000 HD
ENDROOT
BRANCH   6  11
ATOM     11  C   UNL     1       4.088   4.129  18.308  0.00  0.00    +0.000 A 
ATOM     12  C   UNL     1       2.810   4.660  18.565  0.00  0.00    +0.000 A 
ATOM     13  C   UNL     1       2.005   4.157  19.589  0.00  0.00    +0.000 A 
ATOM     14  C   UNL     1       2.468   3.119  20.390  0.00  0.00    +0.000 A 
ATOM     15  C   UNL     1       3.741   2.597  20.180  0.00  0.00    +0.000 A 
ATOM     16  C   UNL     1       4.545   3.102  19.153  0.00  0.00    +0.000 A 
ENDBRANCH   6  11
BRANCH   8  17
ATOM     17  C   UNL     1       5.694   3.956  13.588  0.00  0.00    +0.000 A 
ATOM     18  C   UNL     1       4.507   3.638  12.908  0.00  0.00    +0.000 A 
ATOM     19  C   UNL     1       4.530   3.051  11.637  0.00  0.00    +0.000 A 
ATOM     20  C   UNL     1       5.745   2.773  11.018  0.00  0.00    +0.000 A 
ATOM     21  C   UNL     1       6.937   3.091  11.657  0.00  0.00    +0.000 A 
ATOM     22  C   UNL     1       6.909   3.684  12.921  0.00  0.00    +0.000 A 
ENDBRANCH   8  17
BRANCH   2  23
ATOM     23  C   UNL     1       8.725   8.709  17.863  0.00  0.00    +0.000 C 
ATOM     24  C   UNL     1       8.150  10.109  17.945  0.00  0.00    +0.000 C 
ATOM     25  C   UNL     1       8.925   9.551  19.103  0.00  0.00    +0.000 C 
ENDBRANCH   2  23
TORSDOF 3
ENDMDL
MODEL 7
REMARK VINA RESULT:      -7.2      1.666      5.388
REMARK  Name = 
REMARK  3 active torsions:
REMARK  status: ('A' for Active; 'I' for Inactive)
REMARK    1  A    between atoms: C_2  and  C_22
REMARK    2  A    between atoms: C_6  and  C_7
REMARK    3  A    between atoms: C_14  and  C_15
REMARK                            x       y       z     vdW  Elec       q    Type
REMARK                         _______ _______ _______ _____ _____    ______ ____
ROOT
ATOM      1  O   UNL     1       8.067   8.229  16.568  0.00  0.00    +0.000 OA
ATOM      2  C   UNL     1       7.874   8.069  17.765  0.00  0.00    +0.000 C 
ATOM      3  N   UNL     1       7.024   7.173  18.359  0.00  0.00    +0.000 N 
ATOM      4  C   UNL     1       6.323   6.189  17.676  0.00  0.00    +0.000 A 
ATOM      5  N   UNL     1       6.635   5.896  16.412  0.00  0.00    +0.000 NA
ATOM      6  C   UNL     1       5.939   4.928  15.797  0.00  0.00    +0.000 A 
ATOM      7  C   UNL     1       4.911   4.272  16.436  0.00  0.00    +0.000 A 
ATOM      8  C   UNL     1       4.632   4.637  17.738  0.00  0.00    +0.000 A 
ATOM      9  N   UNL     1       5.364   5.573  18.384  0.00  0.00    +0.000 NA
ATOM     10  H   UNL     1       6.798   7.239  19.337  0.00  0.00    +0.000 HD
ENDROOT
BRANCH   6  11
ATOM     11  C   UNL     1       6.308   4.639  14.399  0.00  0.00    +0.000 A 
ATOM     12  C   UNL     1       7.405   5.264  13.778  0.00  0.00    +0.000 A 
ATOM     13  C   UNL     1       7.793   4.931  12.479  0.00  0.00    +0.000 A 
ATOM     14  C   UNL     1       7.080   3.975  11.765  0.00  0.00    +0.000 A 
ATOM     15  C   UNL     1       5.969   3.365  12.342  0.00  0.00    +0.000 A 
ATOM     16  C   UNL     1       5.583   3.699  13.643  0.00  0.00    +0.000 A 
ENDBRANCH   6  11
BRANCH   8  17
ATOM     17  C   UNL     1       3.508   4.027  18.482  0.00  0.00    +0.000 A 
ATOM     18  C   UNL     1       2.231   3.911  17.910  0.00  0.00    +0.000 A 
ATOM     19  C   UNL     1       1.157   3.369  18.627  0.00  0.00    +0.000 A 
ATOM     20  C   UNL     1       1.342   2.927  19.933  0.00  0.00    +0.000 A 
ATOM     21  C   UNL     1       2.598   3.011  20.523  0.00  0.00    +0.000 A 
ATOM     22  C   UNL     1       3.668   3.545  19.800  0.00  0.00    +0.000 A 
ENDBRANCH   8  17
BRANCH   2  23
ATOM     23  C   UNL     1       8.571   8.962  18.743  0.00  0.00    +0.000 C 
ATOM     24  C   UNL     1       9.623   9.936  18.252  0.00  0.00    +0.000 C 
ATOM     25  C   UNL     1       8.294  10.448  18.727  0.00  0.00    +0.000 C 
ENDBRANCH   2  23
TORSDOF 3
ENDMDL
MODEL 8
REMARK VINA RESULT:      -7.2      1.871      6.677
REMARK  Name = 
REMARK  3 active torsions:
REMARK  status: ('A' for Active; 'I' for Inactive)
REMARK    1  A    between atoms: C_2  and  C_22
REMARK    2  A    between atoms: C_6  and  C_7
REMARK    3  A    between atoms: C_14  and  C_15
REMARK                            x       y       z     vdW  Elec       q    Type
REMARK                         _______ _______ _______ _____ _____    ______ ____
ROOT
ATOM      1  O   UNL     1       7.553   7.124  19.039  0.00  0.00    +0.000 OA
ATOM      2  C   UNL     1       7.849   7.594  17.950  0.00  0.00    +0.000 C 
ATOM      3  N   UNL     1       7.485   7.124  16.714  0.00  0.00    +0.000 N 
ATOM      4  C   UNL     1       6.592   6.084  16.505  0.00  0.00    +0.000 A 
ATOM      5  N   UNL     1       5.831   5.639  17.507  0.00  0.00    +0.000 NA
ATOM      6  C   UNL     1       4.971   4.641  17.253  0.00  0.00    +0.000 A 
ATOM      7  C   UNL     1       4.891   4.068  16.004  0.00  0.00    +0.000 A 
ATOM      8  C   UNL     1       5.719   4.567  15.018  0.00  0.00    +0.000 A 
ATOM      9  N   UNL     1       6.548   5.610  15.251  0.00  0.00    +0.000 NA
ATOM     10  H   UNL     1       7.924   7.468  15.877  0.00  0.00    +0.000 HD
ENDROOT
BRANCH   6  11
ATOM     11  C   UNL     1       4.155   4.171  18.388  0.00  0.00    +0.000 A 
ATOM     12  C   UNL     1       4.494   3.014  19.115  0.00  0.00    +0.000 A 
ATOM     13  C   UNL     1       3.759   2.617  20.234  0.00  0.00    +0.000 A 
ATOM     14  C   UNL     1       2.658   3.361  20.641  0.00  0.00    +0.000 A 
ATOM     15  C   UNL     1       2.279   4.490  19.920  0.00  0.00    +0.000 A 
ATOM     16  C   UNL     1       3.017   4.887  18.801  0.00  0.00    +0.000 A 
ENDBRANCH   6  11
BRANCH   8  17
ATOM     17  C   UNL     1       5.742   3.974  13.663  0.00  0.00    +0.000 A 
ATOM     18  C   UNL     1       6.951   3.762  12.980  0.00  0.00    +0.000 A 
ATOM     19  C   UNL     1       6.973   3.237  11.681  0.00  0.00    +0.000 A 
ATOM     20  C   UNL     1       5.782   2.909  11.041  0.00  0.00    +0.000 A 
ATOM     21  C   UNL     1       4.569   3.091  11.696  0.00  0.00    +0.000 A 
ATOM     22  C   UNL     1       4.554   3.607  12.994  0.00  0.00    +0.000 A 
ENDBRANCH   8  17
BRANCH   2  23
ATOM     23  C   UNL     1       8.757   8.782  17.889  0.00  0.00    +0.000 C 
ATOM     24  C   UNL     1       8.175  10.177  17.987  0.00  0.00    +0.000 C 
ATOM     25  C   UNL     1       8.976   9.619  19.128  0.00  0.00    +0.000 C 
ENDBRANCH   2  23
TORSDOF 3
ENDMDL
MODEL 9
REMARK VINA RESULT:      -7.2      8.461     10.892
REMARK  Name = 
REMARK  3 active torsions:
REMARK  status: ('A' for Active; 'I' for Inactive)
REMARK    1  A    between atoms: C_2  and  C_22
REMARK    2  A    between atoms: C_6  and  C_7
REMARK    3  A    between atoms: C_14  and  C_15
REMARK                            x       y       z     vdW  Elec       q    Type
REMARK                         _______ _______ _______ _____ _____    ______ ____
ROOT
ATOM      1  O   UNL     1      -3.234   9.714  18.102  0.00  0.00    +0.000 OA
ATOM      2  C   UNL     1      -3.485  10.807  17.615  0.00  0.00    +0.000 C 
ATOM      3  N   UNL     1      -2.676  11.914  17.592  0.00  0.00    +0.000 N 
ATOM      4  C   UNL     1      -1.356  11.927  18.018  0.00  0.00    +0.000 A 
ATOM      5  N   UNL     1      -0.712  10.781  18.247  0.00  0.00    +0.000 NA
ATOM      6  C   UNL     1       0.568  10.843  18.644  0.00  0.00    +0.000 A 
ATOM      7  C   UNL     1       1.196  12.052  18.841  0.00  0.00    +0.000 A 
ATOM      8  C   UNL     1       0.466  13.198  18.601  0.00  0.00    +0.000 A 
ATOM      9  N   UNL     1      -0.808  13.144  18.147  0.00  0.00    +0.000 NA
ATOM     10  H   UNL     1      -3.036  12.816  17.332  0.00  0.00    +0.000 HD
ENDROOT
BRANCH   6  11
ATOM     11  C   UNL     1       1.242   9.556  18.895  0.00  0.00    +0.000 A 
ATOM     12  C   UNL     1       1.186   8.922  20.150  0.00  0.00    +0.000 A 
ATOM     13  C   UNL     1       1.763   7.669  20.360  0.00  0.00    +0.000 A 
ATOM     14  C   UNL     1       2.427   7.027  19.320  0.00  0.00    +0.000 A 
ATOM     15  C   UNL     1       2.528   7.646  18.077  0.00  0.00    +0.000 A 
ATOM     16  C   UNL     1       1.948   8.901  17.869  0.00  0.00    +0.000 A 
ENDBRANCH   6  11
BRANCH   8  17
ATOM     17  C   UNL     1       1.040  14.540  18.841  0.00  0.00    +0.000 A 
ATOM     18  C   UNL     1       0.219  15.668  19.003  0.00  0.00    +0.000 A 
ATOM     19  C   UNL     1       0.763  16.945  19.192  0.00  0.00    +0.000 A 
ATOM     20  C   UNL     1       2.143  17.117  19.227  0.00  0.00    +0.000 A 
ATOM     21  C   UNL     1       2.983  16.019  19.088  0.00  0.00    +0.000 A 
ATOM     22  C   UNL     1       2.436  14.747  18.908  0.00  0.00    +0.000 A 
ENDBRANCH   8  17
BRANCH   2  23
ATOM     23  C   UNL     1      -4.834  11.046  17.013  0.00  0.00    +0.000 C 
ATOM     24  C   UNL     1      -6.042  11.195  17.915  0.00  0.00    +0.000 C 
ATOM     25  C   UNL     1      -5.502  12.391  17.186  0.00  0.00    +0.000 C 
ENDBRANCH   2  23
TORSDOF 3
ENDMDL
