MODEL 1
REMARK VINA RESULT:      -9.3      0.000      0.000
REMARK  Name = 
REMARK  4 active torsions:
REMARK  status: ('A' for Active; 'I' for Inactive)
REMARK    1  A    between atoms: N_1  and  C_2
REMARK    2  A    between atoms: C_6  and  C_7
REMARK    3  A    between atoms: N_9  and  C_10
REMARK    4  A    between atoms: C_10  and  C_11
REMARK                            x       y       z     vdW  Elec       q    Type
REMARK                         _______ _______ _______ _____ _____    ______ ____
ROOT
ATOM      1  C   UNL     1       7.481   6.144  18.034  0.00  0.00    +0.000 C 
ENDROOT
BRANCH   1   2
ATOM      2  C   UNL     1       6.093   5.734  17.455  0.00  0.00    +0.000 C 
ATOM      3  C   UNL     1       4.803   6.023  18.355  0.00  0.00    +0.000 C 
ATOM      4  C   UNL     1       3.709   4.973  18.134  0.00  0.00    +0.000 A 
ATOM      5  C   UNL     1       3.884   4.015  17.151  0.00  0.00    +0.000 A 
ATOM      6  N   UNL     1       2.795   3.201  17.095  0.00  0.00    +0.000 N 
ATOM      7  C   UNL     1       1.987   3.476  18.164  0.00  0.00    +0.000 A 
ATOM      8  C   UNL     1       0.871   2.762  18.596  0.00  0.00    +0.000 A 
ATOM      9  C   UNL     1       0.707   2.735  19.969  0.00  0.00    +0.000 A 
ATOM     10  C   UNL     1       1.150   3.818  20.714  0.00  0.00    +0.000 A 
ATOM     11  C   UNL     1       1.971   4.813  20.139  0.00  0.00    +0.000 A 
ATOM     12  C   UNL     1       2.569   4.520  18.894  0.00  0.00    +0.000 A 
ATOM     13  C   UNL     1       5.111   3.770  16.378  0.00  0.00    +0.000 C 
ATOM     14  N   UNL     1       6.220   4.264  17.181  0.00  0.00    +0.000 NA
ATOM     15  H   UNL     1       2.719   2.362  16.538  0.00  0.00    +0.000 HD
ATOM     16  H   UNL     1       7.095   4.033  16.720  0.00  0.00    +0.000 HD
ENDBRANCH   1   2
BRANCH   1  19
ATOM     17  C   UNL     1       8.841   9.457  18.618  0.00  0.00    +0.000 A 
ATOM     18  C   UNL     1       8.814   8.116  19.020  0.00  0.00    +0.000 A 
ATOM     19  N   UNL     1       7.954   7.506  18.163  0.00  0.00    +0.000 N 
ATOM     20  N   UNL     1       7.459   8.404  17.269  0.00  0.00    +0.000 NA
ATOM     21  N   UNL     1       7.975   9.586  17.574  0.00  0.00    +0.000 NA
BRANCH  17  26
ATOM     22  C   UNL     1      11.286  12.320  18.833  0.00  0.00    +0.000 A 
ATOM     23  C   UNL     1      11.068  12.749  20.142  0.00  0.00    +0.000 A 
ATOM     24  C   UNL     1      10.104  12.125  20.934  0.00  0.00    +0.000 A 
ATOM     25  C   UNL     1       9.385  11.043  20.422  0.00  0.00    +0.000 A 
ATOM     26  C   UNL     1       9.620  10.546  19.129  0.00  0.00    +0.000 A 
ATOM     27  C   UNL     1      10.610  11.186  18.358  0.00  0.00    +0.000 A 
BRANCH  22  28
ATOM     28  N   UNL     1      12.333  12.871  18.081  0.00  0.00    +0.000 N 
ATOM     29  H   UNL     1      12.651  13.770  18.433  0.00  0.00    +0.000 HD
ATOM     30  H   UNL     1      12.143  12.901  17.084  0.00  0.00    +0.000 HD
ENDBRANCH  22  28
ENDBRANCH  17  26
ENDBRANCH   1  19
TORSDOF 4
ENDMDL
MODEL 2
REMARK VINA RESULT:      -9.2      1.031      1.399
REMARK  Name = 
REMARK  4 active torsions:
REMARK  status: ('A' for Active; 'I' for Inactive)
REMARK    1  A    between atoms: N_1  and  C_2
REMARK    2  A    between atoms: C_6  and  C_7
REMARK    3  A    between atoms: N_9  and  C_10
REMARK    4  A    between atoms: C_10  and  C_11
REMARK                            x       y       z     vdW  Elec       q    Type
REMARK                         _______ _______ _______ _____ _____    ______ ____
ROOT
ATOM      1  C   UNL     1       7.456   6.064  17.748  0.00  0.00    +0.000 C 
ENDROOT
BRANCH   1   2
ATOM      2  C   UNL     1       6.057   5.618  17.225  0.00  0.00    +0.000 C 
ATOM      3  C   UNL     1       4.782   5.999  18.111  0.00  0.00    +0.000 C 
ATOM      4  C   UNL     1       3.675   4.945  17.999  0.00  0.00    +0.000 A 
ATOM      5  C   UNL     1       3.828   3.902  17.102  0.00  0.00    +0.000 A 
ATOM      6  N   UNL     1       2.732   3.097  17.133  0.00  0.00    +0.000 N 
ATOM      7  C   UNL     1       1.941   3.475  18.182  0.00  0.00    +0.000 A 
ATOM      8  C   UNL     1       0.823   2.814  18.691  0.00  0.00    +0.000 A 
ATOM      9  C   UNL     1       0.678   2.911  20.062  0.00  0.00    +0.000 A 
ATOM     10  C   UNL     1       1.140   4.051  20.702  0.00  0.00    +0.000 A 
ATOM     11  C   UNL     1       1.963   4.982  20.031  0.00  0.00    +0.000 A 
ATOM     12  C   UNL     1       2.541   4.573  18.810  0.00  0.00    +0.000 A 
ATOM     13  C   UNL     1       5.043   3.576  16.340  0.00  0.00    +0.000 C 
ATOM     14  N   UNL     1       6.167   4.129  17.082  0.00  0.00    +0.000 NA
ATOM     15  H   UNL     1       2.641   2.213  16.654  0.00  0.00    +0.000 HD
ATOM     16  H   UNL     1       7.033   3.848  16.632  0.00  0.00    +0.000 HD
ENDBRANCH   1   2
BRANCH   1  19
ATOM     17  C   UNL     1       8.635   9.397  18.566  0.00  0.00    +0.000 A 
ATOM     18  C   UNL     1       8.666   8.034  18.885  0.00  0.00    +0.000 A 
ATOM     19  N   UNL     1       7.858   7.437  17.971  0.00  0.00    +0.000 N 
ATOM     20  N   UNL     1       7.339   8.363  17.121  0.00  0.00    +0.000 NA
ATOM     21  N   UNL     1       7.787   9.548  17.509  0.00  0.00    +0.000 NA
BRANCH  17  26
ATOM     22  C   UNL     1       9.907  11.889  21.094  0.00  0.00    +0.000 A 
ATOM     23  C   UNL     1      10.838  12.586  20.324  0.00  0.00    +0.000 A 
ATOM     24  C   UNL     1      11.069  12.219  18.998  0.00  0.00    +0.000 A 
ATOM     25  C   UNL     1      10.335  11.174  18.434  0.00  0.00    +0.000 A 
ATOM     26  C   UNL     1       9.347  10.489  19.161  0.00  0.00    +0.000 A 
ATOM     27  C   UNL     1       9.125  10.891  20.493  0.00  0.00    +0.000 A 
BRANCH  22  28
ATOM     28  N   UNL     1       9.595  12.333  22.387  0.00  0.00    +0.000 N 
ATOM     29  H   UNL     1       9.421  11.576  23.042  0.00  0.00    +0.000 HD
ATOM     30  H   UNL     1       8.855  13.029  22.408  0.00  0.00    +0.000 HD
ENDBRANCH  22  28
ENDBRANCH  17  26
ENDBRANCH   1  19
TORSDOF 4
ENDMDL
MODEL 3
REMARK VINA RESULT:      -8.5      1.344      1.494
REMARK  Name = 
REMARK  4 active torsions:
REMARK  status: ('A' for Active; 'I' for Inactive)
REMARK    1  A    between atoms: N_1  and  C_2
REMARK    2  A    between atoms: C_6  and  C_7
REMARK    3  A    between atoms: N_9  and  C_10
REMARK    4  A    between atoms: C_10  and  C_11
REMARK                            x       y       z     vdW  Elec       q    Type
REMARK                         _______ _______ _______ _____ _____    ______ ____
ROOT
ATOM      1  C   UNL     1       6.957   5.949  16.696  0.00  0.00    +0.000 C 
ENDROOT
BRANCH   1   2
ATOM      2  C   UNL     1       5.431   5.630  16.693  0.00  0.00    +0.000 C 
ATOM      3  C   UNL     1       4.606   5.953  18.024  0.00  0.00    +0.000 C 
ATOM      4  C   UNL     1       3.451   4.968  18.231  0.00  0.00    +0.000 A 
ATOM      5  C   UNL     1       3.176   4.037  17.245  0.00  0.00    +0.000 A 
ATOM      6  N   UNL     1       2.103   3.282  17.604  0.00  0.00    +0.000 N 
ATOM      7  C   UNL     1       1.786   3.561  18.905  0.00  0.00    +0.000 A 
ATOM      8  C   UNL     1       0.881   2.891  19.727  0.00  0.00    +0.000 A 
ATOM      9  C   UNL     1       1.257   2.827  21.056  0.00  0.00    +0.000 A 
ATOM     10  C   UNL     1       2.015   3.860  21.584  0.00  0.00    +0.000 A 
ATOM     11  C   UNL     1       2.611   4.830  20.749  0.00  0.00    +0.000 A 
ATOM     12  C   UNL     1       2.665   4.549  19.366  0.00  0.00    +0.000 A 
ATOM     13  C   UNL     1       3.995   3.755  16.056  0.00  0.00    +0.000 C 
ATOM     14  N   UNL     1       5.354   4.165  16.375  0.00  0.00    +0.000 NA
ATOM     15  H   UNL     1       1.768   2.467  17.110  0.00  0.00    +0.000 HD
ATOM     16  H   UNL     1       5.969   3.905  15.609  0.00  0.00    +0.000 HD
ENDBRANCH   1   2
BRANCH   1  19
ATOM     17  C   UNL     1       8.456   8.786  18.391  0.00  0.00    +0.000 A 
ATOM     18  C   UNL     1       7.781   8.325  17.254  0.00  0.00    +0.000 A 
ATOM     19  N   UNL     1       7.581   6.999  17.472  0.00  0.00    +0.000 N 
ATOM     20  N   UNL     1       8.099   6.634  18.676  0.00  0.00    +0.000 NA
ATOM     21  N   UNL     1       8.655   7.712  19.208  0.00  0.00    +0.000 NA
BRANCH  17  26
ATOM     22  C   UNL     1       9.013  12.512  18.235  0.00  0.00    +0.000 A 
ATOM     23  C   UNL     1       9.614  12.736  19.475  0.00  0.00    +0.000 A 
ATOM     24  C   UNL     1       9.803  11.678  20.365  0.00  0.00    +0.000 A 
ATOM     25  C   UNL     1       9.423  10.387  19.993  0.00  0.00    +0.000 A 
ATOM     26  C   UNL     1       8.869  10.115  18.730  0.00  0.00    +0.000 A 
ATOM     27  C   UNL     1       8.704  11.200  17.846  0.00  0.00    +0.000 A 
BRANCH  22  28
ATOM     28  N   UNL     1       8.931  13.552  17.299  0.00  0.00    +0.000 N 
ATOM     29  H   UNL     1       9.058  13.242  16.340  0.00  0.00    +0.000 HD
ATOM     30  H   UNL     1       9.524  14.345  17.523  0.00  0.00    +0.000 HD
ENDBRANCH  22  28
ENDBRANCH  17  26
ENDBRANCH   1  19
TORSDOF 4
ENDMDL
MODEL 4
REMARK VINA RESULT:      -8.5      1.423      1.779
REMARK  Name = 
REMARK  4 active torsions:
REMARK  status: ('A' for Active; 'I' for Inactive)
REMARK    1  A    between atoms: N_1  and  C_2
REMARK    2  A    between atoms: C_6  and  C_7
REMARK    3  A    between atoms: N_9  and  C_10
REMARK    4  A    between atoms: C_10  and  C_11
REMARK                            x       y       z     vdW  Elec       q    Type
REMARK                         _______ _______ _______ _____ _____    ______ ____
ROOT
ATOM      1  C   UNL     1       7.006   5.698  16.618  0.00  0.00    +0.000 C 
ENDROOT
BRANCH   1   2
ATOM      2  C   UNL     1       5.497   5.309  16.603  0.00  0.00    +0.000 C 
ATOM      3  C   UNL     1       4.608   5.748  17.857  0.00  0.00    +0.000 C 
ATOM      4  C   UNL     1       3.489   4.741  18.143  0.00  0.00    +0.000 A 
ATOM      5  C   UNL     1       3.292   3.687  17.268  0.00  0.00    +0.000 A 
ATOM      6  N   UNL     1       2.240   2.930  17.679  0.00  0.00    +0.000 N 
ATOM      7  C   UNL     1       1.862   3.346  18.926  0.00  0.00    +0.000 A 
ATOM      8  C   UNL     1       0.956   2.736  19.792  0.00  0.00    +0.000 A 
ATOM      9  C   UNL     1       1.283   2.847  21.131  0.00  0.00    +0.000 A 
ATOM     10  C   UNL     1       1.976   3.970  21.556  0.00  0.00    +0.000 A 
ATOM     11  C   UNL     1       2.560   4.862  20.631  0.00  0.00    +0.000 A 
ATOM     12  C   UNL     1       2.679   4.422  19.294  0.00  0.00    +0.000 A 
ATOM     13  C   UNL     1       4.168   3.306  16.149  0.00  0.00    +0.000 C 
ATOM     14  N   UNL     1       5.496   3.815  16.460  0.00  0.00    +0.000 NA
ATOM     15  H   UNL     1       1.960   2.047  17.276  0.00  0.00    +0.000 HD
ATOM     16  H   UNL     1       6.150   3.495  15.752  0.00  0.00    +0.000 HD
ENDBRANCH   1   2
BRANCH   1  19
ATOM     17  C   UNL     1       8.361   8.617  18.294  0.00  0.00    +0.000 A 
ATOM     18  C   UNL     1       7.734   8.112  17.148  0.00  0.00    +0.000 A 
ATOM     19  N   UNL     1       7.573   6.784  17.389  0.00  0.00    +0.000 N 
ATOM     20  N   UNL     1       8.070   6.460  18.612  0.00  0.00    +0.000 NA
ATOM     21  N   UNL     1       8.574   7.568  19.137  0.00  0.00    +0.000 NA
BRANCH  17  26
ATOM     22  C   UNL     1       9.750  11.618  20.106  0.00  0.00    +0.000 A 
ATOM     23  C   UNL     1       9.497  12.624  19.173  0.00  0.00    +0.000 A 
ATOM     24  C   UNL     1       8.907  12.313  17.948  0.00  0.00    +0.000 A 
ATOM     25  C   UNL     1       8.535  10.995  17.676  0.00  0.00    +0.000 A 
ATOM     26  C   UNL     1       8.720   9.966  18.616  0.00  0.00    +0.000 A 
ATOM     27  C   UNL     1       9.304  10.313  19.850  0.00  0.00    +0.000 A 
BRANCH  22  28
ATOM     28  N   UNL     1      10.235  11.950  21.379  0.00  0.00    +0.000 N 
ATOM     29  H   UNL     1       9.502  12.055  22.075  0.00  0.00    +0.000 HD
ATOM     30  H   UNL     1      10.870  12.743  21.375  0.00  0.00    +0.000 HD
ENDBRANCH  22  28
ENDBRANCH  17  26
ENDBRANCH   1  19
TORSDOF 4
ENDMDL
MODEL 5
REMARK VINA RESULT:      -8.5      7.217      9.581
REMARK  Name = 
REMARK  4 active torsions:
REMARK  status: ('A' for Active; 'I' for Inactive)
REMARK    1  A    between atoms: N_1  and  C_2
REMARK    2  A    between atoms: C_6  and  C_7
REMARK    3  A    between atoms: N_9  and  C_10
REMARK    4  A    between atoms: C_10  and  C_11
REMARK                            x       y       z     vdW  Elec       q    Type
REMARK                         _______ _______ _______ _____ _____    ______ ____
ROOT
ATOM      1  C   UNL     1       0.618  10.337  19.413  0.00  0.00    +0.000 C 
ENDROOT
BRANCH   1   2
ATOM      2  C   UNL     1      -0.463  11.156  18.645  0.00  0.00    +0.000 C 
ATOM      3  C   UNL     1      -1.597  11.878  19.512  0.00  0.00    +0.000 C 
ATOM      4  C   UNL     1      -2.930  11.948  18.760  0.00  0.00    +0.000 A 
ATOM      5  C   UNL     1      -2.984  11.521  17.445  0.00  0.00    +0.000 A 
ATOM      6  N   UNL     1      -4.240  11.692  16.952  0.00  0.00    +0.000 N 
ATOM      7  C   UNL     1      -5.073  12.034  17.981  0.00  0.00    +0.000 A 
ATOM      8  C   UNL     1      -6.464  12.123  17.962  0.00  0.00    +0.000 A 
ATOM      9  C   UNL     1      -7.077  11.738  19.140  0.00  0.00    +0.000 A 
ATOM     10  C   UNL     1      -6.402  11.932  20.335  0.00  0.00    +0.000 A 
ATOM     11  C   UNL     1      -5.032  12.275  20.354  0.00  0.00    +0.000 A 
ATOM     12  C   UNL     1      -4.309  12.117  19.152  0.00  0.00    +0.000 A 
ATOM     13  C   UNL     1      -1.918  10.825  16.707  0.00  0.00    +0.000 C 
ATOM     14  N   UNL     1      -1.080  10.168  17.699  0.00  0.00    +0.000 NA
ATOM     15  H   UNL     1      -4.567  11.362  16.054  0.00  0.00    +0.000 HD
ATOM     16  H   UNL     1      -0.383   9.603  17.224  0.00  0.00    +0.000 HD
ENDBRANCH   1   2
BRANCH   1  19
ATOM     17  C   UNL     1       2.457   7.421  18.280  0.00  0.00    +0.000 A 
ATOM     18  C   UNL     1       1.658   7.983  19.284  0.00  0.00    +0.000 A 
ATOM     19  N   UNL     1       1.380   9.241  18.852  0.00  0.00    +0.000 N 
ATOM     20  N   UNL     1       1.968   9.470  17.648  0.00  0.00    +0.000 NA
ATOM     21  N   UNL     1       2.644   8.376  17.326  0.00  0.00    +0.000 NA
BRANCH  17  26
ATOM     22  C   UNL     1       4.845   4.505  18.404  0.00  0.00    +0.000 A 
ATOM     23  C   UNL     1       3.992   3.457  18.058  0.00  0.00    +0.000 A 
ATOM     24  C   UNL     1       2.639   3.702  17.819  0.00  0.00    +0.000 A 
ATOM     25  C   UNL     1       2.152   5.008  17.891  0.00  0.00    +0.000 A 
ATOM     26  C   UNL     1       2.993   6.096  18.178  0.00  0.00    +0.000 A 
ATOM     27  C   UNL     1       4.357   5.821  18.400  0.00  0.00    +0.000 A 
BRANCH  22  28
ATOM     28  N   UNL     1       6.222   4.274  18.529  0.00  0.00    +0.000 N 
ATOM     29  H   UNL     1       6.715   4.286  17.641  0.00  0.00    +0.000 HD
ATOM     30  H   UNL     1       6.445   3.448  19.076  0.00  0.00    +0.000 HD
ENDBRANCH  22  28
ENDBRANCH  17  26
ENDBRANCH   1  19
TORSDOF 4
ENDMDL
MODEL 6
REMARK VINA RESULT:      -8.3      6.875     10.021
REMARK  Name = 
REMARK  4 active torsions:
REMARK  status: ('A' for Active; 'I' for Inactive)
REMARK    1  A    between atoms: N_1  and  C_2
REMARK    2  A    between atoms: C_6  and  C_7
REMARK    3  A    between atoms: N_9  and  C_10
REMARK    4  A    between atoms: C_10  and  C_11
REMARK                            x       y       z     vdW  Elec       q    Type
REMARK                         _______ _______ _______ _____ _____    ______ ____
ROOT
ATOM      1  C   UNL     1       0.996   8.780  21.451  0.00  0.00    +0.000 C 
ENDROOT
BRANCH   1   2
ATOM      2  C   UNL     1       0.441  10.170  21.018  0.00  0.00    +0.000 C 
ATOM      3  C   UNL     1      -0.356  11.021  22.113  0.00  0.00    +0.000 C 
ATOM      4  C   UNL     1      -1.457  11.877  21.478  0.00  0.00    +0.000 A 
ATOM      5  C   UNL     1      -1.562  11.923  20.099  0.00  0.00    +0.000 A 
ATOM      6  N   UNL     1      -2.575  12.755  19.737  0.00  0.00    +0.000 N 
ATOM      7  C   UNL     1      -3.277  13.104  20.857  0.00  0.00    +0.000 A 
ATOM      8  C   UNL     1      -4.491  13.786  20.927  0.00  0.00    +0.000 A 
ATOM      9  C   UNL     1      -5.317  13.377  21.957  0.00  0.00    +0.000 A 
ATOM     10  C   UNL     1      -4.740  12.900  23.124  0.00  0.00    +0.000 A 
ATOM     11  C   UNL     1      -3.362  12.595  23.186  0.00  0.00    +0.000 A 
ATOM     12  C   UNL     1      -2.664  12.501  21.962  0.00  0.00    +0.000 A 
ATOM     13  C   UNL     1      -0.827  11.085  19.138  0.00  0.00    +0.000 C 
ATOM     14  N   UNL     1      -0.444   9.872  19.844  0.00  0.00    +0.000 NA
ATOM     15  H   UNL     1      -2.925  12.878  18.797  0.00  0.00    +0.000 HD
ATOM     16  H   UNL     1      -0.010   9.228  19.189  0.00  0.00    +0.000 HD
ENDBRANCH   1   2
BRANCH   1  19
ATOM     17  C   UNL     1       2.348   6.085  19.431  0.00  0.00    +0.000 A 
ATOM     18  C   UNL     1       1.770   6.456  20.651  0.00  0.00    +0.000 A 
ATOM     19  N   UNL     1       1.554   7.793  20.550  0.00  0.00    +0.000 N 
ATOM     20  N   UNL     1       1.969   8.250  19.338  0.00  0.00    +0.000 NA
ATOM     21  N   UNL     1       2.479   7.217  18.682  0.00  0.00    +0.000 NA
BRANCH  17  26
ATOM     22  C   UNL     1       3.952   2.678  19.232  0.00  0.00    +0.000 A 
ATOM     23  C   UNL     1       3.388   2.196  18.050  0.00  0.00    +0.000 A 
ATOM     24  C   UNL     1       2.466   2.969  17.345  0.00  0.00    +0.000 A 
ATOM     25  C   UNL     1       2.139   4.245  17.807  0.00  0.00    +0.000 A 
ATOM     26  C   UNL     1       2.731   4.787  18.961  0.00  0.00    +0.000 A 
ATOM     27  C   UNL     1       3.670   3.990  19.644  0.00  0.00    +0.000 A 
BRANCH  22  28
ATOM     28  N   UNL     1       4.962   1.949  19.874  0.00  0.00    +0.000 N 
ATOM     29  H   UNL     1       5.490   2.499  20.547  0.00  0.00    +0.000 HD
ATOM     30  H   UNL     1       5.571   1.450  19.232  0.00  0.00    +0.000 HD
ENDBRANCH  22  28
ENDBRANCH  17  26
ENDBRANCH   1  19
TORSDOF 4
ENDMDL
MODEL 7
REMARK VINA RESULT:      -8.3      7.262      9.774
REMARK  Name = 
REMARK  4 active torsions:
REMARK  status: ('A' for Active; 'I' for Inactive)
REMARK    1  A    between atoms: N_1  and  C_2
REMARK    2  A    between atoms: C_6  and  C_7
REMARK    3  A    between atoms: N_9  and  C_10
REMARK    4  A    between atoms: C_10  and  C_11
REMARK                            x       y       z     vdW  Elec       q    Type
REMARK                         _______ _______ _______ _____ _____    ______ ____
ROOT
ATOM      1  C   UNL     1       0.836  10.198  20.078  0.00  0.00    +0.000 C 
ENDROOT
BRANCH   1   2
ATOM      2  C   UNL     1      -0.249  11.146  19.484  0.00  0.00    +0.000 C 
ATOM      3  C   UNL     1      -1.101  12.028  20.511  0.00  0.00    +0.000 C 
ATOM      4  C   UNL     1      -2.528  12.269  20.008  0.00  0.00    +0.000 A 
ATOM      5  C   UNL     1      -2.876  11.836  18.740  0.00  0.00    +0.000 A 
ATOM      6  N   UNL     1      -4.167  12.170  18.473  0.00  0.00    +0.000 N 
ATOM      7  C   UNL     1      -4.746  12.637  19.621  0.00  0.00    +0.000 A 
ATOM      8  C   UNL     1      -6.093  12.914  19.847  0.00  0.00    +0.000 A 
ATOM      9  C   UNL     1      -6.526  12.633  21.129  0.00  0.00    +0.000 A 
ATOM     10  C   UNL     1      -5.626  12.749  22.177  0.00  0.00    +0.000 A 
ATOM     11  C   UNL     1      -4.242  12.902  21.938  0.00  0.00    +0.000 A 
ATOM     12  C   UNL     1      -3.777  12.630  20.632  0.00  0.00    +0.000 A 
ATOM     13  C   UNL     1      -2.063  10.991  17.851  0.00  0.00    +0.000 C 
ATOM     14  N   UNL     1      -1.153  10.239  18.702  0.00  0.00    +0.000 NA
ATOM     15  H   UNL     1      -4.693  11.875  17.662  0.00  0.00    +0.000 HD
ATOM     16  H   UNL     1      -0.634   9.577  18.132  0.00  0.00    +0.000 HD
ENDBRANCH   1   2
BRANCH   1  19
ATOM     17  C   UNL     1       2.403   7.297  18.561  0.00  0.00    +0.000 A 
ATOM     18  C   UNL     1       1.834   7.850  19.715  0.00  0.00    +0.000 A 
ATOM     19  N   UNL     1       1.466   9.109  19.361  0.00  0.00    +0.000 N 
ATOM     20  N   UNL     1       1.782   9.347  18.060  0.00  0.00    +0.000 NA
ATOM     21  N   UNL     1       2.379   8.258  17.595  0.00  0.00    +0.000 NA
BRANCH  17  26
ATOM     22  C   UNL     1       4.688   4.298  18.526  0.00  0.00    +0.000 A 
ATOM     23  C   UNL     1       3.844   3.335  17.972  0.00  0.00    +0.000 A 
ATOM     24  C   UNL     1       2.527   3.661  17.645  0.00  0.00    +0.000 A 
ATOM     25  C   UNL     1       2.071   4.966  17.839  0.00  0.00    +0.000 A 
ATOM     26  C   UNL     1       2.911   5.976  18.339  0.00  0.00    +0.000 A 
ATOM     27  C   UNL     1       4.239   5.621  18.646  0.00  0.00    +0.000 A 
BRANCH  22  28
ATOM     28  N   UNL     1       6.041   3.999  18.745  0.00  0.00    +0.000 N 
ATOM     29  H   UNL     1       6.315   3.088  18.389  0.00  0.00    +0.000 HD
ATOM     30  H   UNL     1       6.333   4.134  19.708  0.00  0.00    +0.000 HD
ENDBRANCH  22  28
ENDBRANCH  17  26
ENDBRANCH   1  19
TORSDOF 4
ENDMDL
MODEL 8
REMARK VINA RESULT:      -8.2      1.525      2.104
REMARK  Name = 
REMARK  4 active torsions:
REMARK  status: ('A' for Active; 'I' for Inactive)
REMARK    1  A    between atoms: N_1  and  C_2
REMARK    2  A    between atoms: C_6  and  C_7
REMARK    3  A    between atoms: N_9  and  C_10
REMARK    4  A    between atoms: C_10  and  C_11
REMARK                            x       y       z     vdW  Elec       q    Type
REMARK                         _______ _______ _______ _____ _____    ______ ____
ROOT
ATOM      1  C   UNL     1       8.264   7.576  18.595  0.00  0.00    +0.000 C 
ENDROOT
BRANCH   1   2
ATOM      2  C   UNL     1       7.407   6.720  17.615  0.00  0.00    +0.000 C 
ATOM      3  C   UNL     1       5.818   6.896  17.677  0.00  0.00    +0.000 C 
ATOM      4  C   UNL     1       5.087   5.593  17.336  0.00  0.00    +0.000 A 
ATOM      5  C   UNL     1       5.823   4.500  16.912  0.00  0.00    +0.000 A 
ATOM      6  N   UNL     1       4.992   3.460  16.633  0.00  0.00    +0.000 N 
ATOM      7  C   UNL     1       3.733   3.778  17.059  0.00  0.00    +0.000 A 
ATOM      8  C   UNL     1       2.621   2.941  17.139  0.00  0.00    +0.000 A 
ATOM      9  C   UNL     1       1.786   3.202  18.210  0.00  0.00    +0.000 A 
ATOM     10  C   UNL     1       1.689   4.504  18.677  0.00  0.00    +0.000 A 
ATOM     11  C   UNL     1       2.595   5.501  18.254  0.00  0.00    +0.000 A 
ATOM     12  C   UNL     1       3.766   5.073  17.591  0.00  0.00    +0.000 A 
ATOM     13  C   UNL     1       7.289   4.380  16.912  0.00  0.00    +0.000 C 
ATOM     14  N   UNL     1       7.787   5.301  17.923  0.00  0.00    +0.000 NA
ATOM     15  H   UNL     1       5.286   2.519  16.409  0.00  0.00    +0.000 HD
ATOM     16  H   UNL     1       8.791   5.184  18.016  0.00  0.00    +0.000 HD
ENDBRANCH   1   2
BRANCH   1  19
ATOM     17  C   UNL     1       9.154  11.091  18.456  0.00  0.00    +0.000 A 
ATOM     18  C   UNL     1       9.391   9.847  19.054  0.00  0.00    +0.000 A 
ATOM     19  N   UNL     1       8.532   8.990  18.443  0.00  0.00    +0.000 N 
ATOM     20  N   UNL     1       7.789   9.647  17.512  0.00  0.00    +0.000 NA
ATOM     21  N   UNL     1       8.149  10.923  17.551  0.00  0.00    +0.000 NA
BRANCH  17  26
ATOM     22  C   UNL     1      10.158  14.711  18.127  0.00  0.00    +0.000 A 
ATOM     23  C   UNL     1      11.063  14.825  19.183  0.00  0.00    +0.000 A 
ATOM     24  C   UNL     1      11.315  13.732  20.013  0.00  0.00    +0.000 A 
ATOM     25  C   UNL     1      10.686  12.513  19.759  0.00  0.00    +0.000 A 
ATOM     26  C   UNL     1       9.814  12.345  18.670  0.00  0.00    +0.000 A 
ATOM     27  C   UNL     1       9.590  13.461  17.839  0.00  0.00    +0.000 A 
BRANCH  22  28
ATOM     28  N   UNL     1       9.995  15.773  17.227  0.00  0.00    +0.000 N 
ATOM     29  H   UNL     1       9.206  15.651  16.599  0.00  0.00    +0.000 HD
ATOM     30  H   UNL     1      10.845  16.012  16.725  0.00  0.00    +0.000 HD
ENDBRANCH  22  28
ENDBRANCH  17  26
ENDBRANCH   1  19
TORSDOF 4
ENDMDL
MODEL 9
REMARK VINA RESULT:      -8.2      7.219      9.353
REMARK  Name = 
REMARK  4 active torsions:
REMARK  status: ('A' for Active; 'I' for Inactive)
REMARK    1  A    between atoms: N_1  and  C_2
REMARK    2  A    between atoms: C_6  and  C_7
REMARK    3  A    between atoms: N_9  and  C_10
REMARK    4  A    between atoms: C_10  and  C_11
REMARK                            x       y       z     vdW  Elec       q    Type
REMARK                         _______ _______ _______ _____ _____    ______ ____
ROOT
ATOM      1  C   UNL     1       0.322   9.821  19.274  0.00  0.00    +0.000 C 
ENDROOT
BRANCH   1   2
ATOM      2  C   UNL     1      -0.695  10.717  18.506  0.00  0.00    +0.000 C 
ATOM      3  C   UNL     1      -1.763  11.532  19.373  0.00  0.00    +0.000 C 
ATOM      4  C   UNL     1      -3.091  11.702  18.628  0.00  0.00    +0.000 A 
ATOM      5  C   UNL     1      -3.185  11.274  17.315  0.00  0.00    +0.000 A 
ATOM      6  N   UNL     1      -4.427  11.540  16.827  0.00  0.00    +0.000 N 
ATOM      7  C   UNL     1      -5.224  11.953  17.858  0.00  0.00    +0.000 A 
ATOM      8  C   UNL     1      -6.604  12.151  17.845  0.00  0.00    +0.000 A 
ATOM      9  C   UNL     1      -7.239  11.824  19.029  0.00  0.00    +0.000 A 
ATOM     10  C   UNL     1      -6.544  11.971  20.220  0.00  0.00    +0.000 A 
ATOM     11  C   UNL     1      -5.152  12.205  20.230  0.00  0.00    +0.000 A 
ATOM     12  C   UNL     1      -4.450  11.982  19.025  0.00  0.00    +0.000 A 
ATOM     13  C   UNL     1      -2.182  10.491  16.577  0.00  0.00    +0.000 C 
ATOM     14  N   UNL     1      -1.393   9.776  17.569  0.00  0.00    +0.000 NA
ATOM     15  H   UNL     1      -4.784  11.231  15.934  0.00  0.00    +0.000 HD
ATOM     16  H   UNL     1      -0.745   9.154  17.094  0.00  0.00    +0.000 HD
ENDBRANCH   1   2
BRANCH   1  19
ATOM     17  C   UNL     1       2.987   7.725  17.978  0.00  0.00    +0.000 A 
ATOM     18  C   UNL     1       2.036   7.918  18.988  0.00  0.00    +0.000 A 
ATOM     19  N   UNL     1       1.394   9.068  18.656  0.00  0.00    +0.000 N 
ATOM     20  N   UNL     1       1.906   9.582  17.505  0.00  0.00    +0.000 NA
ATOM     21  N   UNL     1       2.891   8.781  17.122  0.00  0.00    +0.000 NA
BRANCH  17  26
ATOM     22  C   UNL     1       4.825   4.464  18.434  0.00  0.00    +0.000 A 
ATOM     23  C   UNL     1       5.664   4.483  17.320  0.00  0.00    +0.000 A 
ATOM     24  C   UNL     1       5.603   5.540  16.412  0.00  0.00    +0.000 A 
ATOM     25  C   UNL     1       4.724   6.599  16.644  0.00  0.00    +0.000 A 
ATOM     26  C   UNL     1       3.906   6.643  17.786  0.00  0.00    +0.000 A 
ATOM     27  C   UNL     1       4.000   5.569  18.694  0.00  0.00    +0.000 A 
BRANCH  22  28
ATOM     28  N   UNL     1       4.970   3.462  19.403  0.00  0.00    +0.000 N 
ATOM     29  H   UNL     1       4.349   2.670  19.260  0.00  0.00    +0.000 HD
ATOM     30  H   UNL     1       4.925   3.811  20.356  0.00  0.00    +0.000 HD
ENDBRANCH  22  28
ENDBRANCH  17  26
ENDBRANCH   1  19
TORSDOF 4
ENDMDL
