MODEL 1
REMARK VINA RESULT:      -7.2      0.000      0.000
REMARK  Name = 
REMARK  5 active torsions:
REMARK  status: ('A' for Active; 'I' for Inactive)
REMARK    1  A    between atoms: C_1  and  C_2
REMARK    2  A    between atoms: C_2  and  O_3
REMARK    3  A    between atoms: O_3  and  C_4
REMARK    4  A    between atoms: C_4  and  C_6
REMARK    5  A    between atoms: N_13  and  C_14
REMARK                            x       y       z     vdW  Elec       q    Type
REMARK                         _______ _______ _______ _____ _____    ______ ____
ROOT
ATOM      1  C   UNL     1       4.281   6.809  17.366  0.00  0.00    +0.000 A 
ATOM      2  C   UNL     1       3.756   8.010  17.075  0.00  0.00    +0.000 A 
ATOM      3  C   UNL     1       2.594   8.536  17.791  0.00  0.00    +0.000 A 
ATOM      4  O   UNL     1       2.164   9.655  17.534  0.00  0.00    +0.000 OA
ATOM      5  O   UNL     1       1.991   7.706  18.676  0.00  0.00    +0.000 OA
ATOM      6  C   UNL     1       2.584   6.484  19.032  0.00  0.00    +0.000 A 
ATOM      7  C   UNL     1       3.730   6.007  18.468  0.00  0.00    +0.000 A 
ATOM      8  N   UNL     1       4.288   4.802  18.965  0.00  0.00    +0.000 N 
ATOM      9  C   UNL     1       5.583   4.209  18.660  0.00  0.00    +0.000 C 
ATOM     10  C   UNL     1       3.537   3.987  19.886  0.00  0.00    +0.000 A 
ATOM     11  N   UNL     1       3.988   2.763  20.265  0.00  0.00    +0.000 NA
ATOM     12  C   UNL     1       3.249   2.064  21.150  0.00  0.00    +0.000 A 
ATOM     13  C   UNL     1       2.067   2.514  21.702  0.00  0.00    +0.000 A 
ATOM     14  C   UNL     1       1.595   3.764  21.314  0.00  0.00    +0.000 A 
ATOM     15  C   UNL     1       2.319   4.511  20.385  0.00  0.00    +0.000 A 
ATOM     16  N   UNL     1       1.915   5.806  20.028  0.00  0.00    +0.000 N 
ATOM     17  H   UNL     1       0.963   6.095  20.204  0.00  0.00    +0.000 HD
ENDROOT
BRANCH   1  18
ATOM     18  C   UNL     1       5.293   6.317  16.388  0.00  0.00    +0.000 C 
ATOM     19  O   UNL     1       5.150   5.325  15.690  0.00  0.00    +0.000 OA
BRANCH  18  20
ATOM     20  O   UNL     1       6.382   7.135  16.349  0.00  0.00    +0.000 OA
BRANCH  20  22
ATOM     21  C   UNL     1       7.956   8.364  17.786  0.00  0.00    +0.000 C 
ATOM     22  C   UNL     1       7.283   7.039  17.463  0.00  0.00    +0.000 C 
ENDBRANCH  20  22
ENDBRANCH  18  20
ENDBRANCH   1  18
TORSDOF 3
ENDMDL
MODEL 2
REMARK VINA RESULT:      -7.0      2.670      3.795
REMARK  Name = 
REMARK  5 active torsions:
REMARK  status: ('A' for Active; 'I' for Inactive)
REMARK    1  A    between atoms: C_1  and  C_2
REMARK    2  A    between atoms: C_2  and  O_3
REMARK    3  A    between atoms: O_3  and  C_4
REMARK    4  A    between atoms: C_4  and  C_6
REMARK    5  A    between atoms: N_13  and  C_14
REMARK                            x       y       z     vdW  Elec       q    Type
REMARK                         _______ _______ _______ _____ _____    ______ ____
ROOT
ATOM      1  C   UNL     1       6.041   4.968  16.999  0.00  0.00    +0.000 A 
ATOM      2  C   UNL     1       7.175   5.483  17.504  0.00  0.00    +0.000 A 
ATOM      3  C   UNL     1       7.380   5.628  18.944  0.00  0.00    +0.000 A 
ATOM      4  O   UNL     1       8.442   6.061  19.377  0.00  0.00    +0.000 OA
ATOM      5  O   UNL     1       6.328   5.337  19.747  0.00  0.00    +0.000 OA
ATOM      6  C   UNL     1       5.174   4.730  19.225  0.00  0.00    +0.000 A 
ATOM      7  C   UNL     1       4.988   4.475  17.899  0.00  0.00    +0.000 A 
ATOM      8  N   UNL     1       3.822   3.778  17.492  0.00  0.00    +0.000 N 
ATOM      9  C   UNL     1       3.504   3.230  16.180  0.00  0.00    +0.000 C 
ATOM     10  C   UNL     1       2.754   3.550  18.433  0.00  0.00    +0.000 A 
ATOM     11  N   UNL     1       1.573   3.014  18.034  0.00  0.00    +0.000 NA
ATOM     12  C   UNL     1       0.625   2.803  18.970  0.00  0.00    +0.000 A 
ATOM     13  C   UNL     1       0.781   3.092  20.310  0.00  0.00    +0.000 A 
ATOM     14  C   UNL     1       1.987   3.648  20.727  0.00  0.00    +0.000 A 
ATOM     15  C   UNL     1       2.986   3.901  19.786  0.00  0.00    +0.000 A 
ATOM     16  N   UNL     1       4.241   4.389  20.179  0.00  0.00    +0.000 N 
ATOM     17  H   UNL     1       4.339   4.833  21.081  0.00  0.00    +0.000 HD
ENDROOT
BRANCH   1  18
ATOM     18  C   UNL     1       5.889   5.120  15.524  0.00  0.00    +0.000 C 
ATOM     19  O   UNL     1       5.395   6.095  14.981  0.00  0.00    +0.000 OA
BRANCH  18  20
ATOM     20  O   UNL     1       6.403   4.046  14.860  0.00  0.00    +0.000 OA
BRANCH  20  22
ATOM     21  C   UNL     1       5.895   3.411  12.539  0.00  0.00    +0.000 C 
ATOM     22  C   UNL     1       6.737   4.259  13.481  0.00  0.00    +0.000 C 
ENDBRANCH  20  22
ENDBRANCH  18  20
ENDBRANCH   1  18
TORSDOF 3
ENDMDL
MODEL 3
REMARK VINA RESULT:      -7.0      2.272      4.992
REMARK  Name = 
REMARK  5 active torsions:
REMARK  status: ('A' for Active; 'I' for Inactive)
REMARK    1  A    between atoms: C_1  and  C_2
REMARK    2  A    between atoms: C_2  and  O_3
REMARK    3  A    between atoms: O_3  and  C_4
REMARK    4  A    between atoms: C_4  and  C_6
REMARK    5  A    between atoms: N_13  and  C_14
REMARK                            x       y       z     vdW  Elec       q    Type
REMARK                         _______ _______ _______ _____ _____    ______ ____
ROOT
ATOM      1  C   UNL     1       4.423   4.599  17.932  0.00  0.00    +0.000 A 
ATOM      2  C   UNL     1       5.215   4.590  16.846  0.00  0.00    +0.000 A 
ATOM      3  C   UNL     1       5.373   5.772  15.999  0.00  0.00    +0.000 A 
ATOM      4  O   UNL     1       6.137   5.746  15.041  0.00  0.00    +0.000 OA
ATOM      5  O   UNL     1       4.589   6.839  16.282  0.00  0.00    +0.000 OA
ATOM      6  C   UNL     1       3.820   6.874  17.457  0.00  0.00    +0.000 A 
ATOM      7  C   UNL     1       3.733   5.833  18.333  0.00  0.00    +0.000 A 
ATOM      8  N   UNL     1       2.997   6.008  19.533  0.00  0.00    +0.000 N 
ATOM      9  C   UNL     1       2.924   5.125  20.689  0.00  0.00    +0.000 C 
ATOM     10  C   UNL     1       2.174   7.178  19.709  0.00  0.00    +0.000 A 
ATOM     11  N   UNL     1       1.352   7.301  20.783  0.00  0.00    +0.000 NA
ATOM     12  C   UNL     1       0.629   8.433  20.900  0.00  0.00    +0.000 A 
ATOM     13  C   UNL     1       0.675   9.480  20.001  0.00  0.00    +0.000 A 
ATOM     14  C   UNL     1       1.511   9.360  18.895  0.00  0.00    +0.000 A 
ATOM     15  C   UNL     1       2.260   8.196  18.726  0.00  0.00    +0.000 A 
ATOM     16  N   UNL     1       3.169   8.070  17.666  0.00  0.00    +0.000 N 
ATOM     17  H   UNL     1       3.081   8.678  16.863  0.00  0.00    +0.000 HD
ENDROOT
BRANCH   1  18
ATOM     18  C   UNL     1       4.177   3.259  18.535  0.00  0.00    +0.000 C 
ATOM     19  O   UNL     1       4.845   2.777  19.436  0.00  0.00    +0.000 OA
BRANCH  18  20
ATOM     20  O   UNL     1       3.091   2.655  17.974  0.00  0.00    +0.000 OA
BRANCH  20  22
ATOM     21  C   UNL     1       0.794   2.554  18.848  0.00  0.00    +0.000 C 
ATOM     22  C   UNL     1       2.204   1.984  18.882  0.00  0.00    +0.000 C 
ENDBRANCH  20  22
ENDBRANCH  18  20
ENDBRANCH   1  18
TORSDOF 3
ENDMDL
MODEL 4
REMARK VINA RESULT:      -7.0      2.489      4.742
REMARK  Name = 
REMARK  5 active torsions:
REMARK  status: ('A' for Active; 'I' for Inactive)
REMARK    1  A    between atoms: C_1  and  C_2
REMARK    2  A    between atoms: C_2  and  O_3
REMARK    3  A    between atoms: O_3  and  C_4
REMARK    4  A    between atoms: C_4  and  C_6
REMARK    5  A    between atoms: N_13  and  C_14
REMARK                            x       y       z     vdW  Elec       q    Type
REMARK                         _______ _______ _______ _____ _____    ______ ____
ROOT
ATOM      1  C   UNL     1       3.852   4.181  19.320  0.00  0.00    +0.000 A 
ATOM      2  C   UNL     1       3.659   3.190  20.207  0.00  0.00    +0.000 A 
ATOM      3  C   UNL     1       2.716   3.324  21.317  0.00  0.00    +0.000 A 
ATOM      4  O   UNL     1       2.528   2.387  22.085  0.00  0.00    +0.000 OA
ATOM      5  O   UNL     1       2.136   4.537  21.487  0.00  0.00    +0.000 OA
ATOM      6  C   UNL     1       2.281   5.544  20.519  0.00  0.00    +0.000 A 
ATOM      7  C   UNL     1       3.065   5.418  19.410  0.00  0.00    +0.000 A 
ATOM      8  N   UNL     1       3.069   6.465  18.453  0.00  0.00    +0.000 N 
ATOM      9  C   UNL     1       3.663   6.474  17.123  0.00  0.00    +0.000 C 
ATOM     10  C   UNL     1       2.439   7.724  18.760  0.00  0.00    +0.000 A 
ATOM     11  N   UNL     1       2.552   8.786  17.921  0.00  0.00    +0.000 NA
ATOM     12  C   UNL     1       1.917   9.927  18.256  0.00  0.00    +0.000 A 
ATOM     13  C   UNL     1       1.152  10.084  19.394  0.00  0.00    +0.000 A 
ATOM     14  C   UNL     1       1.036   9.003  20.262  0.00  0.00    +0.000 A 
ATOM     15  C   UNL     1       1.695   7.811  19.963  0.00  0.00    +0.000 A 
ATOM     16  N   UNL     1       1.540   6.677  20.773  0.00  0.00    +0.000 N 
ATOM     17  H   UNL     1       1.200   6.786  21.718  0.00  0.00    +0.000 HD
ENDROOT
BRANCH   1  18
ATOM     18  C   UNL     1       5.016   3.984  18.410  0.00  0.00    +0.000 C 
ATOM     19  O   UNL     1       4.943   3.489  17.296  0.00  0.00    +0.000 OA
BRANCH  18  20
ATOM     20  O   UNL     1       6.166   4.456  18.968  0.00  0.00    +0.000 OA
BRANCH  20  22
ATOM     21  C   UNL     1       7.517   6.376  18.232  0.00  0.00    +0.000 C 
ATOM     22  C   UNL     1       7.175   4.905  18.050  0.00  0.00    +0.000 C 
ENDBRANCH  20  22
ENDBRANCH  18  20
ENDBRANCH   1  18
TORSDOF 3
ENDMDL
MODEL 5
REMARK VINA RESULT:      -6.9      2.717      3.698
REMARK  Name = 
REMARK  5 active torsions:
REMARK  status: ('A' for Active; 'I' for Inactive)
REMARK    1  A    between atoms: C_1  and  C_2
REMARK    2  A    between atoms: C_2  and  O_3
REMARK    3  A    between atoms: O_3  and  C_4
REMARK    4  A    between atoms: C_4  and  C_6
REMARK    5  A    between atoms: N_13  and  C_14
REMARK                            x       y       z     vdW  Elec       q    Type
REMARK                         _______ _______ _______ _____ _____    ______ ____
ROOT
ATOM      1  C   UNL     1       6.383   4.926  16.821  0.00  0.00    +0.000 A 
ATOM      2  C   UNL     1       6.761   4.661  15.559  0.00  0.00    +0.000 A 
ATOM      3  C   UNL     1       5.891   3.942  14.630  0.00  0.00    +0.000 A 
ATOM      4  O   UNL     1       6.246   3.753  13.472  0.00  0.00    +0.000 OA
ATOM      5  O   UNL     1       4.736   3.443  15.132  0.00  0.00    +0.000 OA
ATOM      6  C   UNL     1       4.308   3.784  16.425  0.00  0.00    +0.000 A 
ATOM      7  C   UNL     1       5.041   4.547  17.286  0.00  0.00    +0.000 A 
ATOM      8  N   UNL     1       4.475   4.903  18.536  0.00  0.00    +0.000 N 
ATOM      9  C   UNL     1       4.977   5.852  19.522  0.00  0.00    +0.000 C 
ATOM     10  C   UNL     1       3.251   4.283  18.976  0.00  0.00    +0.000 A 
ATOM     11  N   UNL     1       2.765   4.500  20.225  0.00  0.00    +0.000 NA
ATOM     12  C   UNL     1       1.601   3.909  20.563  0.00  0.00    +0.000 A 
ATOM     13  C   UNL     1       0.867   3.103  19.718  0.00  0.00    +0.000 A 
ATOM     14  C   UNL     1       1.360   2.870  18.437  0.00  0.00    +0.000 A 
ATOM     15  C   UNL     1       2.571   3.446  18.056  0.00  0.00    +0.000 A 
ATOM     16  N   UNL     1       3.062   3.297  16.750  0.00  0.00    +0.000 N 
ATOM     17  H   UNL     1       2.709   2.548  16.171  0.00  0.00    +0.000 HD
ENDROOT
BRANCH   1  18
ATOM     18  C   UNL     1       7.470   5.437  17.704  0.00  0.00    +0.000 C 
ATOM     19  O   UNL     1       7.978   4.797  18.611  0.00  0.00    +0.000 OA
BRANCH  18  20
ATOM     20  O   UNL     1       7.845   6.698  17.347  0.00  0.00    +0.000 OA
BRANCH  20  22
ATOM     21  C   UNL     1       8.222   9.040  17.999  0.00  0.00    +0.000 C 
ATOM     22  C   UNL     1       8.197   7.579  18.424  0.00  0.00    +0.000 C 
ENDBRANCH  20  22
ENDBRANCH  18  20
ENDBRANCH   1  18
TORSDOF 3
ENDMDL
MODEL 6
REMARK VINA RESULT:      -6.9      0.904      1.718
REMARK  Name = 
REMARK  5 active torsions:
REMARK  status: ('A' for Active; 'I' for Inactive)
REMARK    1  A    between atoms: C_1  and  C_2
REMARK    2  A    between atoms: C_2  and  O_3
REMARK    3  A    between atoms: O_3  and  C_4
REMARK    4  A    between atoms: C_4  and  C_6
REMARK    5  A    between atoms: N_13  and  C_14
REMARK                            x       y       z     vdW  Elec       q    Type
REMARK                         _______ _______ _______ _____ _____    ______ ____
ROOT
ATOM      1  C   UNL     1       4.353   6.906  17.478  0.00  0.00    +0.000 A 
ATOM      2  C   UNL     1       3.788   8.079  17.148  0.00  0.00    +0.000 A 
ATOM      3  C   UNL     1       2.544   8.535  17.766  0.00  0.00    +0.000 A 
ATOM      4  O   UNL     1       2.076   9.630  17.477  0.00  0.00    +0.000 OA
ATOM      5  O   UNL     1       1.916   7.667  18.595  0.00  0.00    +0.000 OA
ATOM      6  C   UNL     1       2.544   6.476  18.995  0.00  0.00    +0.000 A 
ATOM      7  C   UNL     1       3.757   6.067  18.527  0.00  0.00    +0.000 A 
ATOM      8  N   UNL     1       4.338   4.890  19.066  0.00  0.00    +0.000 N 
ATOM      9  C   UNL     1       5.685   4.372  18.868  0.00  0.00    +0.000 C 
ATOM     10  C   UNL     1       3.559   4.028  19.918  0.00  0.00    +0.000 A 
ATOM     11  N   UNL     1       4.044   2.828  20.330  0.00  0.00    +0.000 NA
ATOM     12  C   UNL     1       3.274   2.082  21.147  0.00  0.00    +0.000 A 
ATOM     13  C   UNL     1       2.026   2.463  21.599  0.00  0.00    +0.000 A 
ATOM     14  C   UNL     1       1.520   3.688  21.178  0.00  0.00    +0.000 A 
ATOM     15  C   UNL     1       2.276   4.481  20.315  0.00  0.00    +0.000 A 
ATOM     16  N   UNL     1       1.833   5.755  19.929  0.00  0.00    +0.000 N 
ATOM     17  H   UNL     1       0.855   5.989  20.026  0.00  0.00    +0.000 HD
ENDROOT
BRANCH   1  18
ATOM     18  C   UNL     1       5.469   6.478  16.586  0.00  0.00    +0.000 C 
ATOM     19  O   UNL     1       6.605   6.921  16.645  0.00  0.00    +0.000 OA
BRANCH  18  20
ATOM     20  O   UNL     1       5.065   5.508  15.718  0.00  0.00    +0.000 OA
BRANCH  20  22
ATOM     21  C   UNL     1       5.731   4.028  13.870  0.00  0.00    +0.000 C 
ATOM     22  C   UNL     1       6.095   4.647  15.211  0.00  0.00    +0.000 C 
ENDBRANCH  20  22
ENDBRANCH  18  20
ENDBRANCH   1  18
TORSDOF 3
ENDMDL
MODEL 7
REMARK VINA RESULT:      -6.8      2.484      4.374
REMARK  Name = 
REMARK  5 active torsions:
REMARK  status: ('A' for Active; 'I' for Inactive)
REMARK    1  A    between atoms: C_1  and  C_2
REMARK    2  A    between atoms: C_2  and  O_3
REMARK    3  A    between atoms: O_3  and  C_4
REMARK    4  A    between atoms: C_4  and  C_6
REMARK    5  A    between atoms: N_13  and  C_14
REMARK                            x       y       z     vdW  Elec       q    Type
REMARK                         _______ _______ _______ _____ _____    ______ ____
ROOT
ATOM      1  C   UNL     1       4.136   5.384  18.123  0.00  0.00    +0.000 A 
ATOM      2  C   UNL     1       4.423   4.104  18.414  0.00  0.00    +0.000 A 
ATOM      3  C   UNL     1       3.798   3.412  19.540  0.00  0.00    +0.000 A 
ATOM      4  O   UNL     1       4.047   2.231  19.755  0.00  0.00    +0.000 OA
ATOM      5  O   UNL     1       3.009   4.153  20.355  0.00  0.00    +0.000 OA
ATOM      6  C   UNL     1       2.651   5.466  20.007  0.00  0.00    +0.000 A 
ATOM      7  C   UNL     1       3.125   6.111  18.904  0.00  0.00    +0.000 A 
ATOM      8  N   UNL     1       2.629   7.405  18.601  0.00  0.00    +0.000 N 
ATOM      9  C   UNL     1       2.836   8.196  17.396  0.00  0.00    +0.000 C 
ATOM     10  C   UNL     1       1.817   8.108  19.562  0.00  0.00    +0.000 A 
ATOM     11  N   UNL     1       1.450   9.399  19.357  0.00  0.00    +0.000 NA
ATOM     12  C   UNL     1       0.668   9.989  20.284  0.00  0.00    +0.000 A 
ATOM     13  C   UNL     1       0.211   9.363  21.426  0.00  0.00    +0.000 A 
ATOM     14  C   UNL     1       0.588   8.042  21.647  0.00  0.00    +0.000 A 
ATOM     15  C   UNL     1       1.413   7.402  20.723  0.00  0.00    +0.000 A 
ATOM     16  N   UNL     1       1.751   6.049  20.873  0.00  0.00    +0.000 N 
ATOM     17  H   UNL     1       1.653   5.611  21.778  0.00  0.00    +0.000 HD
ENDROOT
BRANCH   1  18
ATOM     18  C   UNL     1       5.035   6.010  17.113  0.00  0.00    +0.000 C 
ATOM     19  O   UNL     1       4.918   5.868  15.906  0.00  0.00    +0.000 OA
BRANCH  18  20
ATOM     20  O   UNL     1       5.983   6.787  17.708  0.00  0.00    +0.000 OA
BRANCH  20  22
ATOM     21  C   UNL     1       7.761   5.847  19.124  0.00  0.00    +0.000 C 
ATOM     22  C   UNL     1       7.315   6.252  17.728  0.00  0.00    +0.000 C 
ENDBRANCH  20  22
ENDBRANCH  18  20
ENDBRANCH   1  18
TORSDOF 3
ENDMDL
MODEL 8
REMARK VINA RESULT:      -6.7      2.502      4.560
REMARK  Name = 
REMARK  5 active torsions:
REMARK  status: ('A' for Active; 'I' for Inactive)
REMARK    1  A    between atoms: C_1  and  C_2
REMARK    2  A    between atoms: C_2  and  O_3
REMARK    3  A    between atoms: O_3  and  C_4
REMARK    4  A    between atoms: C_4  and  C_6
REMARK    5  A    between atoms: N_13  and  C_14
REMARK                            x       y       z     vdW  Elec       q    Type
REMARK                         _______ _______ _______ _____ _____    ______ ____
ROOT
ATOM      1  C   UNL     1       4.599   5.197  18.199  0.00  0.00    +0.000 A 
ATOM      2  C   UNL     1       4.959   3.958  18.573  0.00  0.00    +0.000 A 
ATOM      3  C   UNL     1       4.337   3.288  19.714  0.00  0.00    +0.000 A 
ATOM      4  O   UNL     1       4.656   2.140  20.005  0.00  0.00    +0.000 OA
ATOM      5  O   UNL     1       3.470   4.016  20.456  0.00  0.00    +0.000 OA
ATOM      6  C   UNL     1       3.039   5.281  20.022  0.00  0.00    +0.000 A 
ATOM      7  C   UNL     1       3.512   5.895  18.901  0.00  0.00    +0.000 A 
ATOM      8  N   UNL     1       2.943   7.133  18.507  0.00  0.00    +0.000 N 
ATOM      9  C   UNL     1       3.145   7.870  17.266  0.00  0.00    +0.000 C 
ATOM     10  C   UNL     1       2.050   7.831  19.397  0.00  0.00    +0.000 A 
ATOM     11  N   UNL     1       1.606   9.081  19.105  0.00  0.00    +0.000 NA
ATOM     12  C   UNL     1       0.751   9.666  19.968  0.00  0.00    +0.000 A 
ATOM     13  C   UNL     1       0.293   9.074  21.127  0.00  0.00    +0.000 A 
ATOM     14  C   UNL     1       0.748   7.796  21.437  0.00  0.00    +0.000 A 
ATOM     15  C   UNL     1       1.649   7.164  20.581  0.00  0.00    +0.000 A 
ATOM     16  N   UNL     1       2.070   5.847  20.820  0.00  0.00    +0.000 N 
ATOM     17  H   UNL     1       1.966   5.454  21.745  0.00  0.00    +0.000 HD
ENDROOT
BRANCH   1  18
ATOM     18  C   UNL     1       5.493   5.828  17.186  0.00  0.00    +0.000 C 
ATOM     19  O   UNL     1       6.334   6.674  17.443  0.00  0.00    +0.000 OA
BRANCH  18  20
ATOM     20  O   UNL     1       5.273   5.314  15.943  0.00  0.00    +0.000 OA
BRANCH  20  22
ATOM     21  C   UNL     1       6.108   4.116  13.963  0.00  0.00    +0.000 C 
ATOM     22  C   UNL     1       6.442   4.934  15.201  0.00  0.00    +0.000 C 
ENDBRANCH  20  22
ENDBRANCH  18  20
ENDBRANCH   1  18
TORSDOF 3
ENDMDL
MODEL 9
REMARK VINA RESULT:      -6.6      3.847      6.221
REMARK  Name = 
REMARK  5 active torsions:
REMARK  status: ('A' for Active; 'I' for Inactive)
REMARK    1  A    between atoms: C_1  and  C_2
REMARK    2  A    between atoms: C_2  and  O_3
REMARK    3  A    between atoms: O_3  and  C_4
REMARK    4  A    between atoms: C_4  and  C_6
REMARK    5  A    between atoms: N_13  and  C_14
REMARK                            x       y       z     vdW  Elec       q    Type
REMARK                         _______ _______ _______ _____ _____    ______ ____
ROOT
ATOM      1  C   UNL     1       0.159  10.489  20.078  0.00  0.00    +0.000 A 
ATOM      2  C   UNL     1      -0.403  10.880  21.234  0.00  0.00    +0.000 A 
ATOM      3  C   UNL     1      -0.276  10.089  22.457  0.00  0.00    +0.000 A 
ATOM      4  O   UNL     1      -0.762  10.493  23.507  0.00  0.00    +0.000 OA
ATOM      5  O   UNL     1       0.326   8.881  22.347  0.00  0.00    +0.000 OA
ATOM      6  C   UNL     1       0.976   8.508  21.159  0.00  0.00    +0.000 A 
ATOM      7  C   UNL     1       0.977   9.269  20.028  0.00  0.00    +0.000 A 
ATOM      8  N   UNL     1       1.740   8.837  18.913  0.00  0.00    +0.000 N 
ATOM      9  C   UNL     1       2.046   9.564  17.688  0.00  0.00    +0.000 C 
ATOM     10  C   UNL     1       2.312   7.515  18.901  0.00  0.00    +0.000 A 
ATOM     11  N   UNL     1       2.923   7.027  17.790  0.00  0.00    +0.000 NA
ATOM     12  C   UNL     1       3.460   5.792  17.855  0.00  0.00    +0.000 A 
ATOM     13  C   UNL     1       3.433   4.992  18.979  0.00  0.00    +0.000 A 
ATOM     14  C   UNL     1       2.803   5.481  20.119  0.00  0.00    +0.000 A 
ATOM     15  C   UNL     1       2.217   6.747  20.088  0.00  0.00    +0.000 A 
ATOM     16  N   UNL     1       1.641   7.304  21.239  0.00  0.00    +0.000 N 
ATOM     17  H   UNL     1       1.382   6.699  22.005  0.00  0.00    +0.000 HD
ENDROOT
BRANCH   1  18
ATOM     18  C   UNL     1      -0.269  11.268  18.881  0.00  0.00    +0.000 C 
ATOM     19  O   UNL     1       0.185  12.358  18.571  0.00  0.00    +0.000 OA
BRANCH  18  20
ATOM     20  O   UNL     1      -1.210  10.593  18.162  0.00  0.00    +0.000 OA
BRANCH  20  22
ATOM     21  C   UNL     1      -2.628  10.709  16.155  0.00  0.00    +0.000 C 
ATOM     22  C   UNL     1      -2.134  11.400  17.417  0.00  0.00    +0.000 C 
ENDBRANCH  20  22
ENDBRANCH  18  20
ENDBRANCH   1  18
TORSDOF 3
ENDMDL
