MODEL 1
REMARK VINA RESULT:      -6.8      0.000      0.000
REMARK  Name = 
REMARK  8 active torsions:
REMARK  status: ('A' for Active; 'I' for Inactive)
REMARK    1  A    between atoms: C_1  and  C_2
REMARK    2  A    between atoms: C_2  and  C_3
REMARK    3  A    between atoms: C_3  and  C_4
REMARK    4  A    between atoms: C_3  and  C_6
REMARK    5  A    between atoms: C_4  and  C_5
REMARK    6  A    between atoms: C_8  and  C_9
REMARK    7  A    between atoms: C_12  and  C_13
REMARK    8  A    between atoms: C_25  and  C_26
REMARK                            x       y       z     vdW  Elec       q    Type
REMARK                         _______ _______ _______ _____ _____    ______ ____
ROOT
ATOM      1  C   UNL     1      -5.477  12.265  20.100  0.00  0.00    +0.000 A 
ATOM      2  C   UNL     1      -5.360  12.797  21.331  0.00  0.00    +0.000 A 
ATOM      3  C   UNL     1      -3.979  13.065  21.829  0.00  0.00    +0.000 A 
ATOM      4  C   UNL     1      -3.858  13.645  23.217  0.00  0.00    +0.000 C 
ATOM      5  N   UNL     1      -2.890  12.847  21.154  0.00  0.00    +0.000 NA
ATOM      6  C   UNL     1      -3.033  12.351  19.885  0.00  0.00    +0.000 A 
ATOM      7  C   UNL     1      -2.118  12.134  18.866  0.00  0.00    +0.000 A 
ATOM      8  C   UNL     1      -2.874  11.574  17.809  0.00  0.00    +0.000 A 
ATOM      9  C   UNL     1      -2.445  11.148  16.453  0.00  0.00    +0.000 C 
ATOM     10  N   UNL     1      -4.178  11.490  18.114  0.00  0.00    +0.000 NA
ATOM     11  N   UNL     1      -4.294  12.016  19.359  0.00  0.00    +0.000 N 
ENDROOT
BRANCH   7  12
ATOM     12  C   UNL     1      -0.688  12.497  18.842  0.00  0.00    +0.000 A 
ATOM     13  N   UNL     1      -0.281  13.833  19.006  0.00  0.00    +0.000 NA
ATOM     14  C   UNL     1       1.039  13.941  18.970  0.00  0.00    +0.000 A 
ATOM     15  N   UNL     1       1.758  15.099  19.111  0.00  0.00    +0.000 N 
ATOM     16  C   UNL     1       1.090  16.394  19.310  0.00  0.00    +0.000 C 
ATOM     17  C   UNL     1       1.233  17.270  18.050  0.00  0.00    +0.000 C 
ATOM     18  O   UNL     1       2.605  17.421  17.651  0.00  0.00    +0.000 OA
ATOM     19  C   UNL     1       3.191  16.137  17.389  0.00  0.00    +0.000 C 
ATOM     20  C   UNL     1       3.147  15.247  18.643  0.00  0.00    +0.000 C 
ATOM     21  S   UNL     1       1.844  12.406  18.801  0.00  0.00    +0.000 S 
ATOM     22  C   UNL     1       0.360  11.613  18.722  0.00  0.00    +0.000 A 
ATOM     23 CL   UNL     1       0.376   9.900  18.591  0.00  0.00    +0.000 Cl
ENDBRANCH   7  12
BRANCH   1  24
ATOM     24  C   UNL     1      -6.840  11.941  19.484  0.00  0.00    +0.000 C 
BRANCH  24  26
ATOM     25  C   UNL     1      -7.046  12.978  17.119  0.00  0.00    +0.000 C 
ATOM     26  C   UNL     1      -7.310  13.137  18.611  0.00  0.00    +0.000 C 
ENDBRANCH  24  26
BRANCH  24  27
ATOM     27  C   UNL     1      -6.820  10.626  18.662  0.00  0.00    +0.000 C 
ATOM     28  C   UNL     1      -7.024   9.363  19.490  0.00  0.00    +0.000 C 
ENDBRANCH  24  27
ENDBRANCH   1  24
TORSDOF 4
ENDMDL
MODEL 2
REMARK VINA RESULT:      -6.6      5.635      7.840
REMARK  Name = 
REMARK  8 active torsions:
REMARK  status: ('A' for Active; 'I' for Inactive)
REMARK    1  A    between atoms: C_1  and  C_2
REMARK    2  A    between atoms: C_2  and  C_3
REMARK    3  A    between atoms: C_3  and  C_4
REMARK    4  A    between atoms: C_3  and  C_6
REMARK    5  A    between atoms: C_4  and  C_5
REMARK    6  A    between atoms: C_8  and  C_9
REMARK    7  A    between atoms: C_12  and  C_13
REMARK    8  A    between atoms: C_25  and  C_26
REMARK                            x       y       z     vdW  Elec       q    Type
REMARK                         _______ _______ _______ _____ _____    ______ ____
ROOT
ATOM      1  C   UNL     1      -1.572  11.907  21.218  0.00  0.00    +0.000 A 
ATOM      2  C   UNL     1      -2.176  12.083  20.028  0.00  0.00    +0.000 A 
ATOM      3  C   UNL     1      -1.644  11.303  18.873  0.00  0.00    +0.000 A 
ATOM      4  C   UNL     1      -2.317  11.521  17.539  0.00  0.00    +0.000 C 
ATOM      5  N   UNL     1      -0.663  10.453  18.938  0.00  0.00    +0.000 NA
ATOM      6  C   UNL     1      -0.095  10.252  20.168  0.00  0.00    +0.000 A 
ATOM      7  C   UNL     1       0.854   9.344  20.613  0.00  0.00    +0.000 A 
ATOM      8  C   UNL     1       1.050   9.661  21.978  0.00  0.00    +0.000 A 
ATOM      9  C   UNL     1       1.935   9.023  22.986  0.00  0.00    +0.000 C 
ATOM     10  N   UNL     1       0.249  10.658  22.383  0.00  0.00    +0.000 NA
ATOM     11  N   UNL     1      -0.497  10.988  21.298  0.00  0.00    +0.000 N 
ENDROOT
BRANCH   7  12
ATOM     12  C   UNL     1       1.458   8.227  19.863  0.00  0.00    +0.000 A 
ATOM     13  N   UNL     1       1.299   6.899  20.295  0.00  0.00    +0.000 NA
ATOM     14  C   UNL     1       1.904   6.051  19.476  0.00  0.00    +0.000 A 
ATOM     15  N   UNL     1       1.929   4.687  19.602  0.00  0.00    +0.000 N 
ATOM     16  C   UNL     1       1.267   4.011  20.728  0.00  0.00    +0.000 C 
ATOM     17  C   UNL     1       2.316   3.432  21.697  0.00  0.00    +0.000 C 
ATOM     18  O   UNL     1       3.256   2.577  21.027  0.00  0.00    +0.000 OA
ATOM     19  C   UNL     1       3.937   3.303  19.992  0.00  0.00    +0.000 C 
ATOM     20  C   UNL     1       2.940   3.837  18.949  0.00  0.00    +0.000 C 
ATOM     21  S   UNL     1       2.635   6.834  18.104  0.00  0.00    +0.000 S 
ATOM     22  C   UNL     1       2.160   8.342  18.684  0.00  0.00    +0.000 A 
ATOM     23 CL   UNL     1       2.534   9.720  17.728  0.00  0.00    +0.000 Cl
ENDBRANCH   7  12
BRANCH   1  24
ATOM     24  C   UNL     1      -2.025  12.656  22.475  0.00  0.00    +0.000 C 
BRANCH  24  26
ATOM     25  C   UNL     1      -0.217  14.510  22.510  0.00  0.00    +0.000 C 
ATOM     26  C   UNL     1      -1.689  14.165  22.326  0.00  0.00    +0.000 C 
ENDBRANCH  24  26
BRANCH  24  27
ATOM     27  C   UNL     1      -3.532  12.449  22.776  0.00  0.00    +0.000 C 
ATOM     28  C   UNL     1      -3.910  12.616  24.243  0.00  0.00    +0.000 C 
ENDBRANCH  24  27
ENDBRANCH   1  24
TORSDOF 4
ENDMDL
MODEL 3
REMARK VINA RESULT:      -6.5      1.263      3.188
REMARK  Name = 
REMARK  8 active torsions:
REMARK  status: ('A' for Active; 'I' for Inactive)
REMARK    1  A    between atoms: C_1  and  C_2
REMARK    2  A    between atoms: C_2  and  C_3
REMARK    3  A    between atoms: C_3  and  C_4
REMARK    4  A    between atoms: C_3  and  C_6
REMARK    5  A    between atoms: C_4  and  C_5
REMARK    6  A    between atoms: C_8  and  C_9
REMARK    7  A    between atoms: C_12  and  C_13
REMARK    8  A    between atoms: C_25  and  C_26
REMARK                            x       y       z     vdW  Elec       q    Type
REMARK                         _______ _______ _______ _____ _____    ______ ____
ROOT
ATOM      1  C   UNL     1      -5.350  11.327  18.232  0.00  0.00    +0.000 A 
ATOM      2  C   UNL     1      -4.939  10.774  17.076  0.00  0.00    +0.000 A 
ATOM      3  C   UNL     1      -3.493  10.911  16.733  0.00  0.00    +0.000 A 
ATOM      4  C   UNL     1      -3.045  10.302  15.426  0.00  0.00    +0.000 C 
ATOM      5  N   UNL     1      -2.604  11.499  17.477  0.00  0.00    +0.000 NA
ATOM      6  C   UNL     1      -3.035  12.013  18.672  0.00  0.00    +0.000 A 
ATOM      7  C   UNL     1      -2.350  12.570  19.741  0.00  0.00    +0.000 A 
ATOM      8  C   UNL     1      -3.356  12.942  20.664  0.00  0.00    +0.000 A 
ATOM      9  C   UNL     1      -3.232  13.571  22.003  0.00  0.00    +0.000 C 
ATOM     10  N   UNL     1      -4.581  12.599  20.238  0.00  0.00    +0.000 NA
ATOM     11  N   UNL     1      -4.390  11.978  19.046  0.00  0.00    +0.000 N 
ENDROOT
BRANCH   7  12
ATOM     12  C   UNL     1      -0.890  12.667  19.928  0.00  0.00    +0.000 A 
ATOM     13  N   UNL     1      -0.223  13.894  19.772  0.00  0.00    +0.000 NA
ATOM     14  C   UNL     1       1.077  13.767  19.998  0.00  0.00    +0.000 A 
ATOM     15  N   UNL     1       2.007  14.772  19.943  0.00  0.00    +0.000 N 
ATOM     16  C   UNL     1       1.626  16.149  19.593  0.00  0.00    +0.000 C 
ATOM     17  C   UNL     1       2.159  16.513  18.194  0.00  0.00    +0.000 C 
ATOM     18  O   UNL     1       3.575  16.296  18.083  0.00  0.00    +0.000 OA
ATOM     19  C   UNL     1       3.890  14.921  18.353  0.00  0.00    +0.000 C 
ATOM     20  C   UNL     1       3.449  14.525  19.773  0.00  0.00    +0.000 C 
ATOM     21  S   UNL     1       1.530  12.157  20.478  0.00  0.00    +0.000 S 
ATOM     22  C   UNL     1      -0.063  11.636  20.313  0.00  0.00    +0.000 A 
ATOM     23 CL   UNL     1      -0.414  10.001  20.706  0.00  0.00    +0.000 Cl
ENDBRANCH   7  12
BRANCH   1  24
ATOM     24  C   UNL     1      -6.810  11.258  18.689  0.00  0.00    +0.000 C 
BRANCH  24  26
ATOM     25  C   UNL     1      -7.160   8.899  19.699  0.00  0.00    +0.000 C 
ATOM     26  C   UNL     1      -6.910  10.377  19.964  0.00  0.00    +0.000 C 
ENDBRANCH  24  26
BRANCH  24  27
ATOM     27  C   UNL     1      -7.420  12.662  18.934  0.00  0.00    +0.000 C 
ATOM     28  C   UNL     1      -7.613  13.494  17.671  0.00  0.00    +0.000 C 
ENDBRANCH  24  27
ENDBRANCH   1  24
TORSDOF 4
ENDMDL
MODEL 4
REMARK VINA RESULT:      -6.5      4.400      6.566
REMARK  Name = 
REMARK  8 active torsions:
REMARK  status: ('A' for Active; 'I' for Inactive)
REMARK    1  A    between atoms: C_1  and  C_2
REMARK    2  A    between atoms: C_2  and  C_3
REMARK    3  A    between atoms: C_3  and  C_4
REMARK    4  A    between atoms: C_3  and  C_6
REMARK    5  A    between atoms: C_4  and  C_5
REMARK    6  A    between atoms: C_8  and  C_9
REMARK    7  A    between atoms: C_12  and  C_13
REMARK    8  A    between atoms: C_25  and  C_26
REMARK                            x       y       z     vdW  Elec       q    Type
REMARK                         _______ _______ _______ _____ _____    ______ ____
ROOT
ATOM      1  C   UNL     1      -0.311  10.858  19.569  0.00  0.00    +0.000 A 
ATOM      2  C   UNL     1      -0.347  10.008  20.612  0.00  0.00    +0.000 A 
ATOM      3  C   UNL     1      -0.199  10.596  21.976  0.00  0.00    +0.000 A 
ATOM      4  C   UNL     1      -0.224   9.633  23.137  0.00  0.00    +0.000 C 
ATOM      5  N   UNL     1      -0.065  11.864  22.228  0.00  0.00    +0.000 NA
ATOM      6  C   UNL     1      -0.079  12.717  21.155  0.00  0.00    +0.000 A 
ATOM      7  C   UNL     1      -0.095  14.101  21.072  0.00  0.00    +0.000 A 
ATOM      8  C   UNL     1      -0.072  14.383  19.686  0.00  0.00    +0.000 A 
ATOM      9  C   UNL     1      -0.092  15.689  18.981  0.00  0.00    +0.000 C 
ATOM     10  N   UNL     1      -0.093  13.265  18.945  0.00  0.00    +0.000 NA
ATOM     11  N   UNL     1      -0.156  12.242  19.834  0.00  0.00    +0.000 N 
ENDROOT
BRANCH   7  12
ATOM     12  C   UNL     1      -0.213  15.071  22.177  0.00  0.00    +0.000 A 
ATOM     13  N   UNL     1      -1.337  15.071  23.020  0.00  0.00    +0.000 NA
ATOM     14  C   UNL     1      -1.239  16.007  23.953  0.00  0.00    +0.000 A 
ATOM     15  N   UNL     1      -2.155  16.264  24.939  0.00  0.00    +0.000 N 
ATOM     16  C   UNL     1      -3.403  15.491  25.042  0.00  0.00    +0.000 C 
ATOM     17  C   UNL     1      -4.608  16.366  24.646  0.00  0.00    +0.000 C 
ATOM     18  O   UNL     1      -4.661  17.587  25.401  0.00  0.00    +0.000 OA
ATOM     19  C   UNL     1      -3.457  18.345  25.204  0.00  0.00    +0.000 C 
ATOM     20  C   UNL     1      -2.224  17.546  25.660  0.00  0.00    +0.000 C 
ATOM     21  S   UNL     1       0.264  16.884  23.882  0.00  0.00    +0.000 S 
ATOM     22  C   UNL     1       0.739  16.002  22.528  0.00  0.00    +0.000 A 
ATOM     23 CL   UNL     1       2.294  16.323  21.871  0.00  0.00    +0.000 Cl
ENDBRANCH   7  12
BRANCH   1  24
ATOM     24  C   UNL     1      -0.445  10.372  18.124  0.00  0.00    +0.000 C 
BRANCH  24  26
ATOM     25  C   UNL     1       2.017   9.609  17.871  0.00  0.00    +0.000 C 
ATOM     26  C   UNL     1       0.549   9.205  17.877  0.00  0.00    +0.000 C 
ENDBRANCH  24  26
BRANCH  24  27
ATOM     27  C   UNL     1      -1.896   9.949  17.775  0.00  0.00    +0.000 C 
ATOM     28  C   UNL     1      -2.463  10.615  16.526  0.00  0.00    +0.000 C 
ENDBRANCH  24  27
ENDBRANCH   1  24
TORSDOF 4
ENDMDL
MODEL 5
REMARK VINA RESULT:      -6.4      5.249      7.905
REMARK  Name = 
REMARK  8 active torsions:
REMARK  status: ('A' for Active; 'I' for Inactive)
REMARK    1  A    between atoms: C_1  and  C_2
REMARK    2  A    between atoms: C_2  and  C_3
REMARK    3  A    between atoms: C_3  and  C_4
REMARK    4  A    between atoms: C_3  and  C_6
REMARK    5  A    between atoms: C_4  and  C_5
REMARK    6  A    between atoms: C_8  and  C_9
REMARK    7  A    between atoms: C_12  and  C_13
REMARK    8  A    between atoms: C_25  and  C_26
REMARK                            x       y       z     vdW  Elec       q    Type
REMARK                         _______ _______ _______ _____ _____    ______ ____
ROOT
ATOM      1  C   UNL     1       2.857   6.017  19.564  0.00  0.00    +0.000 A 
ATOM      2  C   UNL     1       3.593   6.124  18.442  0.00  0.00    +0.000 A 
ATOM      3  C   UNL     1       3.415   7.362  17.627  0.00  0.00    +0.000 A 
ATOM      4  C   UNL     1       4.231   7.464  16.361  0.00  0.00    +0.000 C 
ATOM      5  N   UNL     1       2.626   8.348  17.935  0.00  0.00    +0.000 NA
ATOM      6  C   UNL     1       1.923   8.240  19.106  0.00  0.00    +0.000 A 
ATOM      7  C   UNL     1       1.117   9.138  19.789  0.00  0.00    +0.000 A 
ATOM      8  C   UNL     1       0.651   8.425  20.918  0.00  0.00    +0.000 A 
ATOM      9  C   UNL     1      -0.235   8.867  22.024  0.00  0.00    +0.000 C 
ATOM     10  N   UNL     1       1.163   7.186  20.976  0.00  0.00    +0.000 NA
ATOM     11  N   UNL     1       1.988   7.084  19.904  0.00  0.00    +0.000 N 
ENDROOT
BRANCH   7  12
ATOM     12  C   UNL     1       0.874  10.558  19.470  0.00  0.00    +0.000 A 
ATOM     13  N   UNL     1       1.778  11.554  19.878  0.00  0.00    +0.000 NA
ATOM     14  C   UNL     1       1.384  12.754  19.479  0.00  0.00    +0.000 A 
ATOM     15  N   UNL     1       2.044  13.935  19.699  0.00  0.00    +0.000 N 
ATOM     16  C   UNL     1       3.306  13.976  20.454  0.00  0.00    +0.000 C 
ATOM     17  C   UNL     1       3.087  14.636  21.828  0.00  0.00    +0.000 C 
ATOM     18  O   UNL     1       2.480  15.933  21.713  0.00  0.00    +0.000 OA
ATOM     19  C   UNL     1       1.214  15.832  21.044  0.00  0.00    +0.000 C 
ATOM     20  C   UNL     1       1.385  15.250  19.630  0.00  0.00    +0.000 C 
ATOM     21  S   UNL     1      -0.074  12.711  18.528  0.00  0.00    +0.000 S 
ATOM     22  C   UNL     1      -0.179  11.042  18.726  0.00  0.00    +0.000 A 
ATOM     23 CL   UNL     1      -1.472  10.224  17.944  0.00  0.00    +0.000 Cl
ENDBRANCH   7  12
BRANCH   1  24
ATOM     24  C   UNL     1       2.948   4.792  20.478  0.00  0.00    +0.000 C 
BRANCH  24  26
ATOM     25  C   UNL     1       1.413   3.033  21.598  0.00  0.00    +0.000 C 
ATOM     26  C   UNL     1       1.590   4.040  20.470  0.00  0.00    +0.000 C 
ENDBRANCH  24  26
BRANCH  24  27
ATOM     27  C   UNL     1       4.111   3.844  20.082  0.00  0.00    +0.000 C 
ATOM     28  C   UNL     1       3.714   2.730  19.121  0.00  0.00    +0.000 C 
ENDBRANCH  24  27
ENDBRANCH   1  24
TORSDOF 4
ENDMDL
MODEL 6
REMARK VINA RESULT:      -6.4      3.152      5.407
REMARK  Name = 
REMARK  8 active torsions:
REMARK  status: ('A' for Active; 'I' for Inactive)
REMARK    1  A    between atoms: C_1  and  C_2
REMARK    2  A    between atoms: C_2  and  C_3
REMARK    3  A    between atoms: C_3  and  C_4
REMARK    4  A    between atoms: C_3  and  C_6
REMARK    5  A    between atoms: C_4  and  C_5
REMARK    6  A    between atoms: C_8  and  C_9
REMARK    7  A    between atoms: C_12  and  C_13
REMARK    8  A    between atoms: C_25  and  C_26
REMARK                            x       y       z     vdW  Elec       q    Type
REMARK                         _______ _______ _______ _____ _____    ______ ____
ROOT
ATOM      1  C   UNL     1      -0.845  11.287  18.016  0.00  0.00    +0.000 A 
ATOM      2  C   UNL     1      -0.134  10.144  18.046  0.00  0.00    +0.000 A 
ATOM      3  C   UNL     1       1.323  10.257  18.348  0.00  0.00    +0.000 A 
ATOM      4  C   UNL     1       2.115   8.972  18.361  0.00  0.00    +0.000 C 
ATOM      5  N   UNL     1       1.945  11.368  18.609  0.00  0.00    +0.000 NA
ATOM      6  C   UNL     1       1.193  12.513  18.622  0.00  0.00    +0.000 A 
ATOM      7  C   UNL     1       1.497  13.816  18.984  0.00  0.00    +0.000 A 
ATOM      8  C   UNL     1       0.310  14.548  18.746  0.00  0.00    +0.000 A 
ATOM      9  C   UNL     1       0.020  15.988  18.960  0.00  0.00    +0.000 C 
ATOM     10  N   UNL     1      -0.688  13.760  18.315  0.00  0.00    +0.000 NA
ATOM     11  N   UNL     1      -0.174  12.504  18.291  0.00  0.00    +0.000 N 
ENDROOT
BRANCH   7  12
ATOM     12  C   UNL     1       2.748  14.320  19.582  0.00  0.00    +0.000 A 
ATOM     13  N   UNL     1       3.923  14.423  18.817  0.00  0.00    +0.000 NA
ATOM     14  C   UNL     1       4.924  14.910  19.536  0.00  0.00    +0.000 A 
ATOM     15  N   UNL     1       6.197  15.148  19.089  0.00  0.00    +0.000 N 
ATOM     16  C   UNL     1       6.589  14.850  17.703  0.00  0.00    +0.000 C 
ATOM     17  C   UNL     1       7.538  13.638  17.663  0.00  0.00    +0.000 C 
ATOM     18  O   UNL     1       8.675  13.813  18.523  0.00  0.00    +0.000 OA
ATOM     19  C   UNL     1       8.246  14.018  19.878  0.00  0.00    +0.000 C 
ATOM     20  C   UNL     1       7.357  15.269  19.989  0.00  0.00    +0.000 C 
ATOM     21  S   UNL     1       4.456  15.328  21.160  0.00  0.00    +0.000 S 
ATOM     22  C   UNL     1       2.890  14.778  20.873  0.00  0.00    +0.000 A 
ATOM     23 CL   UNL     1       1.742  14.937  22.141  0.00  0.00    +0.000 Cl
ENDBRANCH   7  12
BRANCH   1  24
ATOM     24  C   UNL     1      -2.345  11.299  17.712  0.00  0.00    +0.000 C 
BRANCH  24  26
ATOM     25  C   UNL     1      -2.912  10.136  15.468  0.00  0.00    +0.000 C 
ATOM     26  C   UNL     1      -2.733   9.989  16.973  0.00  0.00    +0.000 C 
ENDBRANCH  24  26
BRANCH  24  27
ATOM     27  C   UNL     1      -3.206  11.493  18.987  0.00  0.00    +0.000 C 
ATOM     28  C   UNL     1      -4.620  11.998  18.722  0.00  0.00    +0.000 C 
ENDBRANCH  24  27
ENDBRANCH   1  24
TORSDOF 4
ENDMDL
MODEL 7
REMARK VINA RESULT:      -6.3      5.634      7.950
REMARK  Name = 
REMARK  8 active torsions:
REMARK  status: ('A' for Active; 'I' for Inactive)
REMARK    1  A    between atoms: C_1  and  C_2
REMARK    2  A    between atoms: C_2  and  C_3
REMARK    3  A    between atoms: C_3  and  C_4
REMARK    4  A    between atoms: C_3  and  C_6
REMARK    5  A    between atoms: C_4  and  C_5
REMARK    6  A    between atoms: C_8  and  C_9
REMARK    7  A    between atoms: C_12  and  C_13
REMARK    8  A    between atoms: C_25  and  C_26
REMARK                            x       y       z     vdW  Elec       q    Type
REMARK                         _______ _______ _______ _____ _____    ______ ____
ROOT
ATOM      1  C   UNL     1      -1.543  11.980  21.085  0.00  0.00    +0.000 A 
ATOM      2  C   UNL     1      -2.140  12.137  19.889  0.00  0.00    +0.000 A 
ATOM      3  C   UNL     1      -1.611  11.328  18.752  0.00  0.00    +0.000 A 
ATOM      4  C   UNL     1      -2.275  11.525  17.411  0.00  0.00    +0.000 C 
ATOM      5  N   UNL     1      -0.639  10.469  18.839  0.00  0.00    +0.000 NA
ATOM      6  C   UNL     1      -0.078  10.288  20.076  0.00  0.00    +0.000 A 
ATOM      7  C   UNL     1       0.860   9.381  20.544  0.00  0.00    +0.000 A 
ATOM      8  C   UNL     1       1.053   9.723  21.903  0.00  0.00    +0.000 A 
ATOM      9  C   UNL     1       1.927   9.098  22.927  0.00  0.00    +0.000 C 
ATOM     10  N   UNL     1       0.260  10.737  22.283  0.00  0.00    +0.000 NA
ATOM     11  N   UNL     1      -0.477  11.051  21.188  0.00  0.00    +0.000 N 
ENDROOT
BRANCH   7  12
ATOM     12  C   UNL     1       1.456   8.242  19.820  0.00  0.00    +0.000 A 
ATOM     13  N   UNL     1       1.276   6.924  20.275  0.00  0.00    +0.000 NA
ATOM     14  C   UNL     1       1.876   6.053  19.476  0.00  0.00    +0.000 A 
ATOM     15  N   UNL     1       1.883   4.692  19.628  0.00  0.00    +0.000 N 
ATOM     16  C   UNL     1       1.203   4.045  20.761  0.00  0.00    +0.000 C 
ATOM     17  C   UNL     1       2.236   3.471  21.749  0.00  0.00    +0.000 C 
ATOM     18  O   UNL     1       3.171   2.592  21.103  0.00  0.00    +0.000 OA
ATOM     19  C   UNL     1       3.869   3.289  20.060  0.00  0.00    +0.000 C 
ATOM     20  C   UNL     1       2.887   3.817  18.999  0.00  0.00    +0.000 C 
ATOM     21  S   UNL     1       2.629   6.801  18.096  0.00  0.00    +0.000 S 
ATOM     22  C   UNL     1       2.169   8.326  18.645  0.00  0.00    +0.000 A 
ATOM     23 CL   UNL     1       2.568   9.681  17.667  0.00  0.00    +0.000 Cl
ENDBRANCH   7  12
BRANCH   1  24
ATOM     24  C   UNL     1      -1.993  12.759  22.324  0.00  0.00    +0.000 C 
BRANCH  24  26
ATOM     25  C   UNL     1      -3.859  12.353  24.073  0.00  0.00    +0.000 C 
ATOM     26  C   UNL     1      -2.655  11.784  23.335  0.00  0.00    +0.000 C 
ENDBRANCH  24  26
BRANCH  24  27
ATOM     27  C   UNL     1      -0.828  13.540  22.986  0.00  0.00    +0.000 C 
ATOM     28  C   UNL     1      -0.245  14.652  22.122  0.00  0.00    +0.000 C 
ENDBRANCH  24  27
ENDBRANCH   1  24
TORSDOF 4
ENDMDL
MODEL 8
REMARK VINA RESULT:      -6.3      4.677      6.575
REMARK  Name = 
REMARK  8 active torsions:
REMARK  status: ('A' for Active; 'I' for Inactive)
REMARK    1  A    between atoms: C_1  and  C_2
REMARK    2  A    between atoms: C_2  and  C_3
REMARK    3  A    between atoms: C_3  and  C_4
REMARK    4  A    between atoms: C_3  and  C_6
REMARK    5  A    between atoms: C_4  and  C_5
REMARK    6  A    between atoms: C_8  and  C_9
REMARK    7  A    between atoms: C_12  and  C_13
REMARK    8  A    between atoms: C_25  and  C_26
REMARK                            x       y       z     vdW  Elec       q    Type
REMARK                         _______ _______ _______ _____ _____    ______ ____
ROOT
ATOM      1  C   UNL     1      -0.464  10.957  19.986  0.00  0.00    +0.000 A 
ATOM      2  C   UNL     1      -0.291   9.952  20.865  0.00  0.00    +0.000 A 
ATOM      3  C   UNL     1      -0.230  10.315  22.311  0.00  0.00    +0.000 A 
ATOM      4  C   UNL     1      -0.019   9.183  23.287  0.00  0.00    +0.000 C 
ATOM      5  N   UNL     1      -0.356  11.520  22.781  0.00  0.00    +0.000 NA
ATOM      6  C   UNL     1      -0.579  12.522  21.874  0.00  0.00    +0.000 A 
ATOM      7  C   UNL     1      -0.887  13.865  22.032  0.00  0.00    +0.000 A 
ATOM      8  C   UNL     1      -0.963  14.380  20.717  0.00  0.00    +0.000 A 
ATOM      9  C   UNL     1      -1.276  15.754  20.250  0.00  0.00    +0.000 C 
ATOM     10  N   UNL     1      -0.772  13.426  19.792  0.00  0.00    +0.000 NA
ATOM     11  N   UNL     1      -0.594  12.276  20.489  0.00  0.00    +0.000 N 
ENDROOT
BRANCH   7  12
ATOM     12  C   UNL     1      -1.172  14.584  23.288  0.00  0.00    +0.000 A 
ATOM     13  N   UNL     1      -0.318  15.603  23.745  0.00  0.00    +0.000 NA
ATOM     14  C   UNL     1      -0.760  16.130  24.878  0.00  0.00    +0.000 A 
ATOM     15  N   UNL     1      -0.171  17.149  25.578  0.00  0.00    +0.000 N 
ATOM     16  C   UNL     1       1.081  17.770  25.117  0.00  0.00    +0.000 C 
ATOM     17  C   UNL     1       2.246  17.379  26.046  0.00  0.00    +0.000 C 
ATOM     18  O   UNL     1       1.965  17.680  27.422  0.00  0.00    +0.000 OA
ATOM     19  C   UNL     1       0.782  16.988  27.851  0.00  0.00    +0.000 C 
ATOM     20  C   UNL     1      -0.434  17.404  27.005  0.00  0.00    +0.000 C 
ATOM     21  S   UNL     1      -2.275  15.449  25.399  0.00  0.00    +0.000 S 
ATOM     22  C   UNL     1      -2.277  14.393  24.087  0.00  0.00    +0.000 A 
ATOM     23 CL   UNL     1      -3.627  13.346  23.905  0.00  0.00    +0.000 Cl
ENDBRANCH   7  12
BRANCH   1  24
ATOM     24  C   UNL     1      -0.536  10.709  18.477  0.00  0.00    +0.000 C 
BRANCH  24  26
ATOM     25  C   UNL     1       1.954  10.195  17.983  0.00  0.00    +0.000 C 
ATOM     26  C   UNL     1       0.532   9.657  18.075  0.00  0.00    +0.000 C 
ENDBRANCH  24  26
BRANCH  24  27
ATOM     27  C   UNL     1      -1.951  10.269  18.018  0.00  0.00    +0.000 C 
ATOM     28  C   UNL     1      -2.822  11.403  17.490  0.00  0.00    +0.000 C 
ENDBRANCH  24  27
ENDBRANCH   1  24
TORSDOF 4
ENDMDL
MODEL 9
REMARK VINA RESULT:      -6.3      1.210      2.726
REMARK  Name = 
REMARK  8 active torsions:
REMARK  status: ('A' for Active; 'I' for Inactive)
REMARK    1  A    between atoms: C_1  and  C_2
REMARK    2  A    between atoms: C_2  and  C_3
REMARK    3  A    between atoms: C_3  and  C_4
REMARK    4  A    between atoms: C_3  and  C_6
REMARK    5  A    between atoms: C_4  and  C_5
REMARK    6  A    between atoms: C_8  and  C_9
REMARK    7  A    between atoms: C_12  and  C_13
REMARK    8  A    between atoms: C_25  and  C_26
REMARK                            x       y       z     vdW  Elec       q    Type
REMARK                         _______ _______ _______ _____ _____    ______ ____
ROOT
ATOM      1  C   UNL     1      -5.281  11.563  19.374  0.00  0.00    +0.000 A 
ATOM      2  C   UNL     1      -5.065  11.012  18.165  0.00  0.00    +0.000 A 
ATOM      3  C   UNL     1      -3.734  11.254  17.535  0.00  0.00    +0.000 A 
ATOM      4  C   UNL     1      -3.508  10.646  16.172  0.00  0.00    +0.000 C 
ATOM      5  N   UNL     1      -2.766  11.931  18.077  0.00  0.00    +0.000 NA
ATOM      6  C   UNL     1      -2.989  12.442  19.328  0.00  0.00    +0.000 A 
ATOM      7  C   UNL     1      -2.153  13.082  20.231  0.00  0.00    +0.000 A 
ATOM      8  C   UNL     1      -2.980  13.398  21.334  0.00  0.00    +0.000 A 
ATOM      9  C   UNL     1      -2.643  14.072  22.613  0.00  0.00    +0.000 C 
ATOM     10  N   UNL     1      -4.233  12.947  21.168  0.00  0.00    +0.000 NA
ATOM     11  N   UNL     1      -4.234  12.311  19.970  0.00  0.00    +0.000 N 
ENDROOT
BRANCH   7  12
ATOM     12  C   UNL     1      -0.698  13.299  20.117  0.00  0.00    +0.000 A 
ATOM     13  N   UNL     1      -0.178  14.579  19.858  0.00  0.00    +0.000 NA
ATOM     14  C   UNL     1       1.146  14.560  19.810  0.00  0.00    +0.000 A 
ATOM     15  N   UNL     1       1.961  15.639  19.591  0.00  0.00    +0.000 N 
ATOM     16  C   UNL     1       1.406  16.981  19.359  0.00  0.00    +0.000 C 
ATOM     17  C   UNL     1       1.609  17.399  17.890  0.00  0.00    +0.000 C 
ATOM     18  O   UNL     1       2.984  17.302  17.486  0.00  0.00    +0.000 OA
ATOM     19  C   UNL     1       3.458  15.957  17.652  0.00  0.00    +0.000 C 
ATOM     20  C   UNL     1       3.352  15.515  19.123  0.00  0.00    +0.000 C 
ATOM     21  S   UNL     1       1.817  12.989  20.148  0.00  0.00    +0.000 S 
ATOM     22  C   UNL     1       0.271  12.338  20.300  0.00  0.00    +0.000 A 
ATOM     23 CL   UNL     1       0.141  10.676  20.717  0.00  0.00    +0.000 Cl
ENDBRANCH   7  12
BRANCH   1  24
ATOM     24  C   UNL     1      -6.608  11.391  20.117  0.00  0.00    +0.000 C 
BRANCH  24  26
ATOM     25  C   UNL     1      -7.844  13.146  18.668  0.00  0.00    +0.000 C 
ATOM     26  C   UNL     1      -7.407  12.722  20.064  0.00  0.00    +0.000 C 
ENDBRANCH  24  26
BRANCH  24  27
ATOM     27  C   UNL     1      -7.450  10.214  19.558  0.00  0.00    +0.000 C 
ATOM     28  C   UNL     1      -7.400   8.947  20.404  0.00  0.00    +0.000 C 
ENDBRANCH  24  27
ENDBRANCH   1  24
TORSDOF 4
ENDMDL
