MODEL 1
REMARK VINA RESULT:      -7.8      0.000      0.000
REMARK  Name = 
REMARK  9 active torsions:
REMARK  status: ('A' for Active; 'I' for Inactive)
REMARK    1  A    between atoms: C_1  and  C_2
REMARK    2  A    between atoms: C_5  and  C_6
REMARK    3  A    between atoms: C_7  and  C_8
REMARK    4  A    between atoms: C_8  and  C_9
REMARK    5  A    between atoms: C_9  and  C_10
REMARK    6  A    between atoms: C_9  and  N_11
REMARK    7  A    between atoms: C_16  and  C_17
REMARK    8  A    between atoms: C_17  and  C_18
REMARK    9  A    between atoms: C_17  and  C_19
REMARK                            x       y       z     vdW  Elec       q    Type
REMARK                         _______ _______ _______ _____ _____    ______ ____
ROOT
ATOM      1  N   UNL     1       4.451   3.341  17.692  0.00  0.00    +0.000 N 
ATOM      2  C   UNL     1       5.353   4.077  16.937  0.00  0.00    +0.000 A 
ATOM      3  C   UNL     1       5.480   3.963  15.568  0.00  0.00    +0.000 A 
ATOM      4  C   UNL     1       6.394   4.792  14.960  0.00  0.00    +0.000 A 
ATOM      5  N   UNL     1       7.160   5.668  15.628  0.00  0.00    +0.000 NA
ATOM      6  C   UNL     1       6.995   5.694  16.962  0.00  0.00    +0.000 A 
ATOM      7  N   UNL     1       6.115   4.925  17.640  0.00  0.00    +0.000 NA
ATOM      8  H   UNL     1       4.487   3.711  18.642  0.00  0.00    +0.000 HD
ENDROOT
BRANCH   6   9
ATOM      9  C   UNL     1       7.864   6.649  17.750  0.00  0.00    +0.000 C 
ATOM     10  C   UNL     1       7.376   8.089  17.597  0.00  0.00    +0.000 C 
ATOM     11  C   UNL     1       7.923   6.236  19.220  0.00  0.00    +0.000 C 
ENDBRANCH   6   9
BRANCH   1  12
ATOM     12  C   UNL     1       3.116   3.058  17.162  0.00  0.00    +0.000 C 
ATOM     13  C   UNL     1       2.563   1.835  17.918  0.00  0.00    +0.000 C 
BRANCH  12  14
ATOM     14  C   UNL     1       2.139   4.225  17.404  0.00  0.00    +0.000 C 
BRANCH  14  21
ATOM     15  C   UNL     1       3.224   7.174  17.806  0.00  0.00    +0.000 C 
ATOM     16  C   UNL     1       2.632   6.302  18.849  0.00  0.00    +0.000 A 
ATOM     17  N   UNL     1       2.514   6.752  20.098  0.00  0.00    +0.000 NA
ATOM     18  O   UNL     1       1.916   5.732  20.803  0.00  0.00    +0.000 OA
ATOM     19  C   UNL     1       1.683   4.670  19.983  0.00  0.00    +0.000 A 
ATOM     20  C   UNL     1       1.027   3.541  20.667  0.00  0.00    +0.000 C 
ATOM     21  C   UNL     1       2.124   4.966  18.706  0.00  0.00    +0.000 A 
ENDBRANCH  14  21
ENDBRANCH  12  14
ENDBRANCH   1  12
TORSDOF 4
ENDMDL
MODEL 2
REMARK VINA RESULT:      -7.7      0.491      1.828
REMARK  Name = 
REMARK  9 active torsions:
REMARK  status: ('A' for Active; 'I' for Inactive)
REMARK    1  A    between atoms: C_1  and  C_2
REMARK    2  A    between atoms: C_5  and  C_6
REMARK    3  A    between atoms: C_7  and  C_8
REMARK    4  A    between atoms: C_8  and  C_9
REMARK    5  A    between atoms: C_9  and  C_10
REMARK    6  A    between atoms: C_9  and  N_11
REMARK    7  A    between atoms: C_16  and  C_17
REMARK    8  A    between atoms: C_17  and  C_18
REMARK    9  A    between atoms: C_17  and  C_19
REMARK                            x       y       z     vdW  Elec       q    Type
REMARK                         _______ _______ _______ _____ _____    ______ ____
ROOT
ATOM      1  N   UNL     1       4.452   3.447  17.800  0.00  0.00    +0.000 N 
ATOM      2  C   UNL     1       5.397   4.091  17.015  0.00  0.00    +0.000 A 
ATOM      3  C   UNL     1       5.627   3.792  15.688  0.00  0.00    +0.000 A 
ATOM      4  C   UNL     1       6.572   4.549  15.037  0.00  0.00    +0.000 A 
ATOM      5  N   UNL     1       7.275   5.527  15.629  0.00  0.00    +0.000 NA
ATOM      6  C   UNL     1       7.012   5.734  16.931  0.00  0.00    +0.000 A 
ATOM      7  N   UNL     1       6.094   5.047  17.645  0.00  0.00    +0.000 NA
ATOM      8  H   UNL     1       4.412   3.946  18.689  0.00  0.00    +0.000 HD
ENDROOT
BRANCH   6   9
ATOM      9  C   UNL     1       7.809   6.809  17.637  0.00  0.00    +0.000 C 
ATOM     10  C   UNL     1       7.134   8.173  17.496  0.00  0.00    +0.000 C 
ATOM     11  C   UNL     1       8.022   6.444  19.105  0.00  0.00    +0.000 C 
ENDBRANCH   6   9
BRANCH   1  12
ATOM     12  C   UNL     1       3.163   3.062  17.221  0.00  0.00    +0.000 C 
ATOM     13  C   UNL     1       2.683   1.795  17.952  0.00  0.00    +0.000 C 
BRANCH  12  14
ATOM     14  C   UNL     1       2.089   4.147  17.431  0.00  0.00    +0.000 C 
BRANCH  14  21
ATOM     15  C   UNL     1       1.085   3.703  20.402  0.00  0.00    +0.000 C 
ATOM     16  C   UNL     1       1.738   4.920  19.865  0.00  0.00    +0.000 A 
ATOM     17  N   UNL     1       1.955   5.963  20.666  0.00  0.00    +0.000 NA
ATOM     18  O   UNL     1       2.588   6.904  19.886  0.00  0.00    +0.000 OA
ATOM     19  C   UNL     1       2.742   6.433  18.617  0.00  0.00    +0.000 A 
ATOM     20  C   UNL     1       3.429   7.383  17.724  0.00  0.00    +0.000 C 
ATOM     21  C   UNL     1       2.213   5.158  18.530  0.00  0.00    +0.000 A 
ENDBRANCH  14  21
ENDBRANCH  12  14
ENDBRANCH   1  12
TORSDOF 4
ENDMDL
MODEL 3
REMARK VINA RESULT:      -7.1      1.906      3.619
REMARK  Name = 
REMARK  9 active torsions:
REMARK  status: ('A' for Active; 'I' for Inactive)
REMARK    1  A    between atoms: C_1  and  C_2
REMARK    2  A    between atoms: C_5  and  C_6
REMARK    3  A    between atoms: C_7  and  C_8
REMARK    4  A    between atoms: C_8  and  C_9
REMARK    5  A    between atoms: C_9  and  C_10
REMARK    6  A    between atoms: C_9  and  N_11
REMARK    7  A    between atoms: C_16  and  C_17
REMARK    8  A    between atoms: C_17  and  C_18
REMARK    9  A    between atoms: C_17  and  C_19
REMARK                            x       y       z     vdW  Elec       q    Type
REMARK                         _______ _______ _______ _____ _____    ______ ____
ROOT
ATOM      1  N   UNL     1       4.420   6.958  16.754  0.00  0.00    +0.000 N 
ATOM      2  C   UNL     1       5.538   6.139  16.667  0.00  0.00    +0.000 A 
ATOM      3  C   UNL     1       6.334   5.812  17.745  0.00  0.00    +0.000 A 
ATOM      4  C   UNL     1       7.383   4.956  17.502  0.00  0.00    +0.000 A 
ATOM      5  N   UNL     1       7.666   4.456  16.289  0.00  0.00    +0.000 NA
ATOM      6  C   UNL     1       6.859   4.849  15.288  0.00  0.00    +0.000 A 
ATOM      7  N   UNL     1       5.802   5.676  15.439  0.00  0.00    +0.000 NA
ATOM      8  H   UNL     1       3.959   6.929  15.844  0.00  0.00    +0.000 HD
ENDROOT
BRANCH   6   9
ATOM      9  C   UNL     1       7.168   4.328  13.902  0.00  0.00    +0.000 C 
ATOM     10  C   UNL     1       5.909   3.786  13.226  0.00  0.00    +0.000 C 
ATOM     11  C   UNL     1       7.831   5.413  13.055  0.00  0.00    +0.000 C 
ENDBRANCH   6   9
BRANCH   1  12
ATOM     12  C   UNL     1       3.544   6.875  17.923  0.00  0.00    +0.000 C 
ATOM     13  C   UNL     1       2.661   8.137  17.935  0.00  0.00    +0.000 C 
BRANCH  12  14
ATOM     14  C   UNL     1       2.601   5.657  17.852  0.00  0.00    +0.000 C 
BRANCH  14  21
ATOM     15  C   UNL     1       1.603   6.004  20.838  0.00  0.00    +0.000 C 
ATOM     16  C   UNL     1       2.189   4.780  20.240  0.00  0.00    +0.000 A 
ATOM     17  N   UNL     1       2.331   3.683  20.984  0.00  0.00    +0.000 NA
ATOM     18  O   UNL     1       2.870   2.734  20.146  0.00  0.00    +0.000 OA
ATOM     19  C   UNL     1       3.061   3.261  18.904  0.00  0.00    +0.000 A 
ATOM     20  C   UNL     1       3.623   2.295  17.943  0.00  0.00    +0.000 C 
ATOM     21  C   UNL     1       2.646   4.580  18.893  0.00  0.00    +0.000 A 
ENDBRANCH  14  21
ENDBRANCH  12  14
ENDBRANCH   1  12
TORSDOF 4
ENDMDL
MODEL 4
REMARK VINA RESULT:      -7.0      1.886      3.476
REMARK  Name = 
REMARK  9 active torsions:
REMARK  status: ('A' for Active; 'I' for Inactive)
REMARK    1  A    between atoms: C_1  and  C_2
REMARK    2  A    between atoms: C_5  and  C_6
REMARK    3  A    between atoms: C_7  and  C_8
REMARK    4  A    between atoms: C_8  and  C_9
REMARK    5  A    between atoms: C_9  and  C_10
REMARK    6  A    between atoms: C_9  and  N_11
REMARK    7  A    between atoms: C_16  and  C_17
REMARK    8  A    between atoms: C_17  and  C_18
REMARK    9  A    between atoms: C_17  and  C_19
REMARK                            x       y       z     vdW  Elec       q    Type
REMARK                         _______ _______ _______ _____ _____    ______ ____
ROOT
ATOM      1  N   UNL     1       4.340   6.014  18.180  0.00  0.00    +0.000 N 
ATOM      2  C   UNL     1       5.550   5.505  17.731  0.00  0.00    +0.000 A 
ATOM      3  C   UNL     1       6.666   5.362  18.528  0.00  0.00    +0.000 A 
ATOM      4  C   UNL     1       7.778   4.804  17.943  0.00  0.00    +0.000 A 
ATOM      5  N   UNL     1       7.826   4.421  16.658  0.00  0.00    +0.000 NA
ATOM      6  C   UNL     1       6.706   4.622  15.942  0.00  0.00    +0.000 A 
ATOM      7  N   UNL     1       5.567   5.153  16.438  0.00  0.00    +0.000 NA
ATOM      8  H   UNL     1       3.666   5.892  17.424  0.00  0.00    +0.000 HD
ENDROOT
BRANCH   6   9
ATOM      9  C   UNL     1       6.735   4.230  14.482  0.00  0.00    +0.000 C 
ATOM     10  C   UNL     1       5.319   4.096  13.921  0.00  0.00    +0.000 C 
ATOM     11  C   UNL     1       7.561   5.228  13.672  0.00  0.00    +0.000 C 
ENDBRANCH   6   9
BRANCH   1  12
ATOM     12  C   UNL     1       3.864   5.684  19.524  0.00  0.00    +0.000 C 
ATOM     13  C   UNL     1       2.443   6.261  19.671  0.00  0.00    +0.000 C 
BRANCH  12  14
ATOM     14  C   UNL     1       3.765   4.162  19.745  0.00  0.00    +0.000 C 
BRANCH  14  21
ATOM     15  C   UNL     1       2.523   3.411  16.930  0.00  0.00    +0.000 C 
ATOM     16  C   UNL     1       1.936   3.117  18.259  0.00  0.00    +0.000 A 
ATOM     17  N   UNL     1       0.774   2.471  18.341  0.00  0.00    +0.000 NA
ATOM     18  O   UNL     1       0.519   2.334  19.687  0.00  0.00    +0.000 OA
ATOM     19  C   UNL     1       1.522   2.905  20.413  0.00  0.00    +0.000 A 
ATOM     20  C   UNL     1       1.327   2.784  21.868  0.00  0.00    +0.000 C 
ATOM     21  C   UNL     1       2.469   3.434  19.555  0.00  0.00    +0.000 A 
ENDBRANCH  14  21
ENDBRANCH  12  14
ENDBRANCH   1  12
TORSDOF 4
ENDMDL
MODEL 5
REMARK VINA RESULT:      -6.9      1.873      3.611
REMARK  Name = 
REMARK  9 active torsions:
REMARK  status: ('A' for Active; 'I' for Inactive)
REMARK    1  A    between atoms: C_1  and  C_2
REMARK    2  A    between atoms: C_5  and  C_6
REMARK    3  A    between atoms: C_7  and  C_8
REMARK    4  A    between atoms: C_8  and  C_9
REMARK    5  A    between atoms: C_9  and  C_10
REMARK    6  A    between atoms: C_9  and  N_11
REMARK    7  A    between atoms: C_16  and  C_17
REMARK    8  A    between atoms: C_17  and  C_18
REMARK    9  A    between atoms: C_17  and  C_19
REMARK                            x       y       z     vdW  Elec       q    Type
REMARK                         _______ _______ _______ _____ _____    ______ ____
ROOT
ATOM      1  N   UNL     1       4.482   6.977  16.700  0.00  0.00    +0.000 N 
ATOM      2  C   UNL     1       5.595   6.154  16.607  0.00  0.00    +0.000 A 
ATOM      3  C   UNL     1       6.397   5.823  17.680  0.00  0.00    +0.000 A 
ATOM      4  C   UNL     1       7.441   4.962  17.431  0.00  0.00    +0.000 A 
ATOM      5  N   UNL     1       7.715   4.462  16.216  0.00  0.00    +0.000 NA
ATOM      6  C   UNL     1       6.904   4.858  15.220  0.00  0.00    +0.000 A 
ATOM      7  N   UNL     1       5.851   5.690  15.377  0.00  0.00    +0.000 NA
ATOM      8  H   UNL     1       4.016   6.951  15.793  0.00  0.00    +0.000 HD
ENDROOT
BRANCH   6   9
ATOM      9  C   UNL     1       7.203   4.337  13.832  0.00  0.00    +0.000 C 
ATOM     10  C   UNL     1       5.945   3.768  13.177  0.00  0.00    +0.000 C 
ATOM     11  C   UNL     1       7.833   5.430  12.970  0.00  0.00    +0.000 C 
ENDBRANCH   6   9
BRANCH   1  12
ATOM     12  C   UNL     1       3.612   6.897  17.874  0.00  0.00    +0.000 C 
ATOM     13  C   UNL     1       2.628   8.080  17.807  0.00  0.00    +0.000 C 
BRANCH  12  14
ATOM     14  C   UNL     1       2.773   5.604  17.884  0.00  0.00    +0.000 C 
BRANCH  14  21
ATOM     15  C   UNL     1       3.289   2.527  18.429  0.00  0.00    +0.000 C 
ATOM     16  C   UNL     1       2.690   3.501  19.372  0.00  0.00    +0.000 A 
ATOM     17  N   UNL     1       2.317   3.101  20.587  0.00  0.00    +0.000 NA
ATOM     18  O   UNL     1       1.832   4.226  21.215  0.00  0.00    +0.000 OA
ATOM     19  C   UNL     1       1.905   5.298  20.376  0.00  0.00    +0.000 A 
ATOM     20  C   UNL     1       1.416   6.547  20.986  0.00  0.00    +0.000 C 
ATOM     21  C   UNL     1       2.446   4.902  19.167  0.00  0.00    +0.000 A 
ENDBRANCH  14  21
ENDBRANCH  12  14
ENDBRANCH   1  12
TORSDOF 4
ENDMDL
MODEL 6
REMARK VINA RESULT:      -6.9      1.856      3.622
REMARK  Name = 
REMARK  9 active torsions:
REMARK  status: ('A' for Active; 'I' for Inactive)
REMARK    1  A    between atoms: C_1  and  C_2
REMARK    2  A    between atoms: C_5  and  C_6
REMARK    3  A    between atoms: C_7  and  C_8
REMARK    4  A    between atoms: C_8  and  C_9
REMARK    5  A    between atoms: C_9  and  C_10
REMARK    6  A    between atoms: C_9  and  N_11
REMARK    7  A    between atoms: C_16  and  C_17
REMARK    8  A    between atoms: C_17  and  C_18
REMARK    9  A    between atoms: C_17  and  C_19
REMARK                            x       y       z     vdW  Elec       q    Type
REMARK                         _______ _______ _______ _____ _____    ______ ____
ROOT
ATOM      1  N   UNL     1       4.346   6.854  16.922  0.00  0.00    +0.000 N 
ATOM      2  C   UNL     1       5.480   6.063  16.801  0.00  0.00    +0.000 A 
ATOM      3  C   UNL     1       6.281   5.701  17.864  0.00  0.00    +0.000 A 
ATOM      4  C   UNL     1       7.348   4.880  17.584  0.00  0.00    +0.000 A 
ATOM      5  N   UNL     1       7.646   4.445  16.350  0.00  0.00    +0.000 NA
ATOM      6  C   UNL     1       6.834   4.870  15.366  0.00  0.00    +0.000 A 
ATOM      7  N   UNL     1       5.758   5.666  15.552  0.00  0.00    +0.000 NA
ATOM      8  H   UNL     1       3.888   6.859  16.010  0.00  0.00    +0.000 HD
ENDROOT
BRANCH   6   9
ATOM      9  C   UNL     1       7.158   4.424  13.958  0.00  0.00    +0.000 C 
ATOM     10  C   UNL     1       5.917   3.869  13.258  0.00  0.00    +0.000 C 
ATOM     11  C   UNL     1       7.781   5.568  13.160  0.00  0.00    +0.000 C 
ENDBRANCH   6   9
BRANCH   1  12
ATOM     12  C   UNL     1       3.467   6.695  18.082  0.00  0.00    +0.000 C 
ATOM     13  C   UNL     1       2.571   7.945  18.163  0.00  0.00    +0.000 C 
BRANCH  12  14
ATOM     14  C   UNL     1       2.538   5.473  17.940  0.00  0.00    +0.000 C 
BRANCH  14  21
ATOM     15  C   UNL     1       3.981   2.817  16.996  0.00  0.00    +0.000 C 
ATOM     16  C   UNL     1       3.377   3.067  18.327  0.00  0.00    +0.000 A 
ATOM     17  N   UNL     1       3.419   2.118  19.261  0.00  0.00    +0.000 NA
ATOM     18  O   UNL     1       2.807   2.661  20.368  0.00  0.00    +0.000 OA
ATOM     19  C   UNL     1       2.390   3.929  20.097  0.00  0.00    +0.000 A 
ATOM     20  C   UNL     1       1.736   4.584  21.244  0.00  0.00    +0.000 C 
ATOM     21  C   UNL     1       2.722   4.256  18.795  0.00  0.00    +0.000 A 
ENDBRANCH  14  21
ENDBRANCH  12  14
ENDBRANCH   1  12
TORSDOF 4
ENDMDL
MODEL 7
REMARK VINA RESULT:      -6.8      2.294      5.667
REMARK  Name = 
REMARK  9 active torsions:
REMARK  status: ('A' for Active; 'I' for Inactive)
REMARK    1  A    between atoms: C_1  and  C_2
REMARK    2  A    between atoms: C_5  and  C_6
REMARK    3  A    between atoms: C_7  and  C_8
REMARK    4  A    between atoms: C_8  and  C_9
REMARK    5  A    between atoms: C_9  and  C_10
REMARK    6  A    between atoms: C_9  and  N_11
REMARK    7  A    between atoms: C_16  and  C_17
REMARK    8  A    between atoms: C_17  and  C_18
REMARK    9  A    between atoms: C_17  and  C_19
REMARK                            x       y       z     vdW  Elec       q    Type
REMARK                         _______ _______ _______ _____ _____    ______ ____
ROOT
ATOM      1  N   UNL     1       3.052   4.671  17.474  0.00  0.00    +0.000 N 
ATOM      2  C   UNL     1       2.589   5.372  18.578  0.00  0.00    +0.000 A 
ATOM      3  C   UNL     1       2.309   4.789  19.796  0.00  0.00    +0.000 A 
ATOM      4  C   UNL     1       1.895   5.628  20.804  0.00  0.00    +0.000 A 
ATOM      5  N   UNL     1       1.737   6.952  20.649  0.00  0.00    +0.000 NA
ATOM      6  C   UNL     1       2.002   7.435  19.423  0.00  0.00    +0.000 A 
ATOM      7  N   UNL     1       2.423   6.687  18.380  0.00  0.00    +0.000 NA
ATOM      8  H   UNL     1       3.288   5.360  16.760  0.00  0.00    +0.000 HD
ENDROOT
BRANCH   6   9
ATOM      9  C   UNL     1       1.805   8.919  19.204  0.00  0.00    +0.000 C 
ATOM     10  C   UNL     1       1.485   9.220  17.740  0.00  0.00    +0.000 C 
ATOM     11  C   UNL     1       0.720   9.461  20.132  0.00  0.00    +0.000 C 
ENDBRANCH   6   9
BRANCH   1  12
ATOM     12  C   UNL     1       4.010   3.579  17.654  0.00  0.00    +0.000 C 
ATOM     13  C   UNL     1       3.208   2.271  17.791  0.00  0.00    +0.000 C 
BRANCH  12  14
ATOM     14  C   UNL     1       4.940   3.419  16.435  0.00  0.00    +0.000 C 
BRANCH  14  21
ATOM     15  C   UNL     1       6.225   3.875  13.576  0.00  0.00    +0.000 C 
ATOM     16  C   UNL     1       6.564   4.604  14.822  0.00  0.00    +0.000 A 
ATOM     17  N   UNL     1       7.492   5.560  14.796  0.00  0.00    +0.000 NA
ATOM     18  O   UNL     1       7.554   6.050  16.081  0.00  0.00    +0.000 OA
ATOM     19  C   UNL     1       6.673   5.384  16.879  0.00  0.00    +0.000 A 
ATOM     20  C   UNL     1       6.671   5.866  18.272  0.00  0.00    +0.000 C 
ATOM     21  C   UNL     1       6.002   4.433  16.132  0.00  0.00    +0.000 A 
ENDBRANCH  14  21
ENDBRANCH  12  14
ENDBRANCH   1  12
TORSDOF 4
ENDMDL
MODEL 8
REMARK VINA RESULT:      -6.6      2.004      3.956
REMARK  Name = 
REMARK  9 active torsions:
REMARK  status: ('A' for Active; 'I' for Inactive)
REMARK    1  A    between atoms: C_1  and  C_2
REMARK    2  A    between atoms: C_5  and  C_6
REMARK    3  A    between atoms: C_7  and  C_8
REMARK    4  A    between atoms: C_8  and  C_9
REMARK    5  A    between atoms: C_9  and  C_10
REMARK    6  A    between atoms: C_9  and  N_11
REMARK    7  A    between atoms: C_16  and  C_17
REMARK    8  A    between atoms: C_17  and  C_18
REMARK    9  A    between atoms: C_17  and  C_19
REMARK                            x       y       z     vdW  Elec       q    Type
REMARK                         _______ _______ _______ _____ _____    ______ ____
ROOT
ATOM      1  N   UNL     1       3.612   6.505  17.078  0.00  0.00    +0.000 N 
ATOM      2  C   UNL     1       4.958   6.369  16.773  0.00  0.00    +0.000 A 
ATOM      3  C   UNL     1       5.969   7.017  17.452  0.00  0.00    +0.000 A 
ATOM      4  C   UNL     1       7.257   6.746  17.053  0.00  0.00    +0.000 A 
ATOM      5  N   UNL     1       7.561   5.914  16.044  0.00  0.00    +0.000 NA
ATOM      6  C   UNL     1       6.516   5.348  15.415  0.00  0.00    +0.000 A 
ATOM      7  N   UNL     1       5.223   5.549  15.748  0.00  0.00    +0.000 NA
ATOM      8  H   UNL     1       3.106   5.829  16.506  0.00  0.00    +0.000 HD
ENDROOT
BRANCH   6   9
ATOM      9  C   UNL     1       6.822   4.429  14.253  0.00  0.00    +0.000 C 
ATOM     10  C   UNL     1       5.536   3.885  13.631  0.00  0.00    +0.000 C 
ATOM     11  C   UNL     1       7.683   5.143  13.213  0.00  0.00    +0.000 C 
ENDBRANCH   6   9
BRANCH   1  12
ATOM     12  C   UNL     1       3.188   6.609  18.476  0.00  0.00    +0.000 C 
ATOM     13  C   UNL     1       2.316   7.872  18.606  0.00  0.00    +0.000 C 
BRANCH  12  14
ATOM     14  C   UNL     1       2.322   5.409  18.907  0.00  0.00    +0.000 C 
BRANCH  14  21
ATOM     15  C   UNL     1       0.620   2.742  18.749  0.00  0.00    +0.000 C 
ATOM     16  C   UNL     1       2.090   2.842  18.919  0.00  0.00    +0.000 A 
ATOM     17  N   UNL     1       2.821   1.732  19.016  0.00  0.00    +0.000 NA
ATOM     18  O   UNL     1       4.125   2.157  19.138  0.00  0.00    +0.000 OA
ATOM     19  C   UNL     1       4.176   3.518  19.123  0.00  0.00    +0.000 A 
ATOM     20  C   UNL     1       5.547   4.049  19.234  0.00  0.00    +0.000 C 
ATOM     21  C   UNL     1       2.898   4.028  18.988  0.00  0.00    +0.000 A 
ENDBRANCH  14  21
ENDBRANCH  12  14
ENDBRANCH   1  12
TORSDOF 4
ENDMDL
MODEL 9
REMARK VINA RESULT:      -6.6      2.592      4.873
REMARK  Name = 
REMARK  9 active torsions:
REMARK  status: ('A' for Active; 'I' for Inactive)
REMARK    1  A    between atoms: C_1  and  C_2
REMARK    2  A    between atoms: C_5  and  C_6
REMARK    3  A    between atoms: C_7  and  C_8
REMARK    4  A    between atoms: C_8  and  C_9
REMARK    5  A    between atoms: C_9  and  C_10
REMARK    6  A    between atoms: C_9  and  N_11
REMARK    7  A    between atoms: C_16  and  C_17
REMARK    8  A    between atoms: C_17  and  C_18
REMARK    9  A    between atoms: C_17  and  C_19
REMARK                            x       y       z     vdW  Elec       q    Type
REMARK                         _______ _______ _______ _____ _____    ______ ____
ROOT
ATOM      1  N   UNL     1       5.382   4.649  15.685  0.00  0.00    +0.000 N 
ATOM      2  C   UNL     1       6.082   4.583  14.489  0.00  0.00    +0.000 A 
ATOM      3  C   UNL     1       7.279   5.232  14.263  0.00  0.00    +0.000 A 
ATOM      4  C   UNL     1       7.868   5.034  13.037  0.00  0.00    +0.000 A 
ATOM      5  N   UNL     1       7.333   4.272  12.071  0.00  0.00    +0.000 NA
ATOM      6  C   UNL     1       6.151   3.700  12.361  0.00  0.00    +0.000 A 
ATOM      7  N   UNL     1       5.507   3.831  13.541  0.00  0.00    +0.000 NA
ATOM      8  H   UNL     1       4.610   3.985  15.615  0.00  0.00    +0.000 HD
ENDROOT
BRANCH   6   9
ATOM      9  C   UNL     1       5.504   2.859  11.283  0.00  0.00    +0.000 C 
ATOM     10  C   UNL     1       5.888   1.387  11.431  0.00  0.00    +0.000 C 
ATOM     11  C   UNL     1       3.987   3.042  11.295  0.00  0.00    +0.000 C 
ENDBRANCH   6   9
BRANCH   1  12
ATOM     12  C   UNL     1       6.108   4.658  16.956  0.00  0.00    +0.000 C 
ATOM     13  C   UNL     1       6.542   6.110  17.235  0.00  0.00    +0.000 C 
BRANCH  12  14
ATOM     14  C   UNL     1       5.219   4.212  18.133  0.00  0.00    +0.000 C 
BRANCH  14  21
ATOM     15  C   UNL     1       3.391   1.630  17.973  0.00  0.00    +0.000 C 
ATOM     16  C   UNL     1       2.931   3.039  17.951  0.00  0.00    +0.000 A 
ATOM     17  N   UNL     1       1.629   3.309  17.860  0.00  0.00    +0.000 NA
ATOM     18  O   UNL     1       1.531   4.682  17.888  0.00  0.00    +0.000 OA
ATOM     19  C   UNL     1       2.772   5.236  17.986  0.00  0.00    +0.000 A 
ATOM     20  C   UNL     1       2.748   6.709  18.038  0.00  0.00    +0.000 C 
ATOM     21  C   UNL     1       3.724   4.234  18.027  0.00  0.00    +0.000 A 
ENDBRANCH  14  21
ENDBRANCH  12  14
ENDBRANCH   1  12
TORSDOF 4
ENDMDL
