MODEL 1
REMARK VINA RESULT:      -8.1      0.000      0.000
REMARK  Name = 
REMARK  6 active torsions:
REMARK  status: ('A' for Active; 'I' for Inactive)
REMARK    1  A    between atoms: C_1  and  C_2
REMARK    2  A    between atoms: C_4  and  C_5
REMARK    3  A    between atoms: C_10  and  N_11
REMARK    4  A    between atoms: N_14  and  C_15
REMARK    5  A    between atoms: C_21  and  C_22
REMARK    6  A    between atoms: C_22  and  O_23
REMARK                            x       y       z     vdW  Elec       q    Type
REMARK                         _______ _______ _______ _____ _____    ______ ____
ROOT
ATOM      1  C   UNL     1       4.102   5.608  18.791  0.00  0.00    +0.000 A 
ATOM      2  N   UNL     1       3.733   4.844  19.836  0.00  0.00    +0.000 NA
ATOM      3  N   UNL     1       2.738   5.529  20.422  0.00  0.00    +0.000 N 
ATOM      4  C   UNL     1       2.426   6.705  19.803  0.00  0.00    +0.000 A 
ATOM      5  C   UNL     1       1.504   7.706  20.112  0.00  0.00    +0.000 A 
ATOM      6  C   UNL     1       1.444   8.760  19.207  0.00  0.00    +0.000 A 
ATOM      7  N   UNL     1       2.176   8.814  18.072  0.00  0.00    +0.000 NA
ATOM      8  C   UNL     1       3.109   7.853  17.825  0.00  0.00    +0.000 A 
ATOM      9  C   UNL     1       3.264   6.770  18.696  0.00  0.00    +0.000 A 
ATOM     10  H   UNL     1       2.306   5.131  21.247  0.00  0.00    +0.000 HD
ENDROOT
BRANCH   1  14
ATOM     11  C   UNL     1       5.958   4.179  14.356  0.00  0.00    +0.000 C 
ATOM     12  C   UNL     1       6.123   4.521  15.808  0.00  0.00    +0.000 A 
ATOM     13  C   UNL     1       5.027   4.892  16.585  0.00  0.00    +0.000 A 
ATOM     14  C   UNL     1       5.220   5.201  17.934  0.00  0.00    +0.000 A 
ATOM     15  C   UNL     1       6.520   5.157  18.446  0.00  0.00    +0.000 A 
ATOM     16  C   UNL     1       7.551   4.780  17.605  0.00  0.00    +0.000 A 
ATOM     17  N   UNL     1       7.378   4.452  16.306  0.00  0.00    +0.000 NA
ENDBRANCH   1  14
BRANCH   6  18
ATOM     18  N   UNL     1       0.573   9.844  19.395  0.00  0.00    +0.000 N 
ATOM     19  C   UNL     1       0.693  10.732  20.439  0.00  0.00    +0.000 C 
ATOM     20  O   UNL     1       1.568  10.699  21.298  0.00  0.00    +0.000 OA
ATOM     21  N   UNL     1      -0.290  11.702  20.426  0.00  0.00    +0.000 N 
ATOM     22  H   UNL     1       0.224  10.210  18.523  0.00  0.00    +0.000 HD
ATOM     23  H   UNL     1      -0.826  11.811  19.575  0.00  0.00    +0.000 HD
BRANCH  21  24
ATOM     24  C   UNL     1      -0.209  12.865  21.312  0.00  0.00    +0.000 C 
ATOM     25  C   UNL     1      -0.943  14.058  20.664  0.00  0.00    +0.000 C 
ATOM     26  C   UNL     1      -0.726  15.362  21.437  0.00  0.00    +0.000 C 
ATOM     27  C   UNL     1      -1.614  15.171  22.665  0.00  0.00    +0.000 C 
ATOM     28  C   UNL     1      -2.125  13.748  22.459  0.00  0.00    +0.000 C 
ATOM     29  O   UNL     1      -2.315  13.737  21.025  0.00  0.00    +0.000 OA
ATOM     30  C   UNL     1      -0.972  12.746  22.655  0.00  0.00    +0.000 C 
BRANCH  30  31
ATOM     31  C   UNL     1      -1.491  11.376  23.066  0.00  0.00    +0.000 C 
BRANCH  31  32
ATOM     32  O   UNL     1      -0.429  10.529  23.483  0.00  0.00    +0.000 OA
ATOM     33  H   UNL     1       0.323  11.084  23.731  0.00  0.00    +0.000 HD
ENDBRANCH  31  32
ENDBRANCH  30  31
ENDBRANCH  21  24
ENDBRANCH   6  18
TORSDOF 5
ENDMDL
MODEL 2
REMARK VINA RESULT:      -7.9      3.073     10.308
REMARK  Name = 
REMARK  6 active torsions:
REMARK  status: ('A' for Active; 'I' for Inactive)
REMARK    1  A    between atoms: C_1  and  C_2
REMARK    2  A    between atoms: C_4  and  C_5
REMARK    3  A    between atoms: C_10  and  N_11
REMARK    4  A    between atoms: N_14  and  C_15
REMARK    5  A    between atoms: C_21  and  C_22
REMARK    6  A    between atoms: C_22  and  O_23
REMARK                            x       y       z     vdW  Elec       q    Type
REMARK                         _______ _______ _______ _____ _____    ______ ____
ROOT
ATOM      1  C   UNL     1      -1.306  11.925  20.814  0.00  0.00    +0.000 A 
ATOM      2  N   UNL     1      -1.799  12.288  19.616  0.00  0.00    +0.000 NA
ATOM      3  N   UNL     1      -1.169  11.494  18.736  0.00  0.00    +0.000 N 
ATOM      4  C   UNL     1      -0.290  10.615  19.303  0.00  0.00    +0.000 A 
ATOM      5  C   UNL     1       0.572   9.669  18.747  0.00  0.00    +0.000 A 
ATOM      6  C   UNL     1       1.300   8.917  19.662  0.00  0.00    +0.000 A 
ATOM      7  N   UNL     1       1.163   9.033  21.003  0.00  0.00    +0.000 NA
ATOM      8  C   UNL     1       0.357  10.002  21.516  0.00  0.00    +0.000 A 
ATOM      9  C   UNL     1      -0.391  10.829  20.672  0.00  0.00    +0.000 A 
ATOM     10  H   UNL     1      -1.388  11.600  17.753  0.00  0.00    +0.000 HD
ENDROOT
BRANCH   1  14
ATOM     11  C   UNL     1      -4.435  12.525  24.688  0.00  0.00    +0.000 C 
ATOM     12  C   UNL     1      -3.221  12.919  23.899  0.00  0.00    +0.000 A 
ATOM     13  C   UNL     1      -2.866  12.229  22.742  0.00  0.00    +0.000 A 
ATOM     14  C   UNL     1      -1.729  12.626  22.032  0.00  0.00    +0.000 A 
ATOM     15  C   UNL     1      -0.970  13.687  22.533  0.00  0.00    +0.000 A 
ATOM     16  C   UNL     1      -1.394  14.316  23.689  0.00  0.00    +0.000 A 
ATOM     17  N   UNL     1      -2.504  13.963  24.372  0.00  0.00    +0.000 NA
ENDBRANCH   1  14
BRANCH   6  18
ATOM     18  N   UNL     1       2.216   7.938  19.250  0.00  0.00    +0.000 N 
ATOM     19  C   UNL     1       2.246   6.666  19.776  0.00  0.00    +0.000 C 
ATOM     20  O   UNL     1       1.479   6.238  20.631  0.00  0.00    +0.000 OA
ATOM     21  N   UNL     1       3.248   5.889  19.228  0.00  0.00    +0.000 N 
ATOM     22  H   UNL     1       2.470   8.036  18.279  0.00  0.00    +0.000 HD
ATOM     23  H   UNL     1       3.682   6.220  18.377  0.00  0.00    +0.000 HD
BRANCH  21  24
ATOM     24  C   UNL     1       3.305   4.449  19.485  0.00  0.00    +0.000 C 
ATOM     25  C   UNL     1       2.230   3.732  18.640  0.00  0.00    +0.000 C 
ATOM     26  C   UNL     1       2.094   2.252  19.008  0.00  0.00    +0.000 C 
ATOM     27  C   UNL     1       3.344   1.638  18.379  0.00  0.00    +0.000 C 
ATOM     28  C   UNL     1       4.054   2.873  17.835  0.00  0.00    +0.000 C 
ATOM     29  O   UNL     1       2.925   3.647  17.366  0.00  0.00    +0.000 OA
ATOM     30  C   UNL     1       4.587   3.726  19.001  0.00  0.00    +0.000 C 
BRANCH  30  31
ATOM     31  C   UNL     1       5.771   4.579  18.571  0.00  0.00    +0.000 C 
BRANCH  31  32
ATOM     32  O   UNL     1       5.535   5.186  17.308  0.00  0.00    +0.000 OA
ATOM     33  H   UNL     1       4.894   4.646  16.828  0.00  0.00    +0.000 HD
ENDBRANCH  31  32
ENDBRANCH  30  31
ENDBRANCH  21  24
ENDBRANCH   6  18
TORSDOF 5
ENDMDL
MODEL 3
REMARK VINA RESULT:      -7.9      2.885     10.473
REMARK  Name = 
REMARK  6 active torsions:
REMARK  status: ('A' for Active; 'I' for Inactive)
REMARK    1  A    between atoms: C_1  and  C_2
REMARK    2  A    between atoms: C_4  and  C_5
REMARK    3  A    between atoms: C_10  and  N_11
REMARK    4  A    between atoms: N_14  and  C_15
REMARK    5  A    between atoms: C_21  and  C_22
REMARK    6  A    between atoms: C_22  and  O_23
REMARK                            x       y       z     vdW  Elec       q    Type
REMARK                         _______ _______ _______ _____ _____    ______ ____
ROOT
ATOM      1  C   UNL     1      -1.344  12.327  21.971  0.00  0.00    +0.000 A 
ATOM      2  N   UNL     1      -1.319  12.880  20.745  0.00  0.00    +0.000 NA
ATOM      3  N   UNL     1      -0.584  12.032  20.007  0.00  0.00    +0.000 N 
ATOM      4  C   UNL     1      -0.133  10.939  20.690  0.00  0.00    +0.000 A 
ATOM      5  C   UNL     1       0.677   9.869  20.307  0.00  0.00    +0.000 A 
ATOM      6  C   UNL     1       0.892   8.906  21.287  0.00  0.00    +0.000 A 
ATOM      7  N   UNL     1       0.327   8.949  22.515  0.00  0.00    +0.000 NA
ATOM      8  C   UNL     1      -0.412  10.033  22.880  0.00  0.00    +0.000 A 
ATOM      9  C   UNL     1      -0.656  11.067  21.971  0.00  0.00    +0.000 A 
ATOM     10  H   UNL     1      -0.428  12.259  19.032  0.00  0.00    +0.000 HD
ENDROOT
BRANCH   1  14
ATOM     11  C   UNL     1      -1.583  15.974  25.406  0.00  0.00    +0.000 C 
ATOM     12  C   UNL     1      -2.150  14.763  24.726  0.00  0.00    +0.000 A 
ATOM     13  C   UNL     1      -1.463  14.139  23.686  0.00  0.00    +0.000 A 
ATOM     14  C   UNL     1      -2.022  13.012  23.078  0.00  0.00    +0.000 A 
ATOM     15  C   UNL     1      -3.272  12.570  23.518  0.00  0.00    +0.000 A 
ATOM     16  C   UNL     1      -3.885  13.248  24.557  0.00  0.00    +0.000 A 
ATOM     17  N   UNL     1      -3.347  14.322  25.173  0.00  0.00    +0.000 NA
ENDBRANCH   1  14
BRANCH   6  18
ATOM     18  N   UNL     1       1.696   7.781  21.051  0.00  0.00    +0.000 N 
ATOM     19  C   UNL     1       2.208   7.470  19.812  0.00  0.00    +0.000 C 
ATOM     20  O   UNL     1       2.047   8.134  18.794  0.00  0.00    +0.000 OA
ATOM     21  N   UNL     1       2.951   6.305  19.822  0.00  0.00    +0.000 N 
ATOM     22  H   UNL     1       2.258   7.537  21.851  0.00  0.00    +0.000 HD
ATOM     23  H   UNL     1       3.236   5.943  20.722  0.00  0.00    +0.000 HD
BRANCH  21  24
ATOM     24  C   UNL     1       3.763   5.923  18.666  0.00  0.00    +0.000 C 
ATOM     25  C   UNL     1       5.033   5.190  19.147  0.00  0.00    +0.000 C 
ATOM     26  C   UNL     1       6.027   4.941  18.009  0.00  0.00    +0.000 C 
ATOM     27  C   UNL     1       5.367   3.800  17.238  0.00  0.00    +0.000 C 
ATOM     28  C   UNL     1       4.051   3.637  17.991  0.00  0.00    +0.000 C 
ATOM     29  O   UNL     1       4.492   3.856  19.351  0.00  0.00    +0.000 OA
ATOM     30  C   UNL     1       3.145   4.855  17.729  0.00  0.00    +0.000 C 
BRANCH  30  31
ATOM     31  C   UNL     1       1.676   4.505  17.912  0.00  0.00    +0.000 C 
BRANCH  31  32
ATOM     32  O   UNL     1       1.468   3.772  19.111  0.00  0.00    +0.000 OA
ATOM     33  H   UNL     1       0.520   3.768  19.303  0.00  0.00    +0.000 HD
ENDBRANCH  31  32
ENDBRANCH  30  31
ENDBRANCH  21  24
ENDBRANCH   6  18
TORSDOF 5
ENDMDL
MODEL 4
REMARK VINA RESULT:      -7.8      2.948     10.410
REMARK  Name = 
REMARK  6 active torsions:
REMARK  status: ('A' for Active; 'I' for Inactive)
REMARK    1  A    between atoms: C_1  and  C_2
REMARK    2  A    between atoms: C_4  and  C_5
REMARK    3  A    between atoms: C_10  and  N_11
REMARK    4  A    between atoms: N_14  and  C_15
REMARK    5  A    between atoms: C_21  and  C_22
REMARK    6  A    between atoms: C_22  and  O_23
REMARK                            x       y       z     vdW  Elec       q    Type
REMARK                         _______ _______ _______ _____ _____    ______ ____
ROOT
ATOM      1  C   UNL     1      -1.084  12.372  21.897  0.00  0.00    +0.000 A 
ATOM      2  N   UNL     1      -0.805  13.059  20.775  0.00  0.00    +0.000 NA
ATOM      3  N   UNL     1       0.004  12.249  20.074  0.00  0.00    +0.000 N 
ATOM      4  C   UNL     1       0.262  11.053  20.680  0.00  0.00    +0.000 A 
ATOM      5  C   UNL     1       1.067   9.974  20.310  0.00  0.00    +0.000 A 
ATOM      6  C   UNL     1       1.047   8.891  21.182  0.00  0.00    +0.000 A 
ATOM      7  N   UNL     1       0.271   8.834  22.288  0.00  0.00    +0.000 NA
ATOM      8  C   UNL     1      -0.461   9.923  22.654  0.00  0.00    +0.000 A 
ATOM      9  C   UNL     1      -0.478  11.071  21.856  0.00  0.00    +0.000 A 
ATOM     10  H   UNL     1       0.347  12.574  19.179  0.00  0.00    +0.000 HD
ENDROOT
BRANCH   1  14
ATOM     11  C   UNL     1      -5.158  12.390  24.823  0.00  0.00    +0.000 C 
ATOM     12  C   UNL     1      -3.862  12.988  24.362  0.00  0.00    +0.000 A 
ATOM     13  C   UNL     1      -3.115  12.385  23.352  0.00  0.00    +0.000 A 
ATOM     14  C   UNL     1      -1.913  12.974  22.947  0.00  0.00    +0.000 A 
ATOM     15  C   UNL     1      -1.489  14.134  23.600  0.00  0.00    +0.000 A 
ATOM     16  C   UNL     1      -2.292  14.666  24.593  0.00  0.00    +0.000 A 
ATOM     17  N   UNL     1      -3.469  14.126  24.976  0.00  0.00    +0.000 NA
ENDBRANCH   1  14
BRANCH   6  18
ATOM     18  N   UNL     1       1.817   7.742  20.947  0.00  0.00    +0.000 N 
ATOM     19  C   UNL     1       2.275   7.385  19.699  0.00  0.00    +0.000 C 
ATOM     20  O   UNL     1       2.089   8.025  18.670  0.00  0.00    +0.000 OA
ATOM     21  N   UNL     1       2.992   6.205  19.714  0.00  0.00    +0.000 N 
ATOM     22  H   UNL     1       2.404   7.508  21.732  0.00  0.00    +0.000 HD
ATOM     23  H   UNL     1       3.303   5.861  20.612  0.00  0.00    +0.000 HD
BRANCH  21  24
ATOM     24  C   UNL     1       3.752   5.774  18.539  0.00  0.00    +0.000 C 
ATOM     25  C   UNL     1       5.023   5.025  18.993  0.00  0.00    +0.000 C 
ATOM     26  C   UNL     1       5.967   4.724  17.826  0.00  0.00    +0.000 C 
ATOM     27  C   UNL     1       5.254   3.577  17.112  0.00  0.00    +0.000 C 
ATOM     28  C   UNL     1       3.964   3.464  17.918  0.00  0.00    +0.000 C 
ATOM     29  O   UNL     1       4.462   3.710  19.255  0.00  0.00    +0.000 OA
ATOM     30  C   UNL     1       3.076   4.695  17.657  0.00  0.00    +0.000 C 
BRANCH  30  31
ATOM     31  C   UNL     1       1.607   4.382  17.904  0.00  0.00    +0.000 C 
BRANCH  31  32
ATOM     32  O   UNL     1       1.432   3.664  19.117  0.00  0.00    +0.000 OA
ATOM     33  H   UNL     1       1.856   2.801  19.022  0.00  0.00    +0.000 HD
ENDBRANCH  31  32
ENDBRANCH  30  31
ENDBRANCH  21  24
ENDBRANCH   6  18
TORSDOF 5
ENDMDL
MODEL 5
REMARK VINA RESULT:      -7.8      3.053     10.366
REMARK  Name = 
REMARK  6 active torsions:
REMARK  status: ('A' for Active; 'I' for Inactive)
REMARK    1  A    between atoms: C_1  and  C_2
REMARK    2  A    between atoms: C_4  and  C_5
REMARK    3  A    between atoms: C_10  and  N_11
REMARK    4  A    between atoms: N_14  and  C_15
REMARK    5  A    between atoms: C_21  and  C_22
REMARK    6  A    between atoms: C_22  and  O_23
REMARK                            x       y       z     vdW  Elec       q    Type
REMARK                         _______ _______ _______ _____ _____    ______ ____
ROOT
ATOM      1  C   UNL     1      -1.539  11.858  21.408  0.00  0.00    +0.000 A 
ATOM      2  N   UNL     1      -1.995  12.124  20.171  0.00  0.00    +0.000 NA
ATOM      3  N   UNL     1      -1.298  11.302  19.370  0.00  0.00    +0.000 N 
ATOM      4  C   UNL     1      -0.412  10.497  20.027  0.00  0.00    +0.000 A 
ATOM      5  C   UNL     1       0.509   9.554  19.568  0.00  0.00    +0.000 A 
ATOM      6  C   UNL     1       1.226   8.892  20.558  0.00  0.00    +0.000 A 
ATOM      7  N   UNL     1       1.029   9.087  21.882  0.00  0.00    +0.000 NA
ATOM      8  C   UNL     1       0.165  10.054  22.299  0.00  0.00    +0.000 A 
ATOM      9  C   UNL     1      -0.577  10.794  21.374  0.00  0.00    +0.000 A 
ATOM     10  H   UNL     1      -1.480  11.337  18.374  0.00  0.00    +0.000 HD
ENDROOT
BRANCH   1  14
ATOM     11  C   UNL     1      -1.096  15.543  24.783  0.00  0.00    +0.000 C 
ATOM     12  C   UNL     1      -1.840  14.388  24.180  0.00  0.00    +0.000 A 
ATOM     13  C   UNL     1      -1.318  13.690  23.093  0.00  0.00    +0.000 A 
ATOM     14  C   UNL     1      -2.040  12.617  22.560  0.00  0.00    +0.000 A 
ATOM     15  C   UNL     1      -3.280  12.307  23.122  0.00  0.00    +0.000 A 
ATOM     16  C   UNL     1      -3.724  13.052  24.200  0.00  0.00    +0.000 A 
ATOM     17  N   UNL     1      -3.028  14.073  24.744  0.00  0.00    +0.000 NA
ENDBRANCH   1  14
BRANCH   6  18
ATOM     18  N   UNL     1       2.196   7.927  20.247  0.00  0.00    +0.000 N 
ATOM     19  C   UNL     1       1.974   6.574  20.363  0.00  0.00    +0.000 C 
ATOM     20  O   UNL     1       0.921   6.059  20.722  0.00  0.00    +0.000 OA
ATOM     21  N   UNL     1       3.082   5.823  20.020  0.00  0.00    +0.000 N 
ATOM     22  H   UNL     1       2.809   8.226  19.506  0.00  0.00    +0.000 HD
ATOM     23  H   UNL     1       3.823   6.291  19.516  0.00  0.00    +0.000 HD
BRANCH  21  24
ATOM     24  C   UNL     1       2.984   4.372  19.859  0.00  0.00    +0.000 C 
ATOM     25  C   UNL     1       1.913   4.041  18.797  0.00  0.00    +0.000 C 
ATOM     26  C   UNL     1       1.612   2.542  18.723  0.00  0.00    +0.000 C 
ATOM     27  C   UNL     1       2.842   1.993  18.003  0.00  0.00    +0.000 C 
ATOM     28  C   UNL     1       3.704   3.244  17.865  0.00  0.00    +0.000 C 
ATOM     29  O   UNL     1       2.691   4.238  17.585  0.00  0.00    +0.000 OA
ATOM     30  C   UNL     1       4.226   3.674  19.249  0.00  0.00    +0.000 C 
BRANCH  30  31
ATOM     31  C   UNL     1       5.514   4.475  19.133  0.00  0.00    +0.000 C 
BRANCH  31  32
ATOM     32  O   UNL     1       5.418   5.456  18.108  0.00  0.00    +0.000 OA
ATOM     33  H   UNL     1       6.313   5.671  17.811  0.00  0.00    +0.000 HD
ENDBRANCH  31  32
ENDBRANCH  30  31
ENDBRANCH  21  24
ENDBRANCH   6  18
TORSDOF 5
ENDMDL
MODEL 6
REMARK VINA RESULT:      -7.8      2.895     10.254
REMARK  Name = 
REMARK  6 active torsions:
REMARK  status: ('A' for Active; 'I' for Inactive)
REMARK    1  A    between atoms: C_1  and  C_2
REMARK    2  A    between atoms: C_4  and  C_5
REMARK    3  A    between atoms: C_10  and  N_11
REMARK    4  A    between atoms: N_14  and  C_15
REMARK    5  A    between atoms: C_21  and  C_22
REMARK    6  A    between atoms: C_22  and  O_23
REMARK                            x       y       z     vdW  Elec       q    Type
REMARK                         _______ _______ _______ _____ _____    ______ ____
ROOT
ATOM      1  C   UNL     1      -0.882  11.901  21.061  0.00  0.00    +0.000 A 
ATOM      2  N   UNL     1      -1.051  12.379  19.814  0.00  0.00    +0.000 NA
ATOM      3  N   UNL     1      -0.366  11.530  19.031  0.00  0.00    +0.000 N 
ATOM      4  C   UNL     1       0.237  10.506  19.705  0.00  0.00    +0.000 A 
ATOM      5  C   UNL     1       1.055   9.461  19.276  0.00  0.00    +0.000 A 
ATOM      6  C   UNL     1       1.455   8.573  20.268  0.00  0.00    +0.000 A 
ATOM      7  N   UNL     1       1.053   8.659  21.557  0.00  0.00    +0.000 NA
ATOM      8  C   UNL     1       0.302   9.722  21.958  0.00  0.00    +0.000 A 
ATOM      9  C   UNL     1      -0.123  10.684  21.036  0.00  0.00    +0.000 A 
ATOM     10  H   UNL     1      -0.353  11.704  18.034  0.00  0.00    +0.000 HD
ENDROOT
BRANCH   1  14
ATOM     11  C   UNL     1      -4.388  12.449  24.606  0.00  0.00    +0.000 C 
ATOM     12  C   UNL     1      -3.126  12.882  23.920  0.00  0.00    +0.000 A 
ATOM     13  C   UNL     1      -2.630  12.179  22.824  0.00  0.00    +0.000 A 
ATOM     14  C   UNL     1      -1.452  12.614  22.210  0.00  0.00    +0.000 A 
ATOM     15  C   UNL     1      -0.796  13.726  22.743  0.00  0.00    +0.000 A 
ATOM     16  C   UNL     1      -1.357  14.365  23.834  0.00  0.00    +0.000 A 
ATOM     17  N   UNL     1      -2.508  13.975  24.422  0.00  0.00    +0.000 NA
ENDBRANCH   1  14
BRANCH   6  18
ATOM     18  N   UNL     1       2.290   7.481  19.988  0.00  0.00    +0.000 N 
ATOM     19  C   UNL     1       2.477   6.984  18.717  0.00  0.00    +0.000 C 
ATOM     20  O   UNL     1       1.966   7.439  17.700  0.00  0.00    +0.000 OA
ATOM     21  N   UNL     1       3.326   5.895  18.693  0.00  0.00    +0.000 N 
ATOM     22  H   UNL     1       3.075   7.427  20.618  0.00  0.00    +0.000 HD
ATOM     23  H   UNL     1       3.887   5.723  19.517  0.00  0.00    +0.000 HD
BRANCH  21  24
ATOM     24  C   UNL     1       3.829   5.365  17.425  0.00  0.00    +0.000 C 
ATOM     25  C   UNL     1       5.059   6.182  16.976  0.00  0.00    +0.000 C 
ATOM     26  C   UNL     1       5.515   5.816  15.561  0.00  0.00    +0.000 C 
ATOM     27  C   UNL     1       6.189   4.462  15.770  0.00  0.00    +0.000 C 
ATOM     28  C   UNL     1       5.929   4.212  17.252  0.00  0.00    +0.000 C 
ATOM     29  O   UNL     1       6.091   5.549  17.782  0.00  0.00    +0.000 OA
ATOM     30  C   UNL     1       4.431   3.938  17.481  0.00  0.00    +0.000 C 
BRANCH  30  31
ATOM     31  C   UNL     1       4.202   3.112  18.737  0.00  0.00    +0.000 C 
BRANCH  31  32
ATOM     32  O   UNL     1       5.284   3.252  19.648  0.00  0.00    +0.000 OA
ATOM     33  H   UNL     1       6.089   3.418  19.139  0.00  0.00    +0.000 HD
ENDBRANCH  31  32
ENDBRANCH  30  31
ENDBRANCH  21  24
ENDBRANCH   6  18
TORSDOF 5
ENDMDL
MODEL 7
REMARK VINA RESULT:      -7.8      3.586      9.898
REMARK  Name = 
REMARK  6 active torsions:
REMARK  status: ('A' for Active; 'I' for Inactive)
REMARK    1  A    between atoms: C_1  and  C_2
REMARK    2  A    between atoms: C_4  and  C_5
REMARK    3  A    between atoms: C_10  and  N_11
REMARK    4  A    between atoms: N_14  and  C_15
REMARK    5  A    between atoms: C_21  and  C_22
REMARK    6  A    between atoms: C_22  and  O_23
REMARK                            x       y       z     vdW  Elec       q    Type
REMARK                         _______ _______ _______ _____ _____    ______ ____
ROOT
ATOM      1  C   UNL     1       0.348  13.645  19.019  0.00  0.00    +0.000 A 
ATOM      2  N   UNL     1      -0.852  13.376  19.564  0.00  0.00    +0.000 NA
ATOM      3  N   UNL     1      -0.969  12.041  19.482  0.00  0.00    +0.000 N 
ATOM      4  C   UNL     1       0.106  11.417  18.917  0.00  0.00    +0.000 A 
ATOM      5  C   UNL     1       0.357  10.077  18.619  0.00  0.00    +0.000 A 
ATOM      6  C   UNL     1       1.607   9.813  18.071  0.00  0.00    +0.000 A 
ATOM      7  N   UNL     1       2.555  10.759  17.878  0.00  0.00    +0.000 NA
ATOM      8  C   UNL     1       2.262  12.066  18.124  0.00  0.00    +0.000 A 
ATOM      9  C   UNL     1       1.018  12.431  18.648  0.00  0.00    +0.000 A 
ATOM     10  H   UNL     1      -1.815  11.613  19.837  0.00  0.00    +0.000 HD
ENDROOT
BRANCH   1  14
ATOM     11  C   UNL     1      -0.491  18.470  17.935  0.00  0.00    +0.000 C 
ATOM     12  C   UNL     1       0.411  17.353  18.371  0.00  0.00    +0.000 A 
ATOM     13  C   UNL     1      -0.066  16.048  18.475  0.00  0.00    +0.000 A 
ATOM     14  C   UNL     1       0.804  15.033  18.882  0.00  0.00    +0.000 A 
ATOM     15  C   UNL     1       2.120  15.376  19.203  0.00  0.00    +0.000 A 
ATOM     16  C   UNL     1       2.511  16.697  19.073  0.00  0.00    +0.000 A 
ATOM     17  N   UNL     1       1.690  17.684  18.655  0.00  0.00    +0.000 NA
ENDBRANCH   1  14
BRANCH   6  18
ATOM     18  N   UNL     1       1.994   8.514  17.708  0.00  0.00    +0.000 N 
ATOM     19  C   UNL     1       2.216   7.512  18.625  0.00  0.00    +0.000 C 
ATOM     20  O   UNL     1       2.083   7.624  19.839  0.00  0.00    +0.000 OA
ATOM     21  N   UNL     1       2.608   6.328  18.033  0.00  0.00    +0.000 N 
ATOM     22  H   UNL     1       1.620   8.239  16.814  0.00  0.00    +0.000 HD
ATOM     23  H   UNL     1       2.470   6.239  17.035  0.00  0.00    +0.000 HD
BRANCH  21  24
ATOM     24  C   UNL     1       2.673   5.087  18.807  0.00  0.00    +0.000 C 
ATOM     25  C   UNL     1       1.517   4.155  18.386  0.00  0.00    +0.000 C 
ATOM     26  C   UNL     1       1.401   2.927  19.293  0.00  0.00    +0.000 C 
ATOM     27  C   UNL     1       2.580   2.069  18.842  0.00  0.00    +0.000 C 
ATOM     28  C   UNL     1       3.250   2.977  17.816  0.00  0.00    +0.000 C 
ATOM     29  O   UNL     1       2.090   3.569  17.184  0.00  0.00    +0.000 OA
ATOM     30  C   UNL     1       3.898   4.180  18.528  0.00  0.00    +0.000 C 
BRANCH  30  31
ATOM     31  C   UNL     1       5.046   4.756  17.713  0.00  0.00    +0.000 C 
BRANCH  31  32
ATOM     32  O   UNL     1       4.682   4.907  16.348  0.00  0.00    +0.000 OA
ATOM     33  H   UNL     1       5.168   4.251  15.830  0.00  0.00    +0.000 HD
ENDBRANCH  31  32
ENDBRANCH  30  31
ENDBRANCH  21  24
ENDBRANCH   6  18
TORSDOF 5
ENDMDL
MODEL 8
REMARK VINA RESULT:      -7.7      0.861      1.366
REMARK  Name = 
REMARK  6 active torsions:
REMARK  status: ('A' for Active; 'I' for Inactive)
REMARK    1  A    between atoms: C_1  and  C_2
REMARK    2  A    between atoms: C_4  and  C_5
REMARK    3  A    between atoms: C_10  and  N_11
REMARK    4  A    between atoms: N_14  and  C_15
REMARK    5  A    between atoms: C_21  and  C_22
REMARK    6  A    between atoms: C_22  and  O_23
REMARK                            x       y       z     vdW  Elec       q    Type
REMARK                         _______ _______ _______ _____ _____    ______ ____
ROOT
ATOM      1  C   UNL     1       4.038   5.702  18.848  0.00  0.00    +0.000 A 
ATOM      2  N   UNL     1       3.673   4.945  19.899  0.00  0.00    +0.000 NA
ATOM      3  N   UNL     1       2.680   5.634  20.484  0.00  0.00    +0.000 N 
ATOM      4  C   UNL     1       2.366   6.807  19.858  0.00  0.00    +0.000 A 
ATOM      5  C   UNL     1       1.445   7.809  20.164  0.00  0.00    +0.000 A 
ATOM      6  C   UNL     1       1.382   8.857  19.252  0.00  0.00    +0.000 A 
ATOM      7  N   UNL     1       2.111   8.903  18.113  0.00  0.00    +0.000 NA
ATOM      8  C   UNL     1       3.043   7.940  17.870  0.00  0.00    +0.000 A 
ATOM      9  C   UNL     1       3.200   6.863  18.748  0.00  0.00    +0.000 A 
ATOM     10  H   UNL     1       2.250   5.242  21.313  0.00  0.00    +0.000 HD
ENDROOT
BRANCH   1  14
ATOM     11  C   UNL     1       5.872   4.201  14.428  0.00  0.00    +0.000 C 
ATOM     12  C   UNL     1       6.046   4.574  15.871  0.00  0.00    +0.000 A 
ATOM     13  C   UNL     1       4.953   4.949  16.649  0.00  0.00    +0.000 A 
ATOM     14  C   UNL     1       5.154   5.288  17.990  0.00  0.00    +0.000 A 
ATOM     15  C   UNL     1       6.457   5.269  18.492  0.00  0.00    +0.000 A 
ATOM     16  C   UNL     1       7.485   4.884  17.650  0.00  0.00    +0.000 A 
ATOM     17  N   UNL     1       7.305   4.528  16.360  0.00  0.00    +0.000 NA
ENDBRANCH   1  14
BRANCH   6  18
ATOM     18  N   UNL     1       0.513   9.943  19.434  0.00  0.00    +0.000 N 
ATOM     19  C   UNL     1       0.521  10.730  20.563  0.00  0.00    +0.000 C 
ATOM     20  O   UNL     1       1.286  10.596  21.512  0.00  0.00    +0.000 OA
ATOM     21  N   UNL     1      -0.439  11.723  20.524  0.00  0.00    +0.000 N 
ATOM     22  H   UNL     1       0.276  10.394  18.565  0.00  0.00    +0.000 HD
ATOM     23  H   UNL     1      -0.867  11.922  19.630  0.00  0.00    +0.000 HD
BRANCH  21  24
ATOM     24  C   UNL     1      -0.446  12.799  21.517  0.00  0.00    +0.000 C 
ATOM     25  C   UNL     1       0.467  13.948  21.038  0.00  0.00    +0.000 C 
ATOM     26  C   UNL     1       0.669  15.017  22.116  0.00  0.00    +0.000 C 
ATOM     27  C   UNL     1      -0.669  15.753  22.107  0.00  0.00    +0.000 C 
ATOM     28  C   UNL     1      -1.468  14.932  21.099  0.00  0.00    +0.000 C 
ATOM     29  O   UNL     1      -0.440  14.628  20.127  0.00  0.00    +0.000 OA
ATOM     30  C   UNL     1      -1.791  13.548  21.692  0.00  0.00    +0.000 C 
BRANCH  30  31
ATOM     31  C   UNL     1      -3.035  12.947  21.055  0.00  0.00    +0.000 C 
BRANCH  31  32
ATOM     32  O   UNL     1      -2.969  13.014  19.637  0.00  0.00    +0.000 OA
ATOM     33  H   UNL     1      -2.163  12.563  19.350  0.00  0.00    +0.000 HD
ENDBRANCH  31  32
ENDBRANCH  30  31
ENDBRANCH  21  24
ENDBRANCH   6  18
TORSDOF 5
ENDMDL
MODEL 9
REMARK VINA RESULT:      -7.7      3.769      9.703
REMARK  Name = 
REMARK  6 active torsions:
REMARK  status: ('A' for Active; 'I' for Inactive)
REMARK    1  A    between atoms: C_1  and  C_2
REMARK    2  A    between atoms: C_4  and  C_5
REMARK    3  A    between atoms: C_10  and  N_11
REMARK    4  A    between atoms: N_14  and  C_15
REMARK    5  A    between atoms: C_21  and  C_22
REMARK    6  A    between atoms: C_22  and  O_23
REMARK                            x       y       z     vdW  Elec       q    Type
REMARK                         _______ _______ _______ _____ _____    ______ ____
ROOT
ATOM      1  C   UNL     1       0.955  13.544  19.287  0.00  0.00    +0.000 A 
ATOM      2  N   UNL     1      -0.097  13.373  20.107  0.00  0.00    +0.000 NA
ATOM      3  N   UNL     1      -0.335  12.052  20.081  0.00  0.00    +0.000 N 
ATOM      4  C   UNL     1       0.522  11.343  19.288  0.00  0.00    +0.000 A 
ATOM      5  C   UNL     1       0.587   9.987  18.964  0.00  0.00    +0.000 A 
ATOM      6  C   UNL     1       1.646   9.624  18.138  0.00  0.00    +0.000 A 
ATOM      7  N   UNL     1       2.591  10.490  17.707  0.00  0.00    +0.000 NA
ATOM      8  C   UNL     1       2.469  11.816  17.992  0.00  0.00    +0.000 A 
ATOM      9  C   UNL     1       1.419  12.280  18.790  0.00  0.00    +0.000 A 
ATOM     10  H   UNL     1      -1.103  11.693  20.635  0.00  0.00    +0.000 HD
ENDROOT
BRANCH   1  14
ATOM     11  C   UNL     1       4.753  16.782  18.785  0.00  0.00    +0.000 C 
ATOM     12  C   UNL     1       3.290  16.452  18.769  0.00  0.00    +0.000 A 
ATOM     13  C   UNL     1       2.845  15.160  19.041  0.00  0.00    +0.000 A 
ATOM     14  C   UNL     1       1.473  14.891  19.020  0.00  0.00    +0.000 A 
ATOM     15  C   UNL     1       0.599  15.929  18.692  0.00  0.00    +0.000 A 
ATOM     16  C   UNL     1       1.125  17.182  18.435  0.00  0.00    +0.000 A 
ATOM     17  N   UNL     1       2.444  17.465  18.478  0.00  0.00    +0.000 NA
ENDBRANCH   1  14
BRANCH   6  18
ATOM     18  N   UNL     1       1.831   8.298  17.718  0.00  0.00    +0.000 N 
ATOM     19  C   UNL     1       2.193   7.282  18.573  0.00  0.00    +0.000 C 
ATOM     20  O   UNL     1       2.370   7.405  19.780  0.00  0.00    +0.000 OA
ATOM     21  N   UNL     1       2.336   6.070  17.927  0.00  0.00    +0.000 N 
ATOM     22  H   UNL     1       1.230   8.053  16.947  0.00  0.00    +0.000 HD
ATOM     23  H   UNL     1       1.952   5.991  16.995  0.00  0.00    +0.000 HD
BRANCH  21  24
ATOM     24  C   UNL     1       2.493   4.828  18.686  0.00  0.00    +0.000 C 
ATOM     25  C   UNL     1       1.515   3.765  18.144  0.00  0.00    +0.000 C 
ATOM     26  C   UNL     1       1.478   2.509  19.020  0.00  0.00    +0.000 C 
ATOM     27  C   UNL     1       2.797   1.823  18.670  0.00  0.00    +0.000 C 
ATOM     28  C   UNL     1       3.433   2.839  17.725  0.00  0.00    +0.000 C 
ATOM     29  O   UNL     1       2.268   3.291  16.995  0.00  0.00    +0.000 OA
ATOM     30  C   UNL     1       3.847   4.096  18.512  0.00  0.00    +0.000 C 
BRANCH  30  31
ATOM     31  C   UNL     1       4.979   4.838  17.817  0.00  0.00    +0.000 C 
BRANCH  31  32
ATOM     32  O   UNL     1       4.650   5.128  16.465  0.00  0.00    +0.000 OA
ATOM     33  H   UNL     1       3.972   4.502  16.178  0.00  0.00    +0.000 HD
ENDBRANCH  31  32
ENDBRANCH  30  31
ENDBRANCH  21  24
ENDBRANCH   6  18
TORSDOF 5
ENDMDL
