MODEL 1
REMARK VINA RESULT:      -7.7      0.000      0.000
REMARK  Name = 
REMARK  12 active torsions:
REMARK  status: ('A' for Active; 'I' for Inactive)
REMARK    1  A    between atoms: C_1  and  N_2
REMARK    2  A    between atoms: C_4  and  C_5
REMARK    3  A    between atoms: C_12  and  C_13
REMARK    4  A    between atoms: C_20  and  C_21
REMARK    5  A    between atoms: C_21  and  N_22
REMARK    6  A    between atoms: C_23  and  C_25
REMARK    7  A    between atoms: C_25  and  C_26
REMARK    8  A    between atoms: C_26  and  C_27
REMARK    9  A    between atoms: C_26  and  C_28
REMARK   10  A    between atoms: C_26  and  C_29
REMARK   11  A    between atoms: C_29  and  C_30
REMARK   12  A    between atoms: C_30  and  O_32
REMARK                            x       y       z     vdW  Elec       q    Type
REMARK                         _______ _______ _______ _____ _____    ______ ____
ROOT
ATOM      1  C   UNL     1       4.281   5.784  17.219  0.00  0.00    +0.000 C 
ATOM      2  C   UNL     1       5.071   6.401  16.034  0.00  0.00    +0.000 C 
ATOM      3  N   UNL     1       6.503   6.008  16.028  0.00  0.00    +0.000 NA
ATOM      4  C   UNL     1       6.594   4.532  16.021  0.00  0.00    +0.000 C 
ATOM      5  C   UNL     1       5.954   3.921  17.277  0.00  0.00    +0.000 C 
ATOM      6  C   UNL     1       5.306   5.037  18.123  0.00  0.00    +0.000 C 
ATOM      7  C   UNL     1       6.457   5.981  18.528  0.00  0.00    +0.000 C 
ATOM      8  C   UNL     1       7.162   6.523  17.263  0.00  0.00    +0.000 C 
ENDROOT
BRANCH   1  14
ATOM      9  C   UNL     1       2.498   5.203  19.747  0.00  0.00    +0.000 C 
ATOM     10  N   UNL     1       2.664   6.477  19.088  0.00  0.00    +0.000 N 
ATOM     11  N   UNL     1       2.008   7.535  19.602  0.00  0.00    +0.000 NA
ATOM     12  C   UNL     1       2.270   8.537  18.762  0.00  0.00    +0.000 A 
ATOM     13  C   UNL     1       3.165   8.123  17.749  0.00  0.00    +0.000 A 
ATOM     14  C   UNL     1       3.403   6.776  17.960  0.00  0.00    +0.000 A 
BRANCH  12  15
ATOM     15  C   UNL     1       1.629   9.894  18.914  0.00  0.00    +0.000 C 
ATOM     16  C   UNL     1       0.706  10.255  17.733  0.00  0.00    +0.000 C 
ATOM     17  C   UNL     1      -0.730   9.751  17.878  0.00  0.00    +0.000 C 
ATOM     18  C   UNL     1      -1.330  10.162  19.213  0.00  0.00    +0.000 C 
ATOM     19  C   UNL     1      -0.490   9.632  20.368  0.00  0.00    +0.000 C 
ATOM     20  C   UNL     1       0.959  10.109  20.283  0.00  0.00    +0.000 C 
ENDBRANCH  12  15
ENDBRANCH   1  14
BRANCH   8  21
ATOM     21  C   UNL     1       7.255   8.063  17.327  0.00  0.00    +0.000 C 
BRANCH  21  22
ATOM     22  N   UNL     1       8.298   8.543  18.208  0.00  0.00    +0.000 N 
ATOM     23  C   UNL     1       8.563   9.882  18.325  0.00  0.00    +0.000 C 
ATOM     24  O   UNL     1       7.991  10.745  17.664  0.00  0.00    +0.000 OA
ATOM     25  H   UNL     1       8.862   7.866  18.723  0.00  0.00    +0.000 HD
BRANCH  23  26
ATOM     26  C   UNL     1       9.559  10.250  19.404  0.00  0.00    +0.000 C 
BRANCH  26  27
ATOM     27  C   UNL     1      10.250  11.620  19.161  0.00  0.00    +0.000 C 
ATOM     28  C   UNL     1      11.417  11.752  20.157  0.00  0.00    +0.000 C 
ATOM     29  C   UNL     1      10.845  11.662  17.734  0.00  0.00    +0.000 C 
BRANCH  27  30
ATOM     30  C   UNL     1       9.300  12.838  19.301  0.00  0.00    +0.000 C 
BRANCH  30  31
ATOM     31  C   UNL     1       9.376  13.834  18.165  0.00  0.00    +0.000 C 
ATOM     32  O   UNL     1      10.203  14.732  18.104  0.00  0.00    +0.000 OA
BRANCH  31  33
ATOM     33  O   UNL     1       8.434  13.655  17.215  0.00  0.00    +0.000 OA
ATOM     34  H   UNL     1       7.638  13.171  17.509  0.00  0.00    +0.000 HD
ENDBRANCH  31  33
ENDBRANCH  30  31
ENDBRANCH  27  30
ENDBRANCH  26  27
ENDBRANCH  23  26
ENDBRANCH  21  22
ENDBRANCH   8  21
TORSDOF 9
ENDMDL
MODEL 2
REMARK VINA RESULT:      -7.6      4.436      8.157
REMARK  Name = 
REMARK  12 active torsions:
REMARK  status: ('A' for Active; 'I' for Inactive)
REMARK    1  A    between atoms: C_1  and  N_2
REMARK    2  A    between atoms: C_4  and  C_5
REMARK    3  A    between atoms: C_12  and  C_13
REMARK    4  A    between atoms: C_20  and  C_21
REMARK    5  A    between atoms: C_21  and  N_22
REMARK    6  A    between atoms: C_23  and  C_25
REMARK    7  A    between atoms: C_25  and  C_26
REMARK    8  A    between atoms: C_26  and  C_27
REMARK    9  A    between atoms: C_26  and  C_28
REMARK   10  A    between atoms: C_26  and  C_29
REMARK   11  A    between atoms: C_29  and  C_30
REMARK   12  A    between atoms: C_30  and  O_32
REMARK                            x       y       z     vdW  Elec       q    Type
REMARK                         _______ _______ _______ _____ _____    ______ ____
ROOT
ATOM      1  C   UNL     1       4.791   3.792  18.196  0.00  0.00    +0.000 C 
ATOM      2  C   UNL     1       4.738   4.979  19.196  0.00  0.00    +0.000 C 
ATOM      3  N   UNL     1       3.404   5.142  19.827  0.00  0.00    +0.000 NA
ATOM      4  C   UNL     1       3.026   3.872  20.483  0.00  0.00    +0.000 C 
ATOM      5  C   UNL     1       2.918   2.723  19.470  0.00  0.00    +0.000 C 
ATOM      6  C   UNL     1       3.346   3.222  18.074  0.00  0.00    +0.000 C 
ATOM      7  C   UNL     1       2.353   4.343  17.704  0.00  0.00    +0.000 C 
ATOM      8  C   UNL     1       2.394   5.457  18.775  0.00  0.00    +0.000 C 
ENDROOT
BRANCH   1  14
ATOM      9  C   UNL     1       7.783   4.649  17.727  0.00  0.00    +0.000 C 
ATOM     10  N   UNL     1       6.771   4.470  16.711  0.00  0.00    +0.000 N 
ATOM     11  N   UNL     1       7.132   4.673  15.430  0.00  0.00    +0.000 NA
ATOM     12  C   UNL     1       6.005   4.525  14.733  0.00  0.00    +0.000 A 
ATOM     13  C   UNL     1       4.936   4.149  15.579  0.00  0.00    +0.000 A 
ATOM     14  C   UNL     1       5.442   4.132  16.867  0.00  0.00    +0.000 A 
BRANCH  12  15
ATOM     15  C   UNL     1       5.945   4.781  13.248  0.00  0.00    +0.000 C 
ATOM     16  C   UNL     1       7.332   4.727  12.575  0.00  0.00    +0.000 C 
ATOM     17  C   UNL     1       7.767   3.327  12.142  0.00  0.00    +0.000 C 
ATOM     18  C   UNL     1       6.700   2.650  11.297  0.00  0.00    +0.000 C 
ATOM     19  C   UNL     1       5.386   2.555  12.063  0.00  0.00    +0.000 C 
ATOM     20  C   UNL     1       4.893   3.928  12.518  0.00  0.00    +0.000 C 
ENDBRANCH  12  15
ENDBRANCH   1  14
BRANCH   8  21
ATOM     21  C   UNL     1       2.598   6.831  18.103  0.00  0.00    +0.000 C 
BRANCH  21  22
ATOM     22  N   UNL     1       1.500   7.749  18.317  0.00  0.00    +0.000 N 
ATOM     23  C   UNL     1       1.607   9.071  17.973  0.00  0.00    +0.000 C 
ATOM     24  O   UNL     1       2.635   9.573  17.527  0.00  0.00    +0.000 OA
ATOM     25  H   UNL     1       0.647   7.405  18.760  0.00  0.00    +0.000 HD
BRANCH  23  26
ATOM     26  C   UNL     1       0.328   9.873  18.095  0.00  0.00    +0.000 C 
BRANCH  26  27
ATOM     27  C   UNL     1       0.099  10.449  19.519  0.00  0.00    +0.000 C 
ATOM     28  C   UNL     1       1.343  11.269  19.910  0.00  0.00    +0.000 C 
ATOM     29  C   UNL     1      -1.111  11.412  19.507  0.00  0.00    +0.000 C 
BRANCH  27  30
ATOM     30  C   UNL     1      -0.179   9.371  20.598  0.00  0.00    +0.000 C 
BRANCH  30  31
ATOM     31  C   UNL     1       0.920   9.205  21.624  0.00  0.00    +0.000 C 
ATOM     32  O   UNL     1       1.019   9.894  22.629  0.00  0.00    +0.000 OA
BRANCH  31  33
ATOM     33  O   UNL     1       1.802   8.226  21.329  0.00  0.00    +0.000 OA
ATOM     34  H   UNL     1       1.457   7.521  20.748  0.00  0.00    +0.000 HD
ENDBRANCH  31  33
ENDBRANCH  30  31
ENDBRANCH  27  30
ENDBRANCH  26  27
ENDBRANCH  23  26
ENDBRANCH  21  22
ENDBRANCH   8  21
TORSDOF 9
ENDMDL
MODEL 3
REMARK VINA RESULT:      -7.6      4.300      8.631
REMARK  Name = 
REMARK  12 active torsions:
REMARK  status: ('A' for Active; 'I' for Inactive)
REMARK    1  A    between atoms: C_1  and  N_2
REMARK    2  A    between atoms: C_4  and  C_5
REMARK    3  A    between atoms: C_12  and  C_13
REMARK    4  A    between atoms: C_20  and  C_21
REMARK    5  A    between atoms: C_21  and  N_22
REMARK    6  A    between atoms: C_23  and  C_25
REMARK    7  A    between atoms: C_25  and  C_26
REMARK    8  A    between atoms: C_26  and  C_27
REMARK    9  A    between atoms: C_26  and  C_28
REMARK   10  A    between atoms: C_26  and  C_29
REMARK   11  A    between atoms: C_29  and  C_30
REMARK   12  A    between atoms: C_30  and  O_32
REMARK                            x       y       z     vdW  Elec       q    Type
REMARK                         _______ _______ _______ _____ _____    ______ ____
ROOT
ATOM      1  C   UNL     1       9.994  13.213  19.819  0.00  0.00    +0.000 C 
ATOM      2  C   UNL     1      10.797  11.887  19.890  0.00  0.00    +0.000 C 
ATOM      3  N   UNL     1      11.016  11.273  18.555  0.00  0.00    +0.000 NA
ATOM      4  C   UNL     1      11.685  12.260  17.679  0.00  0.00    +0.000 C 
ATOM      5  C   UNL     1      10.819  13.512  17.474  0.00  0.00    +0.000 C 
ATOM      6  C   UNL     1       9.546  13.409  18.340  0.00  0.00    +0.000 C 
ATOM      7  C   UNL     1       8.793  12.161  17.835  0.00  0.00    +0.000 C 
ATOM      8  C   UNL     1       9.699  10.914  17.954  0.00  0.00    +0.000 C 
ENDROOT
BRANCH   1  14
ATOM      9  C   UNL     1       8.024  15.634  20.230  0.00  0.00    +0.000 C 
ATOM     10  N   UNL     1       8.005  14.379  20.947  0.00  0.00    +0.000 N 
ATOM     11  N   UNL     1       7.046  14.208  21.877  0.00  0.00    +0.000 NA
ATOM     12  C   UNL     1       7.315  13.024  22.427  0.00  0.00    +0.000 A 
ATOM     13  C   UNL     1       8.412  12.408  21.781  0.00  0.00    +0.000 A 
ATOM     14  C   UNL     1       8.864  13.306  20.830  0.00  0.00    +0.000 A 
BRANCH  12  15
ATOM     15  C   UNL     1       6.535  12.494  23.604  0.00  0.00    +0.000 C 
ATOM     16  C   UNL     1       7.392  11.627  24.548  0.00  0.00    +0.000 C 
ATOM     17  C   UNL     1       8.142  12.417  25.620  0.00  0.00    +0.000 C 
ATOM     18  C   UNL     1       7.207  13.337  26.388  0.00  0.00    +0.000 C 
ATOM     19  C   UNL     1       6.510  14.308  25.443  0.00  0.00    +0.000 C 
ATOM     20  C   UNL     1       5.734  13.577  24.349  0.00  0.00    +0.000 C 
ENDBRANCH  12  15
ENDBRANCH   1  14
BRANCH   8  21
ATOM     21  C   UNL     1       8.955   9.788  18.704  0.00  0.00    +0.000 C 
BRANCH  21  22
ATOM     22  N   UNL     1       7.965   9.111  17.894  0.00  0.00    +0.000 N 
ATOM     23  C   UNL     1       7.761   7.761  18.012  0.00  0.00    +0.000 C 
ATOM     24  O   UNL     1       8.426   7.038  18.750  0.00  0.00    +0.000 OA
ATOM     25  H   UNL     1       7.437   9.648  17.205  0.00  0.00    +0.000 HD
BRANCH  23  26
ATOM     26  C   UNL     1       6.583   7.218  17.231  0.00  0.00    +0.000 C 
BRANCH  26  27
ATOM     27  C   UNL     1       6.250   5.740  17.572  0.00  0.00    +0.000 C 
ATOM     28  C   UNL     1       5.218   5.232  16.546  0.00  0.00    +0.000 C 
ATOM     29  C   UNL     1       7.519   4.868  17.430  0.00  0.00    +0.000 C 
BRANCH  27  30
ATOM     30  C   UNL     1       5.705   5.532  19.009  0.00  0.00    +0.000 C 
BRANCH  30  31
ATOM     31  C   UNL     1       4.789   4.340  19.173  0.00  0.00    +0.000 C 
ATOM     32  O   UNL     1       3.569   4.416  19.168  0.00  0.00    +0.000 OA
BRANCH  31  33
ATOM     33  O   UNL     1       5.439   3.167  19.339  0.00  0.00    +0.000 OA
ATOM     34  H   UNL     1       6.190   3.023  18.734  0.00  0.00    +0.000 HD
ENDBRANCH  31  33
ENDBRANCH  30  31
ENDBRANCH  27  30
ENDBRANCH  26  27
ENDBRANCH  23  26
ENDBRANCH  21  22
ENDBRANCH   8  21
TORSDOF 9
ENDMDL
MODEL 4
REMARK VINA RESULT:      -7.5      4.422      8.259
REMARK  Name = 
REMARK  12 active torsions:
REMARK  status: ('A' for Active; 'I' for Inactive)
REMARK    1  A    between atoms: C_1  and  N_2
REMARK    2  A    between atoms: C_4  and  C_5
REMARK    3  A    between atoms: C_12  and  C_13
REMARK    4  A    between atoms: C_20  and  C_21
REMARK    5  A    between atoms: C_21  and  N_22
REMARK    6  A    between atoms: C_23  and  C_25
REMARK    7  A    between atoms: C_25  and  C_26
REMARK    8  A    between atoms: C_26  and  C_27
REMARK    9  A    between atoms: C_26  and  C_28
REMARK   10  A    between atoms: C_26  and  C_29
REMARK   11  A    between atoms: C_29  and  C_30
REMARK   12  A    between atoms: C_30  and  O_32
REMARK                            x       y       z     vdW  Elec       q    Type
REMARK                         _______ _______ _______ _____ _____    ______ ____
ROOT
ATOM      1  C   UNL     1       4.785   3.688  18.126  0.00  0.00    +0.000 C 
ATOM      2  C   UNL     1       4.773   4.859  19.146  0.00  0.00    +0.000 C 
ATOM      3  N   UNL     1       3.450   5.046  19.794  0.00  0.00    +0.000 NA
ATOM      4  C   UNL     1       3.046   3.774  20.432  0.00  0.00    +0.000 C 
ATOM      5  C   UNL     1       2.897   2.646  19.401  0.00  0.00    +0.000 C 
ATOM      6  C   UNL     1       3.325   3.158  18.009  0.00  0.00    +0.000 C 
ATOM      7  C   UNL     1       2.357   4.310  17.669  0.00  0.00    +0.000 C 
ATOM      8  C   UNL     1       2.438   5.404  18.758  0.00  0.00    +0.000 C 
ENDROOT
BRANCH   1  14
ATOM      9  C   UNL     1       7.761   4.599  17.656  0.00  0.00    +0.000 C 
ATOM     10  N   UNL     1       6.754   4.396  16.640  0.00  0.00    +0.000 N 
ATOM     11  N   UNL     1       7.113   4.599  15.358  0.00  0.00    +0.000 NA
ATOM     12  C   UNL     1       5.990   4.427  14.661  0.00  0.00    +0.000 A 
ATOM     13  C   UNL     1       4.927   4.035  15.507  0.00  0.00    +0.000 A 
ATOM     14  C   UNL     1       5.431   4.033  16.796  0.00  0.00    +0.000 A 
BRANCH  12  15
ATOM     15  C   UNL     1       5.927   4.675  13.174  0.00  0.00    +0.000 C 
ATOM     16  C   UNL     1       7.315   4.640  12.503  0.00  0.00    +0.000 C 
ATOM     17  C   UNL     1       7.774   3.245  12.078  0.00  0.00    +0.000 C 
ATOM     18  C   UNL     1       6.719   2.547  11.235  0.00  0.00    +0.000 C 
ATOM     19  C   UNL     1       5.406   2.433  12.000  0.00  0.00    +0.000 C 
ATOM     20  C   UNL     1       4.890   3.800  12.447  0.00  0.00    +0.000 C 
ENDBRANCH  12  15
ENDBRANCH   1  14
BRANCH   8  21
ATOM     21  C   UNL     1       2.671   6.784  18.106  0.00  0.00    +0.000 C 
BRANCH  21  22
ATOM     22  N   UNL     1       1.575   7.709  18.302  0.00  0.00    +0.000 N 
ATOM     23  C   UNL     1       1.671   9.014  17.896  0.00  0.00    +0.000 C 
ATOM     24  O   UNL     1       2.688   9.497  17.405  0.00  0.00    +0.000 OA
ATOM     25  H   UNL     1       0.732   7.384  18.778  0.00  0.00    +0.000 HD
BRANCH  23  26
ATOM     26  C   UNL     1       0.393   9.818  18.008  0.00  0.00    +0.000 C 
BRANCH  26  27
ATOM     27  C   UNL     1       0.393  10.804  19.209  0.00  0.00    +0.000 C 
ATOM     28  C   UNL     1       0.730  10.007  20.483  0.00  0.00    +0.000 C 
ATOM     29  C   UNL     1       1.498  11.868  19.016  0.00  0.00    +0.000 C 
BRANCH  27  30
ATOM     30  C   UNL     1      -0.947  11.560  19.403  0.00  0.00    +0.000 C 
BRANCH  30  31
ATOM     31  C   UNL     1      -1.786  11.692  18.150  0.00  0.00    +0.000 C 
ATOM     32  O   UNL     1      -2.774  11.010  17.920  0.00  0.00    +0.000 OA
BRANCH  31  33
ATOM     33  O   UNL     1      -1.341  12.633  17.289  0.00  0.00    +0.000 OA
ATOM     34  H   UNL     1      -0.794  13.334  17.691  0.00  0.00    +0.000 HD
ENDBRANCH  31  33
ENDBRANCH  30  31
ENDBRANCH  27  30
ENDBRANCH  26  27
ENDBRANCH  23  26
ENDBRANCH  21  22
ENDBRANCH   8  21
TORSDOF 9
ENDMDL
MODEL 5
REMARK VINA RESULT:      -7.5      0.771      1.178
REMARK  Name = 
REMARK  12 active torsions:
REMARK  status: ('A' for Active; 'I' for Inactive)
REMARK    1  A    between atoms: C_1  and  N_2
REMARK    2  A    between atoms: C_4  and  C_5
REMARK    3  A    between atoms: C_12  and  C_13
REMARK    4  A    between atoms: C_20  and  C_21
REMARK    5  A    between atoms: C_21  and  N_22
REMARK    6  A    between atoms: C_23  and  C_25
REMARK    7  A    between atoms: C_25  and  C_26
REMARK    8  A    between atoms: C_26  and  C_27
REMARK    9  A    between atoms: C_26  and  C_28
REMARK   10  A    between atoms: C_26  and  C_29
REMARK   11  A    between atoms: C_29  and  C_30
REMARK   12  A    between atoms: C_30  and  O_32
REMARK                            x       y       z     vdW  Elec       q    Type
REMARK                         _______ _______ _______ _____ _____    ______ ____
ROOT
ATOM      1  C   UNL     1       4.453   5.840  17.089  0.00  0.00    +0.000 C 
ATOM      2  C   UNL     1       5.262   6.517  15.950  0.00  0.00    +0.000 C 
ATOM      3  N   UNL     1       6.707   6.175  15.987  0.00  0.00    +0.000 NA
ATOM      4  C   UNL     1       6.852   4.704  15.946  0.00  0.00    +0.000 C 
ATOM      5  C   UNL     1       6.190   4.037  17.161  0.00  0.00    +0.000 C 
ATOM      6  C   UNL     1       5.472   5.106  18.011  0.00  0.00    +0.000 C 
ATOM      7  C   UNL     1       6.572   6.079  18.482  0.00  0.00    +0.000 C 
ATOM      8  C   UNL     1       7.302   6.680  17.259  0.00  0.00    +0.000 C 
ENDROOT
BRANCH   1  14
ATOM      9  C   UNL     1       2.319   5.055  19.265  0.00  0.00    +0.000 C 
ATOM     10  N   UNL     1       2.616   6.388  18.795  0.00  0.00    +0.000 N 
ATOM     11  N   UNL     1       1.930   7.409  19.343  0.00  0.00    +0.000 NA
ATOM     12  C   UNL     1       2.337   8.488  18.676  0.00  0.00    +0.000 A 
ATOM     13  C   UNL     1       3.351   8.153  17.748  0.00  0.00    +0.000 A 
ATOM     14  C   UNL     1       3.513   6.780  17.822  0.00  0.00    +0.000 A 
BRANCH  12  15
ATOM     15  C   UNL     1       1.726   9.848  18.906  0.00  0.00    +0.000 C 
ATOM     16  C   UNL     1       0.786  10.282  17.764  0.00  0.00    +0.000 C 
ATOM     17  C   UNL     1      -0.656   9.798  17.917  0.00  0.00    +0.000 C 
ATOM     18  C   UNL     1      -1.220  10.156  19.283  0.00  0.00    +0.000 C 
ATOM     19  C   UNL     1      -0.366   9.555  20.393  0.00  0.00    +0.000 C 
ATOM     20  C   UNL     1       1.090  10.009  20.298  0.00  0.00    +0.000 C 
ENDBRANCH  12  15
ENDBRANCH   1  14
BRANCH   8  21
ATOM     21  C   UNL     1       7.337   8.220  17.366  0.00  0.00    +0.000 C 
BRANCH  21  22
ATOM     22  N   UNL     1       8.371   8.715  18.248  0.00  0.00    +0.000 N 
ATOM     23  C   UNL     1       8.635  10.056  18.344  0.00  0.00    +0.000 C 
ATOM     24  O   UNL     1       8.070  10.907  17.662  0.00  0.00    +0.000 OA
ATOM     25  H   UNL     1       8.930   8.047  18.781  0.00  0.00    +0.000 HD
BRANCH  23  26
ATOM     26  C   UNL     1       9.621  10.442  19.426  0.00  0.00    +0.000 C 
BRANCH  26  27
ATOM     27  C   UNL     1      10.443  11.715  19.082  0.00  0.00    +0.000 C 
ATOM     28  C   UNL     1       9.617  12.946  19.500  0.00  0.00    +0.000 C 
ATOM     29  C   UNL     1      11.754  11.731  19.901  0.00  0.00    +0.000 C 
BRANCH  27  30
ATOM     30  C   UNL     1      10.832  11.827  17.585  0.00  0.00    +0.000 C 
BRANCH  30  31
ATOM     31  C   UNL     1      11.641  13.056  17.232  0.00  0.00    +0.000 C 
ATOM     32  O   UNL     1      11.690  14.059  17.929  0.00  0.00    +0.000 OA
BRANCH  31  33
ATOM     33  O   UNL     1      12.306  12.957  16.061  0.00  0.00    +0.000 OA
ATOM     34  H   UNL     1      13.230  12.650  16.136  0.00  0.00    +0.000 HD
ENDBRANCH  31  33
ENDBRANCH  30  31
ENDBRANCH  27  30
ENDBRANCH  26  27
ENDBRANCH  23  26
ENDBRANCH  21  22
ENDBRANCH   8  21
TORSDOF 9
ENDMDL
MODEL 6
REMARK VINA RESULT:      -7.2      4.694      8.387
REMARK  Name = 
REMARK  12 active torsions:
REMARK  status: ('A' for Active; 'I' for Inactive)
REMARK    1  A    between atoms: C_1  and  N_2
REMARK    2  A    between atoms: C_4  and  C_5
REMARK    3  A    between atoms: C_12  and  C_13
REMARK    4  A    between atoms: C_20  and  C_21
REMARK    5  A    between atoms: C_21  and  N_22
REMARK    6  A    between atoms: C_23  and  C_25
REMARK    7  A    between atoms: C_25  and  C_26
REMARK    8  A    between atoms: C_26  and  C_27
REMARK    9  A    between atoms: C_26  and  C_28
REMARK   10  A    between atoms: C_26  and  C_29
REMARK   11  A    between atoms: C_29  and  C_30
REMARK   12  A    between atoms: C_30  and  O_32
REMARK                            x       y       z     vdW  Elec       q    Type
REMARK                         _______ _______ _______ _____ _____    ______ ____
ROOT
ATOM      1  C   UNL     1       4.759   3.782  18.151  0.00  0.00    +0.000 C 
ATOM      2  C   UNL     1       4.702   4.989  19.125  0.00  0.00    +0.000 C 
ATOM      3  N   UNL     1       3.367   5.162  19.753  0.00  0.00    +0.000 NA
ATOM      4  C   UNL     1       2.994   3.904  20.436  0.00  0.00    +0.000 C 
ATOM      5  C   UNL     1       2.890   2.733  19.447  0.00  0.00    +0.000 C 
ATOM      6  C   UNL     1       3.316   3.204  18.041  0.00  0.00    +0.000 C 
ATOM      7  C   UNL     1       2.319   4.313  17.648  0.00  0.00    +0.000 C 
ATOM      8  C   UNL     1       2.356   5.450  18.695  0.00  0.00    +0.000 C 
ENDROOT
BRANCH   1  14
ATOM      9  C   UNL     1       7.760   4.593  17.658  0.00  0.00    +0.000 C 
ATOM     10  N   UNL     1       6.742   4.414  16.649  0.00  0.00    +0.000 N 
ATOM     11  N   UNL     1       7.100   4.595  15.364  0.00  0.00    +0.000 NA
ATOM     12  C   UNL     1       5.968   4.453  14.673  0.00  0.00    +0.000 A 
ATOM     13  C   UNL     1       4.898   4.102  15.529  0.00  0.00    +0.000 A 
ATOM     14  C   UNL     1       5.409   4.095  16.815  0.00  0.00    +0.000 A 
BRANCH  12  15
ATOM     15  C   UNL     1       5.905   4.690  13.185  0.00  0.00    +0.000 C 
ATOM     16  C   UNL     1       7.294   4.667  12.517  0.00  0.00    +0.000 C 
ATOM     17  C   UNL     1       7.770   3.275  12.102  0.00  0.00    +0.000 C 
ATOM     18  C   UNL     1       6.725   2.559  11.262  0.00  0.00    +0.000 C 
ATOM     19  C   UNL     1       5.412   2.435  12.025  0.00  0.00    +0.000 C 
ATOM     20  C   UNL     1       4.879   3.799  12.463  0.00  0.00    +0.000 C 
ENDBRANCH  12  15
ENDBRANCH   1  14
BRANCH   8  21
ATOM     21  C   UNL     1       2.556   6.810  17.993  0.00  0.00    +0.000 C 
BRANCH  21  22
ATOM     22  N   UNL     1       2.394   7.945  18.876  0.00  0.00    +0.000 N 
ATOM     23  C   UNL     1       1.732   9.072  18.465  0.00  0.00    +0.000 C 
ATOM     24  O   UNL     1       1.292   9.220  17.327  0.00  0.00    +0.000 OA
ATOM     25  H   UNL     1       2.810   7.911  19.808  0.00  0.00    +0.000 HD
BRANCH  23  26
ATOM     26  C   UNL     1       1.491  10.107  19.543  0.00  0.00    +0.000 C 
BRANCH  26  27
ATOM     27  C   UNL     1       0.147   9.908  20.296  0.00  0.00    +0.000 C 
ATOM     28  C   UNL     1      -1.001  10.201  19.311  0.00  0.00    +0.000 C 
ATOM     29  C   UNL     1       0.012   8.436  20.748  0.00  0.00    +0.000 C 
BRANCH  27  30
ATOM     30  C   UNL     1      -0.005  10.796  21.558  0.00  0.00    +0.000 C 
BRANCH  30  31
ATOM     31  C   UNL     1      -0.007  10.038  22.868  0.00  0.00    +0.000 C 
ATOM     32  O   UNL     1       1.006   9.642  23.424  0.00  0.00    +0.000 OA
BRANCH  31  33
ATOM     33  O   UNL     1      -1.241   9.821  23.374  0.00  0.00    +0.000 OA
ATOM     34  H   UNL     1      -1.670  10.606  23.765  0.00  0.00    +0.000 HD
ENDBRANCH  31  33
ENDBRANCH  30  31
ENDBRANCH  27  30
ENDBRANCH  26  27
ENDBRANCH  23  26
ENDBRANCH  21  22
ENDBRANCH   8  21
TORSDOF 9
ENDMDL
MODEL 7
REMARK VINA RESULT:      -7.2      1.171      1.491
REMARK  Name = 
REMARK  12 active torsions:
REMARK  status: ('A' for Active; 'I' for Inactive)
REMARK    1  A    between atoms: C_1  and  N_2
REMARK    2  A    between atoms: C_4  and  C_5
REMARK    3  A    between atoms: C_12  and  C_13
REMARK    4  A    between atoms: C_20  and  C_21
REMARK    5  A    between atoms: C_21  and  N_22
REMARK    6  A    between atoms: C_23  and  C_25
REMARK    7  A    between atoms: C_25  and  C_26
REMARK    8  A    between atoms: C_26  and  C_27
REMARK    9  A    between atoms: C_26  and  C_28
REMARK   10  A    between atoms: C_26  and  C_29
REMARK   11  A    between atoms: C_29  and  C_30
REMARK   12  A    between atoms: C_30  and  O_32
REMARK                            x       y       z     vdW  Elec       q    Type
REMARK                         _______ _______ _______ _____ _____    ______ ____
ROOT
ATOM      1  C   UNL     1       4.230   5.782  17.202  0.00  0.00    +0.000 C 
ATOM      2  C   UNL     1       5.003   6.393  16.003  0.00  0.00    +0.000 C 
ATOM      3  N   UNL     1       6.431   5.982  15.967  0.00  0.00    +0.000 NA
ATOM      4  C   UNL     1       6.503   4.505  15.956  0.00  0.00    +0.000 C 
ATOM      5  C   UNL     1       5.881   3.899  17.223  0.00  0.00    +0.000 C 
ATOM      6  C   UNL     1       5.264   5.021  18.084  0.00  0.00    +0.000 C 
ATOM      7  C   UNL     1       6.435   5.950  18.467  0.00  0.00    +0.000 C 
ATOM      8  C   UNL     1       7.121   6.486  17.190  0.00  0.00    +0.000 C 
ENDROOT
BRANCH   1  14
ATOM      9  C   UNL     1       2.527   5.227  19.790  0.00  0.00    +0.000 C 
ATOM     10  N   UNL     1       2.676   6.496  19.116  0.00  0.00    +0.000 N 
ATOM     11  N   UNL     1       2.040   7.560  19.642  0.00  0.00    +0.000 NA
ATOM     12  C   UNL     1       2.278   8.554  18.787  0.00  0.00    +0.000 A 
ATOM     13  C   UNL     1       3.139   8.129  17.749  0.00  0.00    +0.000 A 
ATOM     14  C   UNL     1       3.379   6.783  17.963  0.00  0.00    +0.000 A 
BRANCH  12  15
ATOM     15  C   UNL     1       1.647   9.915  18.948  0.00  0.00    +0.000 C 
ATOM     16  C   UNL     1       0.753  10.305  17.754  0.00  0.00    +0.000 C 
ATOM     17  C   UNL     1      -0.690   9.813  17.860  0.00  0.00    +0.000 C 
ATOM     18  C   UNL     1      -1.314  10.207  19.189  0.00  0.00    +0.000 C 
ATOM     19  C   UNL     1      -0.505   9.649  20.352  0.00  0.00    +0.000 C 
ATOM     20  C   UNL     1       0.950  10.113  20.306  0.00  0.00    +0.000 C 
ENDBRANCH  12  15
ENDBRANCH   1  14
BRANCH   8  21
ATOM     21  C   UNL     1       7.234   8.025  17.255  0.00  0.00    +0.000 C 
BRANCH  21  22
ATOM     22  N   UNL     1       8.234   8.492  18.191  0.00  0.00    +0.000 N 
ATOM     23  C   UNL     1       8.546   9.822  18.284  0.00  0.00    +0.000 C 
ATOM     24  O   UNL     1       8.058  10.685  17.559  0.00  0.00    +0.000 OA
ATOM     25  H   UNL     1       8.733   7.810  18.764  0.00  0.00    +0.000 HD
BRANCH  23  26
ATOM     26  C   UNL     1       9.482  10.186  19.418  0.00  0.00    +0.000 C 
BRANCH  26  27
ATOM     27  C   UNL     1      10.161  11.570  19.233  0.00  0.00    +0.000 C 
ATOM     28  C   UNL     1      11.141  11.469  18.048  0.00  0.00    +0.000 C 
ATOM     29  C   UNL     1       9.097  12.633  18.872  0.00  0.00    +0.000 C 
BRANCH  27  30
ATOM     30  C   UNL     1      10.911  12.077  20.492  0.00  0.00    +0.000 C 
BRANCH  30  31
ATOM     31  C   UNL     1      10.028  12.717  21.540  0.00  0.00    +0.000 C 
ATOM     32  O   UNL     1       9.967  13.922  21.733  0.00  0.00    +0.000 OA
BRANCH  31  33
ATOM     33  O   UNL     1       9.309  11.832  22.265  0.00  0.00    +0.000 OA
ATOM     34  H   UNL     1       8.571  12.219  22.774  0.00  0.00    +0.000 HD
ENDBRANCH  31  33
ENDBRANCH  30  31
ENDBRANCH  27  30
ENDBRANCH  26  27
ENDBRANCH  23  26
ENDBRANCH  21  22
ENDBRANCH   8  21
TORSDOF 9
ENDMDL
MODEL 8
REMARK VINA RESULT:      -7.2      4.325      7.885
REMARK  Name = 
REMARK  12 active torsions:
REMARK  status: ('A' for Active; 'I' for Inactive)
REMARK    1  A    between atoms: C_1  and  N_2
REMARK    2  A    between atoms: C_4  and  C_5
REMARK    3  A    between atoms: C_12  and  C_13
REMARK    4  A    between atoms: C_20  and  C_21
REMARK    5  A    between atoms: C_21  and  N_22
REMARK    6  A    between atoms: C_23  and  C_25
REMARK    7  A    between atoms: C_25  and  C_26
REMARK    8  A    between atoms: C_26  and  C_27
REMARK    9  A    between atoms: C_26  and  C_28
REMARK   10  A    between atoms: C_26  and  C_29
REMARK   11  A    between atoms: C_29  and  C_30
REMARK   12  A    between atoms: C_30  and  O_32
REMARK                            x       y       z     vdW  Elec       q    Type
REMARK                         _______ _______ _______ _____ _____    ______ ____
ROOT
ATOM      1  C   UNL     1       4.499   3.538  18.026  0.00  0.00    +0.000 C 
ATOM      2  C   UNL     1       4.617   4.639  19.113  0.00  0.00    +0.000 C 
ATOM      3  N   UNL     1       3.334   4.895  19.817  0.00  0.00    +0.000 NA
ATOM      4  C   UNL     1       2.842   3.624  20.391  0.00  0.00    +0.000 C 
ATOM      5  C   UNL     1       2.568   2.578  19.300  0.00  0.00    +0.000 C 
ATOM      6  C   UNL     1       2.997   3.138  17.927  0.00  0.00    +0.000 C 
ATOM      7  C   UNL     1       2.122   4.386  17.690  0.00  0.00    +0.000 C 
ATOM      8  C   UNL     1       2.326   5.400  18.839  0.00  0.00    +0.000 C 
ENDROOT
BRANCH   1  14
ATOM      9  C   UNL     1       7.423   4.610  17.567  0.00  0.00    +0.000 C 
ATOM     10  N   UNL     1       6.436   4.345  16.547  0.00  0.00    +0.000 N 
ATOM     11  N   UNL     1       6.791   4.560  15.266  0.00  0.00    +0.000 NA
ATOM     12  C   UNL     1       5.683   4.322  14.563  0.00  0.00    +0.000 A 
ATOM     13  C   UNL     1       4.639   3.876  15.406  0.00  0.00    +0.000 A 
ATOM     14  C   UNL     1       5.134   3.910  16.698  0.00  0.00    +0.000 A 
BRANCH  12  15
ATOM     15  C   UNL     1       5.616   4.556  13.074  0.00  0.00    +0.000 C 
ATOM     16  C   UNL     1       7.006   4.749  12.436  0.00  0.00    +0.000 C 
ATOM     17  C   UNL     1       7.697   3.449  12.027  0.00  0.00    +0.000 C 
ATOM     18  C   UNL     1       6.791   2.587  11.162  0.00  0.00    +0.000 C 
ATOM     19  C   UNL     1       5.497   2.260  11.896  0.00  0.00    +0.000 C 
ATOM     20  C   UNL     1       4.753   3.524  12.327  0.00  0.00    +0.000 C 
ENDBRANCH  12  15
ENDBRANCH   1  14
BRANCH   8  21
ATOM     21  C   UNL     1       2.657   6.794  18.263  0.00  0.00    +0.000 C 
BRANCH  21  22
ATOM     22  N   UNL     1       1.603   7.765  18.461  0.00  0.00    +0.000 N 
ATOM     23  C   UNL     1       1.663   9.001  17.872  0.00  0.00    +0.000 C 
ATOM     24  O   UNL     1       2.617   9.386  17.201  0.00  0.00    +0.000 OA
ATOM     25  H   UNL     1       0.822   7.531  19.075  0.00  0.00    +0.000 HD
BRANCH  23  26
ATOM     26  C   UNL     1       0.417   9.848  18.025  0.00  0.00    +0.000 C 
BRANCH  26  27
ATOM     27  C   UNL     1       0.379  10.647  19.357  0.00  0.00    +0.000 C 
ATOM     28  C   UNL     1      -0.952  11.422  19.413  0.00  0.00    +0.000 C 
ATOM     29  C   UNL     1       0.404   9.672  20.556  0.00  0.00    +0.000 C 
BRANCH  27  30
ATOM     30  C   UNL     1       1.565  11.630  19.536  0.00  0.00    +0.000 C 
BRANCH  30  31
ATOM     31  C   UNL     1       1.641  12.726  18.496  0.00  0.00    +0.000 C 
ATOM     32  O   UNL     1       1.029  13.781  18.576  0.00  0.00    +0.000 OA
BRANCH  31  33
ATOM     33  O   UNL     1       2.444  12.434  17.450  0.00  0.00    +0.000 OA
ATOM     34  H   UNL     1       2.187  11.642  16.941  0.00  0.00    +0.000 HD
ENDBRANCH  31  33
ENDBRANCH  30  31
ENDBRANCH  27  30
ENDBRANCH  26  27
ENDBRANCH  23  26
ENDBRANCH  21  22
ENDBRANCH   8  21
TORSDOF 9
ENDMDL
MODEL 9
REMARK VINA RESULT:      -7.2      4.612      8.301
REMARK  Name = 
REMARK  12 active torsions:
REMARK  status: ('A' for Active; 'I' for Inactive)
REMARK    1  A    between atoms: C_1  and  N_2
REMARK    2  A    between atoms: C_4  and  C_5
REMARK    3  A    between atoms: C_12  and  C_13
REMARK    4  A    between atoms: C_20  and  C_21
REMARK    5  A    between atoms: C_21  and  N_22
REMARK    6  A    between atoms: C_23  and  C_25
REMARK    7  A    between atoms: C_25  and  C_26
REMARK    8  A    between atoms: C_26  and  C_27
REMARK    9  A    between atoms: C_26  and  C_28
REMARK   10  A    between atoms: C_26  and  C_29
REMARK   11  A    between atoms: C_29  and  C_30
REMARK   12  A    between atoms: C_30  and  O_32
REMARK                            x       y       z     vdW  Elec       q    Type
REMARK                         _______ _______ _______ _____ _____    ______ ____
ROOT
ATOM      1  C   UNL     1       4.737   3.376  17.874  0.00  0.00    +0.000 C 
ATOM      2  C   UNL     1       4.734   4.488  18.958  0.00  0.00    +0.000 C 
ATOM      3  N   UNL     1       3.417   4.638  19.627  0.00  0.00    +0.000 NA
ATOM      4  C   UNL     1       3.019   3.332  20.197  0.00  0.00    +0.000 C 
ATOM      5  C   UNL     1       2.862   2.263  19.105  0.00  0.00    +0.000 C 
ATOM      6  C   UNL     1       3.277   2.852  17.740  0.00  0.00    +0.000 C 
ATOM      7  C   UNL     1       2.306   4.021  17.474  0.00  0.00    +0.000 C 
ATOM      8  C   UNL     1       2.396   5.053  18.621  0.00  0.00    +0.000 C 
ENDROOT
BRANCH   1  14
ATOM      9  C   UNL     1       7.588   4.651  17.479  0.00  0.00    +0.000 C 
ATOM     10  N   UNL     1       6.643   4.321  16.437  0.00  0.00    +0.000 N 
ATOM     11  N   UNL     1       7.009   4.564  15.165  0.00  0.00    +0.000 NA
ATOM     12  C   UNL     1       5.936   4.250  14.438  0.00  0.00    +0.000 A 
ATOM     13  C   UNL     1       4.908   3.730  15.258  0.00  0.00    +0.000 A 
ATOM     14  C   UNL     1       5.372   3.796  16.560  0.00  0.00    +0.000 A 
BRANCH  12  15
ATOM     15  C   UNL     1       5.885   4.483  12.949  0.00  0.00    +0.000 C 
ATOM     16  C   UNL     1       7.272   4.403  12.282  0.00  0.00    +0.000 C 
ATOM     17  C   UNL     1       7.693   2.991  11.873  0.00  0.00    +0.000 C 
ATOM     18  C   UNL     1       6.621   2.313  11.035  0.00  0.00    +0.000 C 
ATOM     19  C   UNL     1       5.304   2.245  11.797  0.00  0.00    +0.000 C 
ATOM     20  C   UNL     1       4.825   3.630  12.228  0.00  0.00    +0.000 C 
ENDBRANCH  12  15
ENDBRANCH   1  14
BRANCH   8  21
ATOM     21  C   UNL     1       2.623   6.467  18.046  0.00  0.00    +0.000 C 
BRANCH  21  22
ATOM     22  N   UNL     1       2.257   7.528  18.959  0.00  0.00    +0.000 N 
ATOM     23  C   UNL     1       1.969   8.787  18.500  0.00  0.00    +0.000 C 
ATOM     24  O   UNL     1       2.058   9.113  17.319  0.00  0.00    +0.000 OA
ATOM     25  H   UNL     1       2.245   7.337  19.962  0.00  0.00    +0.000 HD
BRANCH  23  26
ATOM     26  C   UNL     1       1.438   9.747  19.544  0.00  0.00    +0.000 C 
BRANCH  26  27
ATOM     27  C   UNL     1       0.208  10.562  19.058  0.00  0.00    +0.000 C 
ATOM     28  C   UNL     1       0.714  11.909  18.506  0.00  0.00    +0.000 C 
ATOM     29  C   UNL     1      -0.493   9.816  17.899  0.00  0.00    +0.000 C 
BRANCH  27  30
ATOM     30  C   UNL     1      -0.856  10.812  20.158  0.00  0.00    +0.000 C 
BRANCH  30  31
ATOM     31  C   UNL     1      -0.324  10.777  21.573  0.00  0.00    +0.000 C 
ATOM     32  O   UNL     1      -0.453   9.820  22.323  0.00  0.00    +0.000 OA
BRANCH  31  33
ATOM     33  O   UNL     1       0.305  11.911  21.951  0.00  0.00    +0.000 OA
ATOM     34  H   UNL     1      -0.282  12.616  22.284  0.00  0.00    +0.000 HD
ENDBRANCH  31  33
ENDBRANCH  30  31
ENDBRANCH  27  30
ENDBRANCH  26  27
ENDBRANCH  23  26
ENDBRANCH  21  22
ENDBRANCH   8  21
TORSDOF 9
ENDMDL
