MODEL 1
REMARK VINA RESULT:      -7.6      0.000      0.000
REMARK  Name = 
REMARK  8 active torsions:
REMARK  status: ('A' for Active; 'I' for Inactive)
REMARK    1  A    between atoms: C_1  and  C_2
REMARK    2  A    between atoms: C_2  and  C_3
REMARK    3  A    between atoms: N_7  and  C_8
REMARK    4  A    between atoms: C_11  and  O_12
REMARK    5  A    between atoms: O_12  and  C_13
REMARK    6  A    between atoms: C_16  and  C_17
REMARK    7  A    between atoms: C_18  and  O_19
REMARK    8  A    between atoms: O_19  and  C_20
REMARK                            x       y       z     vdW  Elec       q    Type
REMARK                         _______ _______ _______ _____ _____    ______ ____
ROOT
ATOM      1  C   UNL     1       2.330   6.725  19.347  0.00  0.00    +0.000 A 
ATOM      2  C   UNL     1       2.429   7.331  18.086  0.00  0.00    +0.000 A 
ATOM      3  C   UNL     1       1.959   8.632  17.883  0.00  0.00    +0.000 A 
ATOM      4  C   UNL     1       1.406   9.302  18.959  0.00  0.00    +0.000 A 
ATOM      5  N   UNL     1       1.326   8.769  20.197  0.00  0.00    +0.000 NA
ATOM      6  C   UNL     1       1.759   7.497  20.356  0.00  0.00    +0.000 A 
ENDROOT
BRANCH   1  11
ATOM      7  C   UNL     1       2.905   3.109  20.142  0.00  0.00    +0.000 C 
ATOM      8  N   UNL     1       4.180   3.672  19.805  0.00  0.00    +0.000 N 
ATOM      9  C   UNL     1       4.087   4.986  19.415  0.00  0.00    +0.000 C 
ATOM     10  O   UNL     1       5.069   5.608  19.036  0.00  0.00    +0.000 OA
ATOM     11  N   UNL     1       2.793   5.407  19.587  0.00  0.00    +0.000 N 
ATOM     12  C   UNL     1       2.032   4.364  20.084  0.00  0.00    +0.000 C 
ATOM     13  O   UNL     1       0.840   4.363  20.367  0.00  0.00    +0.000 OA
ATOM     14  H   UNL     1       5.068   3.187  19.789  0.00  0.00    +0.000 HD
BRANCH   7  16
ATOM     15  C   UNL     1       3.605   1.518  18.299  0.00  0.00    +0.000 C 
ATOM     16  C   UNL     1       2.449   2.084  19.109  0.00  0.00    +0.000 C 
ENDBRANCH   7  16
ENDBRANCH   1  11
BRANCH   4  17
ATOM     17  O   UNL     1       0.921  10.583  18.740  0.00  0.00    +0.000 OA
BRANCH  17  18
ATOM     18  C   UNL     1      -0.437  10.719  18.550  0.00  0.00    +0.000 A 
ATOM     19  C   UNL     1      -1.152  10.023  17.583  0.00  0.00    +0.000 A 
ATOM     20  C   UNL     1      -2.518  10.244  17.435  0.00  0.00    +0.000 A 
ATOM     21  C   UNL     1      -3.202  11.201  18.212  0.00  0.00    +0.000 A 
ATOM     22  C   UNL     1      -4.659  11.374  17.891  0.00  0.00    +0.000 C 
ATOM     23  C   UNL     1      -2.477  11.915  19.184  0.00  0.00    +0.000 A 
ATOM     24  C   UNL     1      -1.098  11.664  19.333  0.00  0.00    +0.000 A 
BRANCH  23  25
ATOM     25  O   UNL     1      -2.897  12.876  20.061  0.00  0.00    +0.000 OA
ATOM     26  C   UNL     1      -2.456  12.879  21.405  0.00  0.00    +0.000 C 
ENDBRANCH  23  25
ENDBRANCH  17  18
ENDBRANCH   4  17
TORSDOF 5
ENDMDL
MODEL 2
REMARK VINA RESULT:      -7.4      1.101      1.735
REMARK  Name = 
REMARK  8 active torsions:
REMARK  status: ('A' for Active; 'I' for Inactive)
REMARK    1  A    between atoms: C_1  and  C_2
REMARK    2  A    between atoms: C_2  and  C_3
REMARK    3  A    between atoms: N_7  and  C_8
REMARK    4  A    between atoms: C_11  and  O_12
REMARK    5  A    between atoms: O_12  and  C_13
REMARK    6  A    between atoms: C_16  and  C_17
REMARK    7  A    between atoms: C_18  and  O_19
REMARK    8  A    between atoms: O_19  and  C_20
REMARK                            x       y       z     vdW  Elec       q    Type
REMARK                         _______ _______ _______ _____ _____    ______ ____
ROOT
ATOM      1  C   UNL     1       2.549   6.604  18.764  0.00  0.00    +0.000 A 
ATOM      2  C   UNL     1       2.684   7.535  17.724  0.00  0.00    +0.000 A 
ATOM      3  C   UNL     1       2.209   8.842  17.872  0.00  0.00    +0.000 A 
ATOM      4  C   UNL     1       1.613   9.188  19.071  0.00  0.00    +0.000 A 
ATOM      5  N   UNL     1       1.497   8.333  20.110  0.00  0.00    +0.000 NA
ATOM      6  C   UNL     1       1.937   7.067  19.927  0.00  0.00    +0.000 A 
ENDROOT
BRANCH   1  11
ATOM      7  C   UNL     1       4.320   3.303  18.812  0.00  0.00    +0.000 C 
ATOM      8  N   UNL     1       3.122   3.125  18.045  0.00  0.00    +0.000 N 
ATOM      9  C   UNL     1       2.341   4.254  18.021  0.00  0.00    +0.000 C 
ATOM     10  O   UNL     1       1.255   4.265  17.461  0.00  0.00    +0.000 OA
ATOM     11  N   UNL     1       3.017   5.271  18.647  0.00  0.00    +0.000 N 
ATOM     12  C   UNL     1       4.241   4.805  19.092  0.00  0.00    +0.000 C 
ATOM     13  O   UNL     1       5.116   5.421  19.688  0.00  0.00    +0.000 OA
ATOM     14  H   UNL     1       2.814   2.271  17.597  0.00  0.00    +0.000 HD
BRANCH   7  16
ATOM     15  C   UNL     1       2.948   2.628  20.831  0.00  0.00    +0.000 C 
ATOM     16  C   UNL     1       4.283   2.507  20.112  0.00  0.00    +0.000 C 
ENDBRANCH   7  16
ENDBRANCH   1  11
BRANCH   4  17
ATOM     17  O   UNL     1       1.124  10.479  19.198  0.00  0.00    +0.000 OA
BRANCH  17  18
ATOM     18  C   UNL     1      -0.204  10.682  18.894  0.00  0.00    +0.000 A 
ATOM     19  C   UNL     1      -0.873  10.008  17.879  0.00  0.00    +0.000 A 
ATOM     20  C   UNL     1      -2.209  10.297  17.615  0.00  0.00    +0.000 A 
ATOM     21  C   UNL     1      -2.902  11.302  18.320  0.00  0.00    +0.000 A 
ATOM     22  C   UNL     1      -4.316  11.544  17.877  0.00  0.00    +0.000 C 
ATOM     23  C   UNL     1      -2.224  11.993  19.340  0.00  0.00    +0.000 A 
ATOM     24  C   UNL     1      -0.877  11.673  19.607  0.00  0.00    +0.000 A 
BRANCH  23  25
ATOM     25  O   UNL     1      -2.663  12.989  20.167  0.00  0.00    +0.000 OA
ATOM     26  C   UNL     1      -2.988  12.725  21.518  0.00  0.00    +0.000 C 
ENDBRANCH  23  25
ENDBRANCH  17  18
ENDBRANCH   4  17
TORSDOF 5
ENDMDL
MODEL 3
REMARK VINA RESULT:      -7.4      1.264      2.221
REMARK  Name = 
REMARK  8 active torsions:
REMARK  status: ('A' for Active; 'I' for Inactive)
REMARK    1  A    between atoms: C_1  and  C_2
REMARK    2  A    between atoms: C_2  and  C_3
REMARK    3  A    between atoms: N_7  and  C_8
REMARK    4  A    between atoms: C_11  and  O_12
REMARK    5  A    between atoms: O_12  and  C_13
REMARK    6  A    between atoms: C_16  and  C_17
REMARK    7  A    between atoms: C_18  and  O_19
REMARK    8  A    between atoms: O_19  and  C_20
REMARK                            x       y       z     vdW  Elec       q    Type
REMARK                         _______ _______ _______ _____ _____    ______ ____
ROOT
ATOM      1  C   UNL     1       2.352   6.581  19.469  0.00  0.00    +0.000 A 
ATOM      2  C   UNL     1       1.769   7.323  20.507  0.00  0.00    +0.000 A 
ATOM      3  C   UNL     1       1.364   8.644  20.298  0.00  0.00    +0.000 A 
ATOM      4  C   UNL     1       1.546   9.191  19.040  0.00  0.00    +0.000 A 
ATOM      5  N   UNL     1       2.068   8.501  18.004  0.00  0.00    +0.000 NA
ATOM      6  C   UNL     1       2.480   7.235  18.245  0.00  0.00    +0.000 A 
ENDROOT
BRANCH   1  11
ATOM      7  C   UNL     1       2.816   2.907  20.043  0.00  0.00    +0.000 C 
ATOM      8  N   UNL     1       4.119   3.468  19.837  0.00  0.00    +0.000 N 
ATOM      9  C   UNL     1       4.074   4.807  19.536  0.00  0.00    +0.000 C 
ATOM     10  O   UNL     1       5.089   5.434  19.273  0.00  0.00    +0.000 OA
ATOM     11  N   UNL     1       2.777   5.240  19.647  0.00  0.00    +0.000 N 
ATOM     12  C   UNL     1       1.967   4.181  20.013  0.00  0.00    +0.000 C 
ATOM     13  O   UNL     1       0.758   4.183  20.211  0.00  0.00    +0.000 OA
ATOM     14  H   UNL     1       4.999   2.967  19.849  0.00  0.00    +0.000 HD
BRANCH   7  16
ATOM     15  C   UNL     1       2.479   2.638  17.547  0.00  0.00    +0.000 C 
ATOM     16  C   UNL     1       2.419   1.967  18.910  0.00  0.00    +0.000 C 
ENDBRANCH   7  16
ENDBRANCH   1  11
BRANCH   4  17
ATOM     17  O   UNL     1       1.163  10.510  18.851  0.00  0.00    +0.000 OA
BRANCH  17  18
ATOM     18  C   UNL     1      -0.181  10.758  18.677  0.00  0.00    +0.000 A 
ATOM     19  C   UNL     1      -0.938  11.537  19.545  0.00  0.00    +0.000 A 
ATOM     20  C   UNL     1      -2.299  11.711  19.314  0.00  0.00    +0.000 A 
ATOM     21  C   UNL     1      -2.957  11.073  18.243  0.00  0.00    +0.000 A 
ATOM     22  C   UNL     1      -4.438  11.302  18.163  0.00  0.00    +0.000 C 
ATOM     23  C   UNL     1      -2.194  10.275  17.370  0.00  0.00    +0.000 A 
ATOM     24  C   UNL     1      -0.812  10.127  17.607  0.00  0.00    +0.000 A 
BRANCH  23  25
ATOM     25  O   UNL     1      -2.580   9.567  16.266  0.00  0.00    +0.000 OA
ATOM     26  C   UNL     1      -2.922  10.224  15.061  0.00  0.00    +0.000 C 
ENDBRANCH  23  25
ENDBRANCH  17  18
ENDBRANCH   4  17
TORSDOF 5
ENDMDL
MODEL 4
REMARK VINA RESULT:      -7.4      2.535      8.456
REMARK  Name = 
REMARK  8 active torsions:
REMARK  status: ('A' for Active; 'I' for Inactive)
REMARK    1  A    between atoms: C_1  and  C_2
REMARK    2  A    between atoms: C_2  and  C_3
REMARK    3  A    between atoms: N_7  and  C_8
REMARK    4  A    between atoms: C_11  and  O_12
REMARK    5  A    between atoms: O_12  and  C_13
REMARK    6  A    between atoms: C_16  and  C_17
REMARK    7  A    between atoms: C_18  and  O_19
REMARK    8  A    between atoms: O_19  and  C_20
REMARK                            x       y       z     vdW  Elec       q    Type
REMARK                         _______ _______ _______ _____ _____    ______ ____
ROOT
ATOM      1  C   UNL     1       1.092   9.419  18.864  0.00  0.00    +0.000 A 
ATOM      2  C   UNL     1       1.842   8.918  17.790  0.00  0.00    +0.000 A 
ATOM      3  C   UNL     1       2.643   7.783  17.949  0.00  0.00    +0.000 A 
ATOM      4  C   UNL     1       2.666   7.169  19.188  0.00  0.00    +0.000 A 
ATOM      5  N   UNL     1       1.931   7.597  20.237  0.00  0.00    +0.000 NA
ATOM      6  C   UNL     1       1.191   8.716  20.062  0.00  0.00    +0.000 A 
ENDROOT
BRANCH   1  11
ATOM      7  C   UNL     1      -1.529  12.028  18.261  0.00  0.00    +0.000 C 
ATOM      8  N   UNL     1      -0.388  12.699  18.813  0.00  0.00    +0.000 N 
ATOM      9  C   UNL     1       0.619  11.830  19.152  0.00  0.00    +0.000 C 
ATOM     10  O   UNL     1       1.644  12.222  19.691  0.00  0.00    +0.000 OA
ATOM     11  N   UNL     1       0.272  10.569  18.738  0.00  0.00    +0.000 N 
ATOM     12  C   UNL     1      -0.971  10.609  18.133  0.00  0.00    +0.000 C 
ATOM     13  O   UNL     1      -1.603   9.684  17.637  0.00  0.00    +0.000 OA
ATOM     14  H   UNL     1      -0.304  13.690  19.000  0.00  0.00    +0.000 HD
BRANCH   7  16
ATOM     15  C   UNL     1      -4.040  11.808  18.503  0.00  0.00    +0.000 C 
ATOM     16  C   UNL     1      -2.719  12.058  19.214  0.00  0.00    +0.000 C 
ENDBRANCH   7  16
ENDBRANCH   1  11
BRANCH   4  17
ATOM     17  O   UNL     1       3.483   6.059  19.341  0.00  0.00    +0.000 OA
BRANCH  17  18
ATOM     18  C   UNL     1       4.196   5.644  18.238  0.00  0.00    +0.000 A 
ATOM     19  C   UNL     1       3.719   4.716  17.319  0.00  0.00    +0.000 A 
ATOM     20  C   UNL     1       4.518   4.326  16.248  0.00  0.00    +0.000 A 
ATOM     21  C   UNL     1       5.833   4.809  16.090  0.00  0.00    +0.000 A 
ATOM     22  C   UNL     1       6.594   4.244  14.925  0.00  0.00    +0.000 C 
ATOM     23  C   UNL     1       6.321   5.739  17.026  0.00  0.00    +0.000 A 
ATOM     24  C   UNL     1       5.491   6.138  18.093  0.00  0.00    +0.000 A 
BRANCH  23  25
ATOM     25  O   UNL     1       7.538   6.359  17.094  0.00  0.00    +0.000 OA
ATOM     26  C   UNL     1       7.646   7.708  17.506  0.00  0.00    +0.000 C 
ENDBRANCH  23  25
ENDBRANCH  17  18
ENDBRANCH   4  17
TORSDOF 5
ENDMDL
MODEL 5
REMARK VINA RESULT:      -7.4      1.621      2.741
REMARK  Name = 
REMARK  8 active torsions:
REMARK  status: ('A' for Active; 'I' for Inactive)
REMARK    1  A    between atoms: C_1  and  C_2
REMARK    2  A    between atoms: C_2  and  C_3
REMARK    3  A    between atoms: N_7  and  C_8
REMARK    4  A    between atoms: C_11  and  O_12
REMARK    5  A    between atoms: O_12  and  C_13
REMARK    6  A    between atoms: C_16  and  C_17
REMARK    7  A    between atoms: C_18  and  O_19
REMARK    8  A    between atoms: O_19  and  C_20
REMARK                            x       y       z     vdW  Elec       q    Type
REMARK                         _______ _______ _______ _____ _____    ______ ____
ROOT
ATOM      1  C   UNL     1       2.500   6.632  18.841  0.00  0.00    +0.000 A 
ATOM      2  C   UNL     1       1.909   7.071  20.035  0.00  0.00    +0.000 A 
ATOM      3  C   UNL     1       1.473   8.392  20.171  0.00  0.00    +0.000 A 
ATOM      4  C   UNL     1       1.634   9.246  19.094  0.00  0.00    +0.000 A 
ATOM      5  N   UNL     1       2.163   8.855  17.916  0.00  0.00    +0.000 NA
ATOM      6  C   UNL     1       2.605   7.579  17.825  0.00  0.00    +0.000 A 
ENDROOT
BRANCH   1  11
ATOM      7  C   UNL     1       4.235   3.312  18.769  0.00  0.00    +0.000 C 
ATOM      8  N   UNL     1       3.052   3.185  17.968  0.00  0.00    +0.000 N 
ATOM      9  C   UNL     1       2.284   4.323  17.981  0.00  0.00    +0.000 C 
ATOM     10  O   UNL     1       1.210   4.373  17.399  0.00  0.00    +0.000 OA
ATOM     11  N   UNL     1       2.956   5.301  18.670  0.00  0.00    +0.000 N 
ATOM     12  C   UNL     1       4.165   4.800  19.119  0.00  0.00    +0.000 C 
ATOM     13  O   UNL     1       5.033   5.377  19.763  0.00  0.00    +0.000 OA
ATOM     14  H   UNL     1       2.746   2.357  17.473  0.00  0.00    +0.000 HD
BRANCH   7  16
ATOM     15  C   UNL     1       2.901   2.720  20.839  0.00  0.00    +0.000 C 
ATOM     16  C   UNL     1       4.160   2.455  20.028  0.00  0.00    +0.000 C 
ENDBRANCH   7  16
ENDBRANCH   1  11
BRANCH   4  17
ATOM     17  O   UNL     1       1.220  10.561  19.249  0.00  0.00    +0.000 OA
BRANCH  17  18
ATOM     18  C   UNL     1      -0.101  10.842  18.980  0.00  0.00    +0.000 A 
ATOM     19  C   UNL     1      -0.885  11.678  19.767  0.00  0.00    +0.000 A 
ATOM     20  C   UNL     1      -2.223  11.883  19.443  0.00  0.00    +0.000 A 
ATOM     21  C   UNL     1      -2.832  11.223  18.357  0.00  0.00    +0.000 A 
ATOM     22  C   UNL     1      -4.298  11.494  18.174  0.00  0.00    +0.000 C 
ATOM     23  C   UNL     1      -2.043  10.368  17.566  0.00  0.00    +0.000 A 
ATOM     24  C   UNL     1      -0.684  10.187  17.897  0.00  0.00    +0.000 A 
BRANCH  23  25
ATOM     25  O   UNL     1      -2.382   9.628  16.467  0.00  0.00    +0.000 OA
ATOM     26  C   UNL     1      -2.799  10.252  15.269  0.00  0.00    +0.000 C 
ENDBRANCH  23  25
ENDBRANCH  17  18
ENDBRANCH   4  17
TORSDOF 5
ENDMDL
MODEL 6
REMARK VINA RESULT:      -7.3      2.685      8.640
REMARK  Name = 
REMARK  8 active torsions:
REMARK  status: ('A' for Active; 'I' for Inactive)
REMARK    1  A    between atoms: C_1  and  C_2
REMARK    2  A    between atoms: C_2  and  C_3
REMARK    3  A    between atoms: N_7  and  C_8
REMARK    4  A    between atoms: C_11  and  O_12
REMARK    5  A    between atoms: O_12  and  C_13
REMARK    6  A    between atoms: C_16  and  C_17
REMARK    7  A    between atoms: C_18  and  O_19
REMARK    8  A    between atoms: O_19  and  C_20
REMARK                            x       y       z     vdW  Elec       q    Type
REMARK                         _______ _______ _______ _____ _____    ______ ____
ROOT
ATOM      1  C   UNL     1       1.122   9.337  18.984  0.00  0.00    +0.000 A 
ATOM      2  C   UNL     1       1.899   8.896  17.903  0.00  0.00    +0.000 A 
ATOM      3  C   UNL     1       2.710   7.765  18.024  0.00  0.00    +0.000 A 
ATOM      4  C   UNL     1       2.717   7.092  19.232  0.00  0.00    +0.000 A 
ATOM      5  N   UNL     1       1.957   7.461  20.285  0.00  0.00    +0.000 NA
ATOM      6  C   UNL     1       1.206   8.578  20.149  0.00  0.00    +0.000 A 
ENDROOT
BRANCH   1  11
ATOM      7  C   UNL     1      -0.630  12.643  19.186  0.00  0.00    +0.000 C 
ATOM      8  N   UNL     1      -1.421  11.800  18.339  0.00  0.00    +0.000 N 
ATOM      9  C   UNL     1      -0.838  10.576  18.122  0.00  0.00    +0.000 C 
ATOM     10  O   UNL     1      -1.346   9.751  17.377  0.00  0.00    +0.000 OA
ATOM     11  N   UNL     1       0.290  10.482  18.898  0.00  0.00    +0.000 N 
ATOM     12  C   UNL     1       0.453  11.651  19.618  0.00  0.00    +0.000 C 
ATOM     13  O   UNL     1       1.337  11.933  20.417  0.00  0.00    +0.000 OA
ATOM     14  H   UNL     1      -2.291  12.048  17.885  0.00  0.00    +0.000 HD
BRANCH   7  16
ATOM     15  C   UNL     1      -0.217  15.141  19.116  0.00  0.00    +0.000 C 
ATOM     16  C   UNL     1      -0.018  13.807  18.413  0.00  0.00    +0.000 C 
ENDBRANCH   7  16
ENDBRANCH   1  11
BRANCH   4  17
ATOM     17  O   UNL     1       3.545   5.985  19.349  0.00  0.00    +0.000 OA
BRANCH  17  18
ATOM     18  C   UNL     1       4.247   5.602  18.227  0.00  0.00    +0.000 A 
ATOM     19  C   UNL     1       3.774   4.678  17.303  0.00  0.00    +0.000 A 
ATOM     20  C   UNL     1       4.562   4.321  16.212  0.00  0.00    +0.000 A 
ATOM     21  C   UNL     1       5.863   4.835  16.038  0.00  0.00    +0.000 A 
ATOM     22  C   UNL     1       6.615   4.305  14.852  0.00  0.00    +0.000 C 
ATOM     23  C   UNL     1       6.347   5.763  16.979  0.00  0.00    +0.000 A 
ATOM     24  C   UNL     1       5.527   6.128  18.066  0.00  0.00    +0.000 A 
BRANCH  23  25
ATOM     25  O   UNL     1       7.550   6.410  17.034  0.00  0.00    +0.000 OA
ATOM     26  C   UNL     1       7.635   7.757  17.456  0.00  0.00    +0.000 C 
ENDBRANCH  23  25
ENDBRANCH  17  18
ENDBRANCH   4  17
TORSDOF 5
ENDMDL
MODEL 7
REMARK VINA RESULT:      -7.2      2.187      8.542
REMARK  Name = 
REMARK  8 active torsions:
REMARK  status: ('A' for Active; 'I' for Inactive)
REMARK    1  A    between atoms: C_1  and  C_2
REMARK    2  A    between atoms: C_2  and  C_3
REMARK    3  A    between atoms: N_7  and  C_8
REMARK    4  A    between atoms: C_11  and  O_12
REMARK    5  A    between atoms: O_12  and  C_13
REMARK    6  A    between atoms: C_16  and  C_17
REMARK    7  A    between atoms: C_18  and  O_19
REMARK    8  A    between atoms: O_19  and  C_20
REMARK                            x       y       z     vdW  Elec       q    Type
REMARK                         _______ _______ _______ _____ _____    ______ ____
ROOT
ATOM      1  C   UNL     1       1.065   9.283  19.561  0.00  0.00    +0.000 A 
ATOM      2  C   UNL     1       1.866   8.793  18.520  0.00  0.00    +0.000 A 
ATOM      3  C   UNL     1       2.538   7.574  18.652  0.00  0.00    +0.000 A 
ATOM      4  C   UNL     1       2.381   6.867  19.831  0.00  0.00    +0.000 A 
ATOM      5  N   UNL     1       1.591   7.285  20.842  0.00  0.00    +0.000 NA
ATOM      6  C   UNL     1       0.979   8.483  20.698  0.00  0.00    +0.000 A 
ENDROOT
BRANCH   1  11
ATOM      7  C   UNL     1      -1.142  12.222  18.831  0.00  0.00    +0.000 C 
ATOM      8  N   UNL     1      -0.175  12.653  19.798  0.00  0.00    +0.000 N 
ATOM      9  C   UNL     1       0.649  11.634  20.208  0.00  0.00    +0.000 C 
ATOM     10  O   UNL     1       1.495  11.809  21.072  0.00  0.00    +0.000 OA
ATOM     11  N   UNL     1       0.373  10.517  19.462  0.00  0.00    +0.000 N 
ATOM     12  C   UNL     1      -0.642  10.800  18.565  0.00  0.00    +0.000 C 
ATOM     13  O   UNL     1      -1.151  10.057  17.736  0.00  0.00    +0.000 OA
ATOM     14  H   UNL     1      -0.100  13.577  20.204  0.00  0.00    +0.000 HD
BRANCH   7  16
ATOM     15  C   UNL     1      -2.751  13.245  20.499  0.00  0.00    +0.000 C 
ATOM     16  C   UNL     1      -2.552  12.200  19.412  0.00  0.00    +0.000 C 
ENDBRANCH   7  16
ENDBRANCH   1  11
BRANCH   4  17
ATOM     17  O   UNL     1       3.072   5.671  19.961  0.00  0.00    +0.000 OA
BRANCH  17  18
ATOM     18  C   UNL     1       3.803   5.244  18.874  0.00  0.00    +0.000 A 
ATOM     19  C   UNL     1       3.229   4.808  17.685  0.00  0.00    +0.000 A 
ATOM     20  C   UNL     1       4.040   4.361  16.646  0.00  0.00    +0.000 A 
ATOM     21  C   UNL     1       5.441   4.286  16.779  0.00  0.00    +0.000 A 
ATOM     22  C   UNL     1       6.174   3.720  15.597  0.00  0.00    +0.000 C 
ATOM     23  C   UNL     1       6.023   4.716  17.986  0.00  0.00    +0.000 A 
ATOM     24  C   UNL     1       5.187   5.184  19.020  0.00  0.00    +0.000 A 
BRANCH  23  25
ATOM     25  O   UNL     1       7.336   4.756  18.361  0.00  0.00    +0.000 OA
ATOM     26  C   UNL     1       7.809   5.743  19.256  0.00  0.00    +0.000 C 
ENDBRANCH  23  25
ENDBRANCH  17  18
ENDBRANCH   4  17
TORSDOF 5
ENDMDL
MODEL 8
REMARK VINA RESULT:      -7.2      2.469      8.569
REMARK  Name = 
REMARK  8 active torsions:
REMARK  status: ('A' for Active; 'I' for Inactive)
REMARK    1  A    between atoms: C_1  and  C_2
REMARK    2  A    between atoms: C_2  and  C_3
REMARK    3  A    between atoms: N_7  and  C_8
REMARK    4  A    between atoms: C_11  and  O_12
REMARK    5  A    between atoms: O_12  and  C_13
REMARK    6  A    between atoms: C_16  and  C_17
REMARK    7  A    between atoms: C_18  and  O_19
REMARK    8  A    between atoms: O_19  and  C_20
REMARK                            x       y       z     vdW  Elec       q    Type
REMARK                         _______ _______ _______ _____ _____    ______ ____
ROOT
ATOM      1  C   UNL     1       1.249   9.618  18.862  0.00  0.00    +0.000 A 
ATOM      2  C   UNL     1       1.856   8.933  17.799  0.00  0.00    +0.000 A 
ATOM      3  C   UNL     1       2.459   7.689  18.006  0.00  0.00    +0.000 A 
ATOM      4  C   UNL     1       2.431   7.154  19.281  0.00  0.00    +0.000 A 
ATOM      5  N   UNL     1       1.826   7.763  20.323  0.00  0.00    +0.000 NA
ATOM      6  C   UNL     1       1.279   8.980  20.100  0.00  0.00    +0.000 A 
ENDROOT
BRANCH   1  11
ATOM      7  C   UNL     1      -0.967  12.612  18.457  0.00  0.00    +0.000 C 
ATOM      8  N   UNL     1       0.386  13.071  18.331  0.00  0.00    +0.000 N 
ATOM      9  C   UNL     1       1.302  12.070  18.540  0.00  0.00    +0.000 C 
ATOM     10  O   UNL     1       2.503  12.294  18.528  0.00  0.00    +0.000 OA
ATOM     11  N   UNL     1       0.631  10.882  18.688  0.00  0.00    +0.000 N 
ATOM     12  C   UNL     1      -0.730  11.106  18.585  0.00  0.00    +0.000 C 
ATOM     13  O   UNL     1      -1.640  10.290  18.659  0.00  0.00    +0.000 OA
ATOM     14  H   UNL     1       0.685  14.022  18.160  0.00  0.00    +0.000 HD
BRANCH   7  16
ATOM     15  C   UNL     1      -1.099  14.530  20.106  0.00  0.00    +0.000 C 
ATOM     16  C   UNL     1      -1.636  13.163  19.713  0.00  0.00    +0.000 C 
ENDBRANCH   7  16
ENDBRANCH   1  11
BRANCH   4  17
ATOM     17  O   UNL     1       3.054   5.931  19.480  0.00  0.00    +0.000 OA
BRANCH  17  18
ATOM     18  C   UNL     1       3.855   5.458  18.464  0.00  0.00    +0.000 A 
ATOM     19  C   UNL     1       3.422   4.553  17.501  0.00  0.00    +0.000 A 
ATOM     20  C   UNL     1       4.306   4.100  16.526  0.00  0.00    +0.000 A 
ATOM     21  C   UNL     1       5.659   4.496  16.512  0.00  0.00    +0.000 A 
ATOM     22  C   UNL     1       6.505   3.871  15.440  0.00  0.00    +0.000 C 
ATOM     23  C   UNL     1       6.101   5.404  17.492  0.00  0.00    +0.000 A 
ATOM     24  C   UNL     1       5.187   5.867  18.460  0.00  0.00    +0.000 A 
BRANCH  23  25
ATOM     25  O   UNL     1       7.341   5.946  17.690  0.00  0.00    +0.000 OA
ATOM     26  C   UNL     1       7.566   7.331  17.521  0.00  0.00    +0.000 C 
ENDBRANCH  23  25
ENDBRANCH  17  18
ENDBRANCH   4  17
TORSDOF 5
ENDMDL
MODEL 9
REMARK VINA RESULT:      -7.2      1.533      2.535
REMARK  Name = 
REMARK  8 active torsions:
REMARK  status: ('A' for Active; 'I' for Inactive)
REMARK    1  A    between atoms: C_1  and  C_2
REMARK    2  A    between atoms: C_2  and  C_3
REMARK    3  A    between atoms: N_7  and  C_8
REMARK    4  A    between atoms: C_11  and  O_12
REMARK    5  A    between atoms: O_12  and  C_13
REMARK    6  A    between atoms: C_16  and  C_17
REMARK    7  A    between atoms: C_18  and  O_19
REMARK    8  A    between atoms: O_19  and  C_20
REMARK                            x       y       z     vdW  Elec       q    Type
REMARK                         _______ _______ _______ _____ _____    ______ ____
ROOT
ATOM      1  C   UNL     1       2.392   6.706  18.750  0.00  0.00    +0.000 A 
ATOM      2  C   UNL     1       2.536   7.601  17.679  0.00  0.00    +0.000 A 
ATOM      3  C   UNL     1       2.140   8.936  17.808  0.00  0.00    +0.000 A 
ATOM      4  C   UNL     1       1.613   9.346  19.020  0.00  0.00    +0.000 A 
ATOM      5  N   UNL     1       1.492   8.527  20.086  0.00  0.00    +0.000 NA
ATOM      6  C   UNL     1       1.854   7.234  19.922  0.00  0.00    +0.000 A 
ENDROOT
BRANCH   1  11
ATOM      7  C   UNL     1       3.937   3.296  18.894  0.00  0.00    +0.000 C 
ATOM      8  N   UNL     1       2.794   3.203  18.033  0.00  0.00    +0.000 N 
ATOM      9  C   UNL     1       2.093   4.381  17.962  0.00  0.00    +0.000 C 
ATOM     10  O   UNL     1       1.056   4.467  17.320  0.00  0.00    +0.000 OA
ATOM     11  N   UNL     1       2.781   5.346  18.653  0.00  0.00    +0.000 N 
ATOM     12  C   UNL     1       3.933   4.798  19.186  0.00  0.00    +0.000 C 
ATOM     13  O   UNL     1       4.796   5.351  19.856  0.00  0.00    +0.000 OA
ATOM     14  H   UNL     1       2.469   2.374  17.552  0.00  0.00    +0.000 HD
BRANCH   7  16
ATOM     15  C   UNL     1       4.964   1.652  20.524  0.00  0.00    +0.000 C 
ATOM     16  C   UNL     1       3.746   2.495  20.177  0.00  0.00    +0.000 C 
ENDBRANCH   7  16
ENDBRANCH   1  11
BRANCH   4  17
ATOM     17  O   UNL     1       1.201  10.665  19.128  0.00  0.00    +0.000 OA
BRANCH  17  18
ATOM     18  C   UNL     1      -0.133  10.930  18.908  0.00  0.00    +0.000 A 
ATOM     19  C   UNL     1      -0.896  11.762  19.718  0.00  0.00    +0.000 A 
ATOM     20  C   UNL     1      -2.247  11.950  19.444  0.00  0.00    +0.000 A 
ATOM     21  C   UNL     1      -2.890  11.275  18.387  0.00  0.00    +0.000 A 
ATOM     22  C   UNL     1      -4.364  11.527  18.258  0.00  0.00    +0.000 C 
ATOM     23  C   UNL     1      -2.121  10.423  17.572  0.00  0.00    +0.000 A 
ATOM     24  C   UNL     1      -0.749  10.260  17.852  0.00  0.00    +0.000 A 
BRANCH  23  25
ATOM     25  O   UNL     1      -2.493   9.671  16.493  0.00  0.00    +0.000 OA
ATOM     26  C   UNL     1      -2.847  10.281  15.266  0.00  0.00    +0.000 C 
ENDBRANCH  23  25
ENDBRANCH  17  18
ENDBRANCH   4  17
TORSDOF 5
ENDMDL
